MODEL 1
REMARK VINA RESULT:      -7.1      0.000      0.000
REMARK  12 active torsions:
REMARK  status: ('A' for Active; 'I' for Inactive)
REMARK    1  A    between atoms: O_2  and  C_3 
REMARK    2  A    between atoms: C_6  and  C_14 
REMARK    3  A    between atoms: C_8  and  O_9 
REMARK    4  A    between atoms: O_9  and  P_10 
REMARK    5  A    between atoms: P_10  and  O_12 
REMARK    6  A    between atoms: P_10  and  O_13 
REMARK    7  A    between atoms: C_14  and  S_15 
REMARK    8  A    between atoms: S_15  and  C_18 
REMARK    9  A    between atoms: C_19  and  C_20 
REMARK   10  A    between atoms: C_21  and  O_30 
REMARK   11  A    between atoms: C_23  and  O_28 
REMARK   12  A    between atoms: C_25  and  O_26 
ROOT
HETATM    1  S   UNK N   1      21.170  14.491   4.605  0.00  0.00     0.169 S 
HETATM    2  O   UNK N   1      20.353  15.671   4.056  0.00  0.00    -0.223 OA
HETATM    3  O   UNK N   1      22.471  14.669   3.809  0.00  0.00    -0.223 OA
ENDROOT
BRANCH   1   4
HETATM    4  C   UNK N   1      21.582  16.059   5.530  0.00  0.00     0.183 C 
BRANCH   4   5
HETATM    5  C   UNK N   1      22.591  17.034   4.971  0.00  0.00    -0.041 A 
HETATM    6  C   UNK N   1      23.937  16.850   5.262  0.00  0.00     0.011 A 
HETATM    7  C   UNK N   1      24.885  17.730   4.757  0.00  0.00     0.040 A 
HETATM    8  C   UNK N   1      24.505  18.823   3.955  0.00  0.00     0.102 A 
HETATM    9  C   UNK N   1      23.125  19.023   3.668  0.00  0.00     0.114 A 
HETATM   10  C   UNK N   1      22.188  18.120   4.184  0.00  0.00     0.048 A 
BRANCH   8  11
HETATM   11  O   UNK N   1      25.450  19.663   3.471  0.00  0.00    -0.353 OA
HETATM   12  C   UNK N   1      26.575  20.031   4.176  0.00  0.00     0.210 C 
ENDBRANCH   8  11
BRANCH   9  13
HETATM   13  O   UNK N   1      22.637  20.055   2.923  0.00  0.00    -0.252 OA
BRANCH  13  14
HETATM   14  P   UNK N   1      20.994  20.390   2.530  0.00  0.00     0.396 P 
HETATM   15  O   UNK N   1      20.261  20.661   3.871  0.00  0.00    -0.631 OA
BRANCH  14  16
HETATM   16  O   UNK N   1      20.855  21.834   1.576  0.00  0.00    -0.307 OA
HETATM   17  H   UNK N   1      20.807  22.150   0.659  0.00  0.00     0.222 HD
ENDBRANCH  14  16
BRANCH  14  18
HETATM   18  O   UNK N   1      20.212  19.032   1.781  0.00  0.00    -0.307 OA
HETATM   19  H   UNK N   1      19.598  18.631   1.146  0.00  0.00     0.222 HD
ENDBRANCH  14  18
ENDBRANCH  13  14
ENDBRANCH   9  13
ENDBRANCH   4   5
ENDBRANCH   1   4
BRANCH   1  20
HETATM   20  C   UNK N   1      21.721  14.421   6.317  0.00  0.00     0.110 C 
HETATM   21  C   UNK N   1      21.946  13.228   6.869  0.00  0.00     0.028 C 
BRANCH  21  22
HETATM   22  C   UNK N   1      22.566  12.966   8.194  0.00  0.00     0.031 A 
HETATM   23  C   UNK N   1      23.941  12.615   8.319  0.00  0.00     0.083 A 
HETATM   24  C   UNK N   1      24.464  12.301   9.586  0.00  0.00     0.074 A 
HETATM   25  C   UNK N   1      23.657  12.330  10.726  0.00  0.00     0.073 A 
HETATM   26  C   UNK N   1      22.322  12.694  10.607  0.00  0.00     0.074 A 
HETATM   27  C   UNK N   1      21.755  13.015   9.371  0.00  0.00     0.083 A 
BRANCH  23  28
HETATM   28  O   UNK N   1      24.740  12.565   7.223  0.00  0.00    -0.355 OA
HETATM   29  C   UNK N   1      25.579  13.592   6.846  0.00  0.00     0.210 C 
ENDBRANCH  23  28
BRANCH  25  30
HETATM   30  O   UNK N   1      24.136  12.000  11.950  0.00  0.00    -0.356 OA
HETATM   31  C   UNK N   1      23.348  11.921  13.075  0.00  0.00     0.210 C 
ENDBRANCH  25  30
BRANCH  27  32
HETATM   32  O   UNK N   1      20.433  13.352   9.384  0.00  0.00    -0.355 OA
HETATM   33  C   UNK N   1      19.891  14.597   9.597  0.00  0.00     0.210 C 
ENDBRANCH  27  32
ENDBRANCH  21  22
ENDBRANCH   1  20
TORSDOF 12
ENDMDL
MODEL 2
REMARK VINA RESULT:      -6.9      2.592      4.147
REMARK  12 active torsions:
REMARK  status: ('A' for Active; 'I' for Inactive)
REMARK    1  A    between atoms: O_2  and  C_3 
REMARK    2  A    between atoms: C_6  and  C_14 
REMARK    3  A    between atoms: C_8  and  O_9 
REMARK    4  A    between atoms: O_9  and  P_10 
REMARK    5  A    between atoms: P_10  and  O_12 
REMARK    6  A    between atoms: P_10  and  O_13 
REMARK    7  A    between atoms: C_14  and  S_15 
REMARK    8  A    between atoms: S_15  and  C_18 
REMARK    9  A    between atoms: C_19  and  C_20 
REMARK   10  A    between atoms: C_21  and  O_30 
REMARK   11  A    between atoms: C_23  and  O_28 
REMARK   12  A    between atoms: C_25  and  O_26 
ROOT
HETATM    1  S   UNK N   1      20.302  16.365   7.855  0.00  0.00     0.169 S 
HETATM    2  O   UNK N   1      20.626  17.853   7.651  0.00  0.00    -0.223 OA
HETATM    3  O   UNK N   1      19.216  16.175   6.786  0.00  0.00    -0.223 OA
ENDROOT
BRANCH   1   4
HETATM    4  C   UNK N   1      21.545  16.583   6.478  0.00  0.00     0.183 C 
BRANCH   4   5
HETATM    5  C   UNK N   1      21.081  16.804   5.058  0.00  0.00    -0.041 A 
HETATM    6  C   UNK N   1      20.926  15.705   4.222  0.00  0.00     0.011 A 
HETATM    7  C   UNK N   1      20.498  15.881   2.913  0.00  0.00     0.040 A 
HETATM    8  C   UNK N   1      20.223  17.166   2.407  0.00  0.00     0.102 A 
HETATM    9  C   UNK N   1      20.396  18.295   3.256  0.00  0.00     0.114 A 
HETATM   10  C   UNK N   1      20.824  18.092   4.573  0.00  0.00     0.048 A 
BRANCH   8  11
HETATM   11  O   UNK N   1      19.802  17.309   1.129  0.00  0.00    -0.353 OA
HETATM   12  C   UNK N   1      19.507  16.248   0.300  0.00  0.00     0.210 C 
ENDBRANCH   8  11
BRANCH   9  13
HETATM   13  O   UNK N   1      20.183  19.585   2.872  0.00  0.00    -0.252 OA
BRANCH  13  14
HETATM   14  P   UNK N   1      20.947  20.447   1.591  0.00  0.00     0.396 P 
HETATM   15  O   UNK N   1      22.475  20.365   1.848  0.00  0.00    -0.631 OA
BRANCH  14  16
HETATM   16  O   UNK N   1      20.650  19.690   0.057  0.00  0.00    -0.307 OA
HETATM   17  H   UNK N   1      20.754  19.821  -0.900  0.00  0.00     0.222 HD
ENDBRANCH  14  16
BRANCH  14  18
HETATM   18  O   UNK N   1      20.515  22.129   1.586  0.00  0.00    -0.307 OA
HETATM   19  H   UNK N   1      19.943  22.875   1.827  0.00  0.00     0.222 HD
ENDBRANCH  14  18
ENDBRANCH  13  14
ENDBRANCH   9  13
ENDBRANCH   4   5
ENDBRANCH   1   4
BRANCH   1  20
HETATM   20  C   UNK N   1      21.495  15.067   7.488  0.00  0.00     0.110 C 
HETATM   21  C   UNK N   1      21.270  13.840   7.960  0.00  0.00     0.028 C 
BRANCH  21  22
HETATM   22  C   UNK N   1      22.031  12.607   7.625  0.00  0.00     0.031 A 
HETATM   23  C   UNK N   1      21.703  11.813   6.489  0.00  0.00     0.083 A 
HETATM   24  C   UNK N   1      22.401  10.615   6.257  0.00  0.00     0.074 A 
HETATM   25  C   UNK N   1      23.414  10.191   7.121  0.00  0.00     0.073 A 
HETATM   26  C   UNK N   1      23.749  10.978   8.216  0.00  0.00     0.074 A 
HETATM   27  C   UNK N   1      23.086  12.176   8.489  0.00  0.00     0.083 A 
BRANCH  23  28
HETATM   28  O   UNK N   1      20.711  12.196   5.645  0.00  0.00    -0.355 OA
HETATM   29  C   UNK N   1      19.721  11.346   5.201  0.00  0.00     0.210 C 
ENDBRANCH  23  28
BRANCH  25  30
HETATM   30  O   UNK N   1      24.075   9.024   6.930  0.00  0.00    -0.356 OA
HETATM   31  C   UNK N   1      23.467   7.790   6.998  0.00  0.00     0.210 C 
ENDBRANCH  25  30
BRANCH  27  32
HETATM   32  O   UNK N   1      23.502  12.856   9.596  0.00  0.00    -0.355 OA
HETATM   33  C   UNK N   1      24.783  12.943  10.090  0.00  0.00     0.210 C 
ENDBRANCH  27  32
ENDBRANCH  21  22
ENDBRANCH   1  20
TORSDOF 12
ENDMDL
MODEL 3
REMARK VINA RESULT:      -6.9      2.462      3.995
REMARK  12 active torsions:
REMARK  status: ('A' for Active; 'I' for Inactive)
REMARK    1  A    between atoms: O_2  and  C_3 
REMARK    2  A    between atoms: C_6  and  C_14 
REMARK    3  A    between atoms: C_8  and  O_9 
REMARK    4  A    between atoms: O_9  and  P_10 
REMARK    5  A    between atoms: P_10  and  O_12 
REMARK    6  A    between atoms: P_10  and  O_13 
REMARK    7  A    between atoms: C_14  and  S_15 
REMARK    8  A    between atoms: S_15  and  C_18 
REMARK    9  A    between atoms: C_19  and  C_20 
REMARK   10  A    between atoms: C_21  and  O_30 
REMARK   11  A    between atoms: C_23  and  O_28 
REMARK   12  A    between atoms: C_25  and  O_26 
ROOT
HETATM    1  S   UNK N   1      20.067  16.171   8.427  0.00  0.00     0.169 S 
HETATM    2  O   UNK N   1      20.376  17.668   8.275  0.00  0.00    -0.223 OA
HETATM    3  O   UNK N   1      19.111  15.969   7.242  0.00  0.00    -0.223 OA
ENDROOT
BRANCH   1   4
HETATM    4  C   UNK N   1      21.449  16.434   7.199  0.00  0.00     0.183 C 
BRANCH   4   5
HETATM    5  C   UNK N   1      21.142  16.656   5.737  0.00  0.00    -0.041 A 
HETATM    6  C   UNK N   1      20.363  15.722   5.064  0.00  0.00     0.011 A 
HETATM    7  C   UNK N   1      20.063  15.904   3.721  0.00  0.00     0.040 A 
HETATM    8  C   UNK N   1      20.543  17.024   3.017  0.00  0.00     0.102 A 
HETATM    9  C   UNK N   1      21.354  17.975   3.699  0.00  0.00     0.114 A 
HETATM   10  C   UNK N   1      21.639  17.772   5.055  0.00  0.00     0.048 A 
BRANCH   8  11
HETATM   11  O   UNK N   1      20.231  17.181   1.709  0.00  0.00    -0.353 OA
HETATM   12  C   UNK N   1      20.138  16.135   0.818  0.00  0.00     0.210 C 
ENDBRANCH   8  11
BRANCH   9  13
HETATM   13  O   UNK N   1      21.893  19.084   3.118  0.00  0.00    -0.252 OA
BRANCH  13  14
HETATM   14  P   UNK N   1      21.099  20.559   2.718  0.00  0.00     0.396 P 
HETATM   15  O   UNK N   1      20.025  20.798   3.812  0.00  0.00    -0.631 OA
BRANCH  14  16
HETATM   16  O   UNK N   1      22.196  21.903   2.782  0.00  0.00    -0.307 OA
HETATM   17  H   UNK N   1      22.923  22.327   2.299  0.00  0.00     0.222 HD
ENDBRANCH  14  16
BRANCH  14  18
HETATM   18  O   UNK N   1      20.269  20.462   1.195  0.00  0.00    -0.307 OA
HETATM   19  H   UNK N   1      20.235  20.498   0.226  0.00  0.00     0.222 HD
ENDBRANCH  14  18
ENDBRANCH  13  14
ENDBRANCH   9  13
ENDBRANCH   4   5
ENDBRANCH   1   4
BRANCH   1  20
HETATM   20  C   UNK N   1      21.324  14.905   8.183  0.00  0.00     0.110 C 
HETATM   21  C   UNK N   1      20.998  13.630   8.399  0.00  0.00     0.028 C 
BRANCH  21  22
HETATM   22  C   UNK N   1      21.828  12.436   8.087  0.00  0.00     0.031 A 
HETATM   23  C   UNK N   1      22.851  11.988   8.970  0.00  0.00     0.083 A 
HETATM   24  C   UNK N   1      23.661  10.901   8.597  0.00  0.00     0.074 A 
HETATM   25  C   UNK N   1      23.478  10.251   7.373  0.00  0.00     0.073 A 
HETATM   26  C   UNK N   1      22.465  10.675   6.523  0.00  0.00     0.074 A 
HETATM   27  C   UNK N   1      21.633  11.749   6.848  0.00  0.00     0.083 A 
BRANCH  23  28
HETATM   28  O   UNK N   1      23.060  12.614  10.156  0.00  0.00    -0.355 OA
HETATM   29  C   UNK N   1      22.602  12.128  11.362  0.00  0.00     0.210 C 
ENDBRANCH  23  28
BRANCH  25  30
HETATM   30  O   UNK N   1      24.269   9.223   6.984  0.00  0.00    -0.356 OA
HETATM   31  C   UNK N   1      24.154   8.601   5.761  0.00  0.00     0.210 C 
ENDBRANCH  25  30
BRANCH  27  32
HETATM   32  O   UNK N   1      20.679  12.072   5.928  0.00  0.00    -0.355 OA
HETATM   33  C   UNK N   1      20.775  11.983   4.559  0.00  0.00     0.210 C 
ENDBRANCH  27  32
ENDBRANCH  21  22
ENDBRANCH   1  20
TORSDOF 12
ENDMDL
MODEL 4
REMARK VINA RESULT:      -6.7      4.568      6.684
REMARK  12 active torsions:
REMARK  status: ('A' for Active; 'I' for Inactive)
REMARK    1  A    between atoms: O_2  and  C_3 
REMARK    2  A    between atoms: C_6  and  C_14 
REMARK    3  A    between atoms: C_8  and  O_9 
REMARK    4  A    between atoms: O_9  and  P_10 
REMARK    5  A    between atoms: P_10  and  O_12 
REMARK    6  A    between atoms: P_10  and  O_13 
REMARK    7  A    between atoms: C_14  and  S_15 
REMARK    8  A    between atoms: S_15  and  C_18 
REMARK    9  A    between atoms: C_19  and  C_20 
REMARK   10  A    between atoms: C_21  and  O_30 
REMARK   11  A    between atoms: C_23  and  O_28 
REMARK   12  A    between atoms: C_25  and  O_26 
ROOT
HETATM    1  S   UNK N   1      25.967  15.732   3.878  0.00  0.00     0.169 S 
HETATM    2  O   UNK N   1      24.494  15.636   4.301  0.00  0.00    -0.223 OA
HETATM    3  O   UNK N   1      25.828  16.562   2.594  0.00  0.00    -0.223 OA
ENDROOT
BRANCH   1   4
HETATM    4  C   UNK N   1      25.464  17.245   4.849  0.00  0.00     0.183 C 
BRANCH   4   5
HETATM    5  C   UNK N   1      24.484  18.237   4.265  0.00  0.00    -0.041 A 
HETATM    6  C   UNK N   1      24.974  19.333   3.565  0.00  0.00     0.011 A 
HETATM    7  C   UNK N   1      24.094  20.257   3.016  0.00  0.00     0.040 A 
HETATM    8  C   UNK N   1      22.702  20.108   3.163  0.00  0.00     0.102 A 
HETATM    9  C   UNK N   1      22.199  18.995   3.893  0.00  0.00     0.114 A 
HETATM   10  C   UNK N   1      23.105  18.074   4.433  0.00  0.00     0.048 A 
BRANCH   8  11
HETATM   11  O   UNK N   1      21.867  21.020   2.613  0.00  0.00    -0.353 OA
HETATM   12  C   UNK N   1      21.242  20.845   1.398  0.00  0.00     0.210 C 
ENDBRANCH   8  11
BRANCH   9  13
HETATM   13  O   UNK N   1      20.875  18.759   4.119  0.00  0.00    -0.252 OA
BRANCH  13  14
HETATM   14  P   UNK N   1      19.812  17.748   3.216  0.00  0.00     0.396 P 
HETATM   15  O   UNK N   1      20.697  16.936   2.234  0.00  0.00    -0.631 OA
BRANCH  14  16
HETATM   16  O   UNK N   1      19.009  16.602   4.243  0.00  0.00    -0.307 OA
HETATM   17  H   UNK N   1      19.150  15.777   4.734  0.00  0.00     0.222 HD
ENDBRANCH  14  16
BRANCH  14  18
HETATM   18  O   UNK N   1      18.692  18.669   2.259  0.00  0.00    -0.307 OA
HETATM   19  H   UNK N   1      18.442  19.174   1.470  0.00  0.00     0.222 HD
ENDBRANCH  14  18
ENDBRANCH  13  14
ENDBRANCH   9  13
ENDBRANCH   4   5
ENDBRANCH   1   4
BRANCH   1  20
HETATM   20  C   UNK N   1      27.183  16.642   4.845  0.00  0.00     0.110 C 
HETATM   21  C   UNK N   1      28.245  15.988   5.317  0.00  0.00     0.028 C 
BRANCH  21  22
HETATM   22  C   UNK N   1      29.435  16.586   5.977  0.00  0.00     0.031 A 
HETATM   23  C   UNK N   1      30.708  16.614   5.339  0.00  0.00     0.083 A 
HETATM   24  C   UNK N   1      31.821  17.121   6.033  0.00  0.00     0.074 A 
HETATM   25  C   UNK N   1      31.698  17.600   7.340  0.00  0.00     0.073 A 
HETATM   26  C   UNK N   1      30.452  17.593   7.954  0.00  0.00     0.074 A 
HETATM   27  C   UNK N   1      29.317  17.101   7.306  0.00  0.00     0.083 A 
BRANCH  23  28
HETATM   28  O   UNK N   1      30.855  16.139   4.076  0.00  0.00    -0.355 OA
HETATM   29  C   UNK N   1      31.736  16.673   3.160  0.00  0.00     0.210 C 
ENDBRANCH  23  28
BRANCH  25  30
HETATM   30  O   UNK N   1      32.765  18.062   8.035  0.00  0.00    -0.356 OA
HETATM   31  C   UNK N   1      33.879  17.300   8.307  0.00  0.00     0.210 C 
ENDBRANCH  25  30
BRANCH  27  32
HETATM   32  O   UNK N   1      28.152  17.143   8.016  0.00  0.00    -0.355 OA
HETATM   33  C   UNK N   1      27.990  17.505   9.333  0.00  0.00     0.210 C 
ENDBRANCH  27  32
ENDBRANCH  21  22
ENDBRANCH   1  20
TORSDOF 12
ENDMDL
MODEL 5
REMARK VINA RESULT:      -6.7      4.426      7.036
REMARK  12 active torsions:
REMARK  status: ('A' for Active; 'I' for Inactive)
REMARK    1  A    between atoms: O_2  and  C_3 
REMARK    2  A    between atoms: C_6  and  C_14 
REMARK    3  A    between atoms: C_8  and  O_9 
REMARK    4  A    between atoms: O_9  and  P_10 
REMARK    5  A    between atoms: P_10  and  O_12 
REMARK    6  A    between atoms: P_10  and  O_13 
REMARK    7  A    between atoms: C_14  and  S_15 
REMARK    8  A    between atoms: S_15  and  C_18 
REMARK    9  A    between atoms: C_19  and  C_20 
REMARK   10  A    between atoms: C_21  and  O_30 
REMARK   11  A    between atoms: C_23  and  O_28 
REMARK   12  A    between atoms: C_25  and  O_26 
ROOT
HETATM    1  S   UNK N   1      26.590  20.146   4.032  0.00  0.00     0.169 S 
HETATM    2  O   UNK N   1      25.707  20.320   2.787  0.00  0.00    -0.223 OA
HETATM    3  O   UNK N   1      25.541  20.334   5.137  0.00  0.00    -0.223 OA
ENDROOT
BRANCH   1   4
HETATM    4  C   UNK N   1      25.757  18.535   3.588  0.00  0.00     0.183 C 
BRANCH   4   5
HETATM    5  C   UNK N   1      24.391  18.203   4.140  0.00  0.00    -0.041 A 
HETATM    6  C   UNK N   1      24.288  17.269   5.163  0.00  0.00     0.011 A 
HETATM    7  C   UNK N   1      23.043  16.950   5.691  0.00  0.00     0.040 A 
HETATM    8  C   UNK N   1      21.871  17.552   5.197  0.00  0.00     0.102 A 
HETATM    9  C   UNK N   1      21.972  18.498   4.138  0.00  0.00     0.114 A 
HETATM   10  C   UNK N   1      23.238  18.808   3.626  0.00  0.00     0.048 A 
BRANCH   8  11
HETATM   11  O   UNK N   1      20.671  17.227   5.733  0.00  0.00    -0.353 OA
HETATM   12  C   UNK N   1      19.838  16.264   5.206  0.00  0.00     0.210 C 
ENDBRANCH   8  11
BRANCH   9  13
HETATM   13  O   UNK N   1      20.907  19.129   3.566  0.00  0.00    -0.252 OA
BRANCH  13  14
HETATM   14  P   UNK N   1      20.056  18.680   2.138  0.00  0.00     0.396 P 
HETATM   15  O   UNK N   1      20.399  17.192   1.863  0.00  0.00    -0.631 OA
BRANCH  14  16
HETATM   16  O   UNK N   1      18.338  18.770   2.373  0.00  0.00    -0.307 OA
HETATM   17  H   UNK N   1      17.538  18.222   2.425  0.00  0.00     0.222 HD
ENDBRANCH  14  16
BRANCH  14  18
HETATM   18  O   UNK N   1      20.576  19.592   0.754  0.00  0.00    -0.307 OA
HETATM   19  H   UNK N   1      20.578  19.797  -0.194  0.00  0.00     0.222 HD
ENDBRANCH  14  18
ENDBRANCH  13  14
ENDBRANCH   9  13
ENDBRANCH   4   5
ENDBRANCH   1   4
BRANCH   1  20
HETATM   20  C   UNK N   1      27.367  18.575   4.441  0.00  0.00     0.110 C 
HETATM   21  C   UNK N   1      28.641  18.574   4.836  0.00  0.00     0.028 C 
BRANCH  21  22
HETATM   22  C   UNK N   1      29.401  17.419   5.381  0.00  0.00     0.031 A 
HETATM   23  C   UNK N   1      29.734  17.329   6.763  0.00  0.00     0.083 A 
HETATM   24  C   UNK N   1      30.520  16.256   7.218  0.00  0.00     0.074 A 
HETATM   25  C   UNK N   1      30.980  15.274   6.337  0.00  0.00     0.073 A 
HETATM   26  C   UNK N   1      30.636  15.350   4.993  0.00  0.00     0.074 A 
HETATM   27  C   UNK N   1      29.857  16.395   4.492  0.00  0.00     0.083 A 
BRANCH  23  28
HETATM   28  O   UNK N   1      29.313  18.281   7.635  0.00  0.00    -0.355 OA
HETATM   29  C   UNK N   1      28.404  18.039   8.643  0.00  0.00     0.210 C 
ENDBRANCH  23  28
BRANCH  25  30
HETATM   30  O   UNK N   1      31.764  14.251   6.753  0.00  0.00    -0.356 OA
HETATM   31  C   UNK N   1      33.110  14.169   6.477  0.00  0.00     0.210 C 
ENDBRANCH  25  30
BRANCH  27  32
HETATM   32  O   UNK N   1      29.592  16.361   3.154  0.00  0.00    -0.355 OA
HETATM   33  C   UNK N   1      28.650  15.595   2.509  0.00  0.00     0.210 C 
ENDBRANCH  27  32
ENDBRANCH  21  22
ENDBRANCH   1  20
TORSDOF 12
ENDMDL
MODEL 6
REMARK VINA RESULT:      -6.6     10.568     12.776
REMARK  12 active torsions:
REMARK  status: ('A' for Active; 'I' for Inactive)
REMARK    1  A    between atoms: O_2  and  C_3 
REMARK    2  A    between atoms: C_6  and  C_14 
REMARK    3  A    between atoms: C_8  and  O_9 
REMARK    4  A    between atoms: O_9  and  P_10 
REMARK    5  A    between atoms: P_10  and  O_12 
REMARK    6  A    between atoms: P_10  and  O_13 
REMARK    7  A    between atoms: C_14  and  S_15 
REMARK    8  A    between atoms: S_15  and  C_18 
REMARK    9  A    between atoms: C_19  and  C_20 
REMARK   10  A    between atoms: C_21  and  O_30 
REMARK   11  A    between atoms: C_23  and  O_28 
REMARK   12  A    between atoms: C_25  and  O_26 
ROOT
HETATM    1  S   UNK N   1      35.835  15.644  10.397  0.00  0.00     0.169 S 
HETATM    2  O   UNK N   1      35.436  15.231   8.972  0.00  0.00    -0.223 OA
HETATM    3  O   UNK N   1      35.154  17.018  10.482  0.00  0.00    -0.223 OA
ENDROOT
BRANCH   1   4
HETATM    4  C   UNK N   1      34.140  14.862  10.392  0.00  0.00     0.183 C 
BRANCH   4   5
HETATM    5  C   UNK N   1      33.197  15.089   9.234  0.00  0.00    -0.041 A 
HETATM    6  C   UNK N   1      33.285  14.260   8.122  0.00  0.00     0.011 A 
HETATM    7  C   UNK N   1      32.426  14.445   7.046  0.00  0.00     0.040 A 
HETATM    8  C   UNK N   1      31.465  15.473   7.056  0.00  0.00     0.102 A 
HETATM    9  C   UNK N   1      31.383  16.334   8.187  0.00  0.00     0.114 A 
HETATM   10  C   UNK N   1      32.255  16.124   9.261  0.00  0.00     0.048 A 
BRANCH   8  11
HETATM   11  O   UNK N   1      30.637  15.628   5.996  0.00  0.00    -0.353 OA
HETATM   12  C   UNK N   1      31.047  16.113   4.773  0.00  0.00     0.210 C 
ENDBRANCH   8  11
BRANCH   9  13
HETATM   13  O   UNK N   1      30.509  17.373   8.299  0.00  0.00    -0.252 OA
BRANCH  13  14
HETATM   14  P   UNK N   1      29.363  17.660   9.553  0.00  0.00     0.396 P 
HETATM   15  O   UNK N   1      29.727  19.030  10.185  0.00  0.00    -0.631 OA
BRANCH  14  16
HETATM   16  O   UNK N   1      27.755  17.806   8.917  0.00  0.00    -0.307 OA
HETATM   17  H   UNK N   1      26.859  17.439   8.994  0.00  0.00     0.222 HD
ENDBRANCH  14  16
BRANCH  14  18
HETATM   18  O   UNK N   1      29.463  16.470  10.814  0.00  0.00    -0.307 OA
HETATM   19  H   UNK N   1      29.484  16.197  11.745  0.00  0.00     0.222 HD
ENDBRANCH  14  18
ENDBRANCH  13  14
ENDBRANCH   9  13
ENDBRANCH   4   5
ENDBRANCH   1   4
BRANCH   1  20
HETATM   20  C   UNK N   1      35.228  14.775  11.852  0.00  0.00     0.110 C 
HETATM   21  C   UNK N   1      36.087  14.049  12.569  0.00  0.00     0.028 C 
BRANCH  21  22
HETATM   22  C   UNK N   1      35.826  13.409  13.885  0.00  0.00     0.031 A 
HETATM   23  C   UNK N   1      35.034  12.231  13.998  0.00  0.00     0.083 A 
HETATM   24  C   UNK N   1      34.751  11.705  15.271  0.00  0.00     0.074 A 
HETATM   25  C   UNK N   1      35.235  12.320  16.429  0.00  0.00     0.073 A 
HETATM   26  C   UNK N   1      36.025  13.456  16.317  0.00  0.00     0.074 A 
HETATM   27  C   UNK N   1      36.336  14.016  15.076  0.00  0.00     0.083 A 
BRANCH  23  28
HETATM   28  O   UNK N   1      34.539  11.626  12.888  0.00  0.00    -0.355 OA
HETATM   29  C   UNK N   1      34.136  10.308  12.857  0.00  0.00     0.210 C 
ENDBRANCH  23  28
BRANCH  25  30
HETATM   30  O   UNK N   1      34.945  11.846  17.664  0.00  0.00    -0.356 OA
HETATM   31  C   UNK N   1      35.289  12.500  18.826  0.00  0.00     0.210 C 
ENDBRANCH  25  30
BRANCH  27  32
HETATM   32  O   UNK N   1      37.116  15.135  15.097  0.00  0.00    -0.355 OA
HETATM   33  C   UNK N   1      37.463  15.890  16.193  0.00  0.00     0.210 C 
ENDBRANCH  27  32
ENDBRANCH  21  22
ENDBRANCH   1  20
TORSDOF 12
ENDMDL
MODEL 7
REMARK VINA RESULT:      -6.6      8.925     11.130
REMARK  12 active torsions:
REMARK  status: ('A' for Active; 'I' for Inactive)
REMARK    1  A    between atoms: O_2  and  C_3 
REMARK    2  A    between atoms: C_6  and  C_14 
REMARK    3  A    between atoms: C_8  and  O_9 
REMARK    4  A    between atoms: O_9  and  P_10 
REMARK    5  A    between atoms: P_10  and  O_12 
REMARK    6  A    between atoms: P_10  and  O_13 
REMARK    7  A    between atoms: C_14  and  S_15 
REMARK    8  A    between atoms: S_15  and  C_18 
REMARK    9  A    between atoms: C_19  and  C_20 
REMARK   10  A    between atoms: C_21  and  O_30 
REMARK   11  A    between atoms: C_23  and  O_28 
REMARK   12  A    between atoms: C_25  and  O_26 
ROOT
HETATM    1  S   UNK N   1      34.429  17.417   8.292  0.00  0.00     0.169 S 
HETATM    2  O   UNK N   1      34.520  18.090   6.913  0.00  0.00    -0.223 OA
HETATM    3  O   UNK N   1      33.034  17.886   8.730  0.00  0.00    -0.223 OA
ENDROOT
BRANCH   1   4
HETATM    4  C   UNK N   1      33.607  16.360   6.990  0.00  0.00     0.183 C 
BRANCH   4   5
HETATM    5  C   UNK N   1      32.273  16.763   6.408  0.00  0.00    -0.041 A 
HETATM    6  C   UNK N   1      32.222  17.225   5.099  0.00  0.00     0.011 A 
HETATM    7  C   UNK N   1      31.007  17.598   4.539  0.00  0.00     0.040 A 
HETATM    8  C   UNK N   1      29.814  17.526   5.283  0.00  0.00     0.102 A 
HETATM    9  C   UNK N   1      29.866  17.068   6.630  0.00  0.00     0.114 A 
HETATM   10  C   UNK N   1      31.101  16.693   7.170  0.00  0.00     0.048 A 
BRANCH   8  11
HETATM   11  O   UNK N   1      28.643  17.891   4.711  0.00  0.00    -0.353 OA
HETATM   12  C   UNK N   1      28.108  19.157   4.813  0.00  0.00     0.210 C 
ENDBRANCH   8  11
BRANCH   9  13
HETATM   13  O   UNK N   1      28.782  16.977   7.452  0.00  0.00    -0.252 OA
BRANCH  13  14
HETATM   14  P   UNK N   1      28.482  17.851   8.905  0.00  0.00     0.396 P 
HETATM   15  O   UNK N   1      27.741  16.881   9.864  0.00  0.00    -0.631 OA
BRANCH  14  16
HETATM   16  O   UNK N   1      29.964  18.304   9.687  0.00  0.00    -0.307 OA
HETATM   17  H   UNK N   1      30.539  19.066   9.865  0.00  0.00     0.222 HD
ENDBRANCH  14  16
BRANCH  14  18
HETATM   18  O   UNK N   1      27.436  19.213   8.643  0.00  0.00    -0.307 OA
HETATM   19  H   UNK N   1      27.123  20.111   8.834  0.00  0.00     0.222 HD
ENDBRANCH  14  18
ENDBRANCH  13  14
ENDBRANCH   9  13
ENDBRANCH   4   5
ENDBRANCH   1   4
BRANCH   1  20
HETATM   20  C   UNK N   1      34.359  15.629   8.481  0.00  0.00     0.110 C 
HETATM   21  C   UNK N   1      35.218  15.039   9.313  0.00  0.00     0.028 C 
BRANCH  21  22
HETATM   22  C   UNK N   1      35.207  13.614   9.738  0.00  0.00     0.031 A 
HETATM   23  C   UNK N   1      35.330  12.553   8.796  0.00  0.00     0.083 A 
HETATM   24  C   UNK N   1      35.236  11.222   9.237  0.00  0.00     0.074 A 
HETATM   25  C   UNK N   1      35.027  10.920  10.585  0.00  0.00     0.073 A 
HETATM   26  C   UNK N   1      34.930  11.956  11.506  0.00  0.00     0.074 A 
HETATM   27  C   UNK N   1      35.017  13.295  11.119  0.00  0.00     0.083 A 
BRANCH  23  28
HETATM   28  O   UNK N   1      35.517  12.821   7.478  0.00  0.00    -0.355 OA
HETATM   29  C   UNK N   1      34.633  12.439   6.492  0.00  0.00     0.210 C 
ENDBRANCH  23  28
BRANCH  25  30
HETATM   30  O   UNK N   1      34.903   9.644  11.022  0.00  0.00    -0.356 OA
HETATM   31  C   UNK N   1      35.097   8.546  10.215  0.00  0.00     0.210 C 
ENDBRANCH  25  30
BRANCH  27  32
HETATM   32  O   UNK N   1      34.901  14.219  12.116  0.00  0.00    -0.355 OA
HETATM   33  C   UNK N   1      35.909  14.741  12.891  0.00  0.00     0.210 C 
ENDBRANCH  27  32
ENDBRANCH  21  22
ENDBRANCH   1  20
TORSDOF 12
ENDMDL
MODEL 8
REMARK VINA RESULT:      -6.6      4.300      6.875
REMARK  12 active torsions:
REMARK  status: ('A' for Active; 'I' for Inactive)
REMARK    1  A    between atoms: O_2  and  C_3 
REMARK    2  A    between atoms: C_6  and  C_14 
REMARK    3  A    between atoms: C_8  and  O_9 
REMARK    4  A    between atoms: O_9  and  P_10 
REMARK    5  A    between atoms: P_10  and  O_12 
REMARK    6  A    between atoms: P_10  and  O_13 
REMARK    7  A    between atoms: C_14  and  S_15 
REMARK    8  A    between atoms: S_15  and  C_18 
REMARK    9  A    between atoms: C_19  and  C_20 
REMARK   10  A    between atoms: C_21  and  O_30 
REMARK   11  A    between atoms: C_23  and  O_28 
REMARK   12  A    between atoms: C_25  and  O_26 
ROOT
HETATM    1  S   UNK N   1      26.655  20.198   4.442  0.00  0.00     0.169 S 
HETATM    2  O   UNK N   1      25.775  20.460   3.210  0.00  0.00    -0.223 OA
HETATM    3  O   UNK N   1      25.588  20.225   5.547  0.00  0.00    -0.223 OA
ENDROOT
BRANCH   1   4
HETATM    4  C   UNK N   1      25.900  18.605   3.825  0.00  0.00     0.183 C 
BRANCH   4   5
HETATM    5  C   UNK N   1      24.509  18.202   4.254  0.00  0.00    -0.041 A 
HETATM    6  C   UNK N   1      24.362  17.192   5.196  0.00  0.00     0.011 A 
HETATM    7  C   UNK N   1      23.093  16.805   5.609  0.00  0.00     0.040 A 
HETATM    8  C   UNK N   1      21.941  17.417   5.081  0.00  0.00     0.102 A 
HETATM    9  C   UNK N   1      22.088  18.442   4.104  0.00  0.00     0.114 A 
HETATM   10  C   UNK N   1      23.377  18.818   3.707  0.00  0.00     0.048 A 
BRANCH   8  11
HETATM   11  O   UNK N   1      20.717  17.025   5.505  0.00  0.00    -0.353 OA
HETATM   12  C   UNK N   1      20.308  15.709   5.538  0.00  0.00     0.210 C 
ENDBRANCH   8  11
BRANCH   9  13
HETATM   13  O   UNK N   1      21.048  19.090   3.507  0.00  0.00    -0.252 OA
BRANCH  13  14
HETATM   14  P   UNK N   1      20.139  18.587   2.133  0.00  0.00     0.396 P 
HETATM   15  O   UNK N   1      20.499  17.099   1.880  0.00  0.00    -0.631 OA
BRANCH  14  16
HETATM   16  O   UNK N   1      18.433  18.650   2.448  0.00  0.00    -0.307 OA
HETATM   17  H   UNK N   1      17.569  18.678   2.007  0.00  0.00     0.222 HD
ENDBRANCH  14  16
BRANCH  14  18
HETATM   18  O   UNK N   1      20.574  19.472   0.703  0.00  0.00    -0.307 OA
HETATM   19  H   UNK N   1      20.527  19.652  -0.249  0.00  0.00     0.222 HD
ENDBRANCH  14  18
ENDBRANCH  13  14
ENDBRANCH   9  13
ENDBRANCH   4   5
ENDBRANCH   1   4
BRANCH   1  20
HETATM   20  C   UNK N   1      27.499  18.629   4.700  0.00  0.00     0.110 C 
HETATM   21  C   UNK N   1      28.796  18.643   5.010  0.00  0.00     0.028 C 
BRANCH  21  22
HETATM   22  C   UNK N   1      29.621  17.480   5.431  0.00  0.00     0.031 A 
HETATM   23  C   UNK N   1      30.035  16.484   4.501  0.00  0.00     0.083 A 
HETATM   24  C   UNK N   1      30.749  15.363   4.960  0.00  0.00     0.074 A 
HETATM   25  C   UNK N   1      31.061  15.210   6.314  0.00  0.00     0.073 A 
HETATM   26  C   UNK N   1      30.676  16.194   7.216  0.00  0.00     0.074 A 
HETATM   27  C   UNK N   1      29.966  17.326   6.810  0.00  0.00     0.083 A 
BRANCH  23  28
HETATM   28  O   UNK N   1      29.729  16.602   3.184  0.00  0.00    -0.355 OA
HETATM   29  C   UNK N   1      29.136  15.599   2.449  0.00  0.00     0.210 C 
ENDBRANCH  23  28
BRANCH  25  30
HETATM   30  O   UNK N   1      31.720  14.122   6.777  0.00  0.00    -0.356 OA
HETATM   31  C   UNK N   1      32.623  14.169   7.816  0.00  0.00     0.210 C 
ENDBRANCH  25  30
BRANCH  27  32
HETATM   32  O   UNK N   1      29.641  18.217   7.791  0.00  0.00    -0.355 OA
HETATM   33  C   UNK N   1      28.560  18.167   8.639  0.00  0.00     0.210 C 
ENDBRANCH  27  32
ENDBRANCH  21  22
ENDBRANCH   1  20
TORSDOF 12
ENDMDL
MODEL 9
REMARK VINA RESULT:      -6.6      2.769      4.200
REMARK  12 active torsions:
REMARK  status: ('A' for Active; 'I' for Inactive)
REMARK    1  A    between atoms: O_2  and  C_3 
REMARK    2  A    between atoms: C_6  and  C_14 
REMARK    3  A    between atoms: C_8  and  O_9 
REMARK    4  A    between atoms: O_9  and  P_10 
REMARK    5  A    between atoms: P_10  and  O_12 
REMARK    6  A    between atoms: P_10  and  O_13 
REMARK    7  A    between atoms: C_14  and  S_15 
REMARK    8  A    between atoms: S_15  and  C_18 
REMARK    9  A    between atoms: C_19  and  C_20 
REMARK   10  A    between atoms: C_21  and  O_30 
REMARK   11  A    between atoms: C_23  and  O_28 
REMARK   12  A    between atoms: C_25  and  O_26 
ROOT
HETATM    1  S   UNK N   1      20.295  16.262   7.935  0.00  0.00     0.169 S 
HETATM    2  O   UNK N   1      20.666  17.739   7.732  0.00  0.00    -0.223 OA
HETATM    3  O   UNK N   1      19.135  16.134   6.937  0.00  0.00    -0.223 OA
ENDROOT
BRANCH   1   4
HETATM    4  C   UNK N   1      21.454  16.453   6.484  0.00  0.00     0.183 C 
BRANCH   4   5
HETATM    5  C   UNK N   1      21.070  17.318   5.307  0.00  0.00    -0.041 A 
HETATM    6  C   UNK N   1      21.454  18.653   5.300  0.00  0.00     0.011 A 
HETATM    7  C   UNK N   1      21.116  19.468   4.227  0.00  0.00     0.040 A 
HETATM    8  C   UNK N   1      20.377  18.966   3.140  0.00  0.00     0.102 A 
HETATM    9  C   UNK N   1      19.969  17.602   3.152  0.00  0.00     0.114 A 
HETATM   10  C   UNK N   1      20.326  16.799   4.242  0.00  0.00     0.048 A 
BRANCH   8  11
HETATM   11  O   UNK N   1      20.065  19.780   2.105  0.00  0.00    -0.353 OA
HETATM   12  C   UNK N   1      20.950  20.680   1.551  0.00  0.00     0.210 C 
ENDBRANCH   8  11
BRANCH   9  13
HETATM   13  O   UNK N   1      19.234  17.011   2.168  0.00  0.00    -0.252 OA
BRANCH  13  14
HETATM   14  P   UNK N   1      19.734  16.613   0.569  0.00  0.00     0.396 P 
HETATM   15  O   UNK N   1      20.879  15.574   0.706  0.00  0.00    -0.631 OA
BRANCH  14  16
HETATM   16  O   UNK N   1      18.456  15.845  -0.320  0.00  0.00    -0.307 OA
HETATM   17  H   UNK N   1      18.284  15.156  -0.982  0.00  0.00     0.222 HD
ENDBRANCH  14  16
BRANCH  14  18
HETATM   18  O   UNK N   1      20.384  17.986  -0.273  0.00  0.00    -0.307 OA
HETATM   19  H   UNK N   1      20.343  18.900  -0.597  0.00  0.00     0.222 HD
ENDBRANCH  14  18
ENDBRANCH  13  14
ENDBRANCH   9  13
ENDBRANCH   4   5
ENDBRANCH   1   4
BRANCH   1  20
HETATM   20  C   UNK N   1      21.406  14.923   7.475  0.00  0.00     0.110 C 
HETATM   21  C   UNK N   1      21.192  13.709   7.983  0.00  0.00     0.028 C 
BRANCH  21  22
HETATM   22  C   UNK N   1      21.879  12.450   7.594  0.00  0.00     0.031 A 
HETATM   23  C   UNK N   1      23.133  12.079   8.158  0.00  0.00     0.083 A 
HETATM   24  C   UNK N   1      23.781  10.918   7.703  0.00  0.00     0.074 A 
HETATM   25  C   UNK N   1      23.214  10.118   6.706  0.00  0.00     0.073 A 
HETATM   26  C   UNK N   1      21.981  10.469   6.173  0.00  0.00     0.074 A 
HETATM   27  C   UNK N   1      21.296  11.612   6.592  0.00  0.00     0.083 A 
BRANCH  23  28
HETATM   28  O   UNK N   1      23.712  12.848   9.115  0.00  0.00    -0.355 OA
HETATM   29  C   UNK N   1      24.492  12.339  10.131  0.00  0.00     0.210 C 
ENDBRANCH  23  28
BRANCH  25  30
HETATM   30  O   UNK N   1      23.840   9.014   6.233  0.00  0.00    -0.356 OA
HETATM   31  C   UNK N   1      24.429   8.071   7.046  0.00  0.00     0.210 C 
ENDBRANCH  25  30
BRANCH  27  32
HETATM   32  O   UNK N   1      20.096  11.851   5.989  0.00  0.00    -0.355 OA
HETATM   33  C   UNK N   1      19.694  11.442   4.739  0.00  0.00     0.210 C 
ENDBRANCH  27  32
ENDBRANCH  21  22
ENDBRANCH   1  20
TORSDOF 12
ENDMDL
