MODEL 1
REMARK VINA RESULT:      -8.5      0.000      0.000
REMARK  17 active torsions:
REMARK  status: ('A' for Active; 'I' for Inactive)
REMARK    1  A    between atoms: C_10  and  O_53 
REMARK    2  A    between atoms: C_12  and  O_42 
REMARK    3  A    between atoms: C_13  and  O_41 
REMARK    4  A    between atoms: C_18  and  O_19 
REMARK    5  A    between atoms: O_19  and  C_20 
REMARK    6  A    between atoms: C_20  and  C_22 
REMARK    7  A    between atoms: C_22  and  C_23 
REMARK    8  A    between atoms: C_22  and  O_40 
REMARK    9  A    between atoms: C_23  and  C_24 
REMARK   10  A    between atoms: C_23  and  N_32 
REMARK       I    between atoms: N_32  and  C_33 
REMARK   11  A    between atoms: C_33  and  O_35 
REMARK   12  A    between atoms: O_35  and  C_36 
REMARK   13  A    between atoms: O_42  and  C_43 
REMARK   14  A    between atoms: C_43  and  C_45 
REMARK   15  A    between atoms: O_53  and  C_54 
REMARK   16  A    between atoms: C_59  and  C_61 
REMARK   17  A    between atoms: C_61  and  N_62 
ROOT
HETATM    1  C   UNK N   1      31.672  17.364   5.134  0.00  0.00     0.046 C 
HETATM    2  C   UNK N   1      32.417  16.851   6.314  0.00  0.00    -0.049 C 
HETATM    3  C   UNK N   1      32.833  15.564   6.388  0.00  0.00    -0.033 C 
HETATM    4  C   UNK N   1      32.765  14.310   5.476  0.00  0.00     0.184 C 
HETATM    5  C   UNK N   1      34.107  13.469   5.415  0.00  0.00     0.166 C 
HETATM    6  C   UNK N   1      35.123  12.881   6.633  0.00  0.00    -0.006 C 
HETATM    7  C   UNK N   1      36.290  12.376   5.778  0.00  0.00     0.015 C 
HETATM    8  C   UNK N   1      37.189  11.383   6.492  0.00  0.00     0.036 C 
HETATM    9  C   UNK N   1      37.807  11.921   7.776  0.00  0.00     0.159 C 
HETATM   10  C   UNK N   1      37.003  12.910   8.592  0.00  0.00     0.124 C 
HETATM   11  C   UNK N   1      35.911  13.746   7.906  0.00  0.00     0.069 C 
HETATM   12  C   UNK N   1      35.419  15.023   8.952  0.00  0.00     0.175 C 
HETATM   13  C   UNK N   1      34.133  15.967   8.640  0.00  0.00     0.098 C 
HETATM   14  C   UNK N   1      33.728  15.269   7.429  0.00  0.00     0.012 C 
HETATM   15  C   UNK N   1      33.076  13.956   8.055  0.00  0.00     0.023 C 
HETATM   16  C   UNK N   1      34.977  15.679   6.450  0.00  0.00     0.023 C 
HETATM   17  C   UNK N   1      34.151  17.470   8.220  0.00  0.00     0.078 C 
HETATM   18  C   UNK N   1      32.796  17.807   7.486  0.00  0.00     0.164 C 
HETATM   19  C   UNK N   1      38.299  13.697   8.530  0.00  0.00     0.210 C 
HETATM   20  O   UNK N   1      38.871  12.813   7.593  0.00  0.00    -0.380 OA
HETATM   21  C   UNK N   1      34.420  11.652   7.224  0.00  0.00     0.018 C 
HETATM   22  O   UNK N   1      33.808  12.576   4.393  0.00  0.00    -0.350 OA
HETATM   23  C   UNK N   1      32.843  13.261   3.585  0.00  0.00     0.289 C 
HETATM   24  O   UNK N   1      32.399  14.478   4.165  0.00  0.00    -0.347 OA
ENDROOT
BRANCH  18  25
HETATM   25  O   UNK N   1      31.771  17.947   8.413  0.00  0.00    -0.309 OA
BRANCH  25  26
HETATM   26  C   UNK N   1      30.564  17.303   8.412  0.00  0.00     0.290 C 
HETATM   27  O   UNK N   1      30.468  16.110   8.170  0.00  0.00    -0.262 OA
BRANCH  26  28
HETATM   28  C   UNK N   1      29.321  18.087   8.604  0.00  0.00     0.246 C 
BRANCH  28  29
HETATM   29  C   UNK N   1      28.437  17.997   7.348  0.00  0.00     0.178 C 
BRANCH  29  30
HETATM   30  C   UNK N   1      27.778  19.294   6.934  0.00  0.00     0.074 A 
HETATM   31  C   UNK N   1      27.986  19.799   5.643  0.00  0.00     0.141 A 
HETATM   32  C   UNK N   1      27.360  20.986   5.261  0.00  0.00     0.046 A 
HETATM   33  F   UNK N   1      28.799  19.154   4.771  0.00  0.00    -0.204 F 
HETATM   34  C   UNK N   1      26.535  21.659   6.161  0.00  0.00     0.020 A 
HETATM   35  C   UNK N   1      26.363  21.142   7.444  0.00  0.00     0.088 A 
HETATM   36  N   UNK N   1      26.982  19.985   7.800  0.00  0.00    -0.365 N 
ATOM     37  HN  UNK N   1      26.848  19.622   8.744  1.00  0.00     0.165 HD
ENDBRANCH  29  30
BRANCH  29  38
HETATM   38  N   UNK N   1      27.438  16.964   7.508  0.00  0.00    -0.324 N 
HETATM   39  C   UNK N   1      27.211  16.057   6.534  0.00  0.00     0.362 C 
HETATM   40  O   UNK N   1      26.414  15.158   6.715  0.00  0.00    -0.238 OA
HETATM   41  H   UNK N   1      26.913  16.921   8.341  0.00  0.00     0.165 HD
BRANCH  39  42
HETATM   42  O   UNK N   1      27.946  16.140   5.385  0.00  0.00    -0.294 OA
BRANCH  42  43
HETATM   43  C   UNK N   1      27.502  16.057   4.080  0.00  0.00     0.061 C 
HETATM   44  C   UNK N   1      28.667  16.444   3.196  0.00  0.00     0.046 C 
HETATM   45  C   UNK N   1      26.367  17.035   3.835  0.00  0.00     0.046 C 
HETATM   46  C   UNK N   1      27.075  14.649   3.696  0.00  0.00     0.046 C 
ENDBRANCH  42  43
ENDBRANCH  39  42
ENDBRANCH  29  38
ENDBRANCH  28  29
BRANCH  28  47
HETATM   47  O   UNK N   1      29.636  19.416   8.892  0.00  0.00    -0.383 OA
HETATM   48  H   UNK N   1      28.993  20.120   8.715  0.00  0.00     0.210 HD
ENDBRANCH  28  47
ENDBRANCH  26  28
ENDBRANCH  25  26
ENDBRANCH  18  25
BRANCH  13  49
HETATM   49  O   UNK N   1      33.211  15.856   9.699  0.00  0.00    -0.386 OA
HETATM   50  H   UNK N   1      33.012  16.236  10.570  0.00  0.00     0.210 HD
ENDBRANCH  13  49
BRANCH  12  51
HETATM   51  O   UNK N   1      36.219  15.369  10.059  0.00  0.00    -0.308 OA
BRANCH  51  52
HETATM   52  C   UNK N   1      35.760  15.654  11.332  0.00  0.00     0.293 C 
HETATM   53  O   UNK N   1      35.325  16.757  11.612  0.00  0.00    -0.259 OA
BRANCH  52  54
HETATM   54  C   UNK N   1      35.698  14.628  12.389  0.00  0.00     0.039 A 
HETATM   55  C   UNK N   1      36.439  14.830  13.568  0.00  0.00     0.017 A 
HETATM   56  C   UNK N   1      36.380  13.909  14.613  0.00  0.00     0.001 A 
HETATM   57  C   UNK N   1      35.597  12.761  14.479  0.00  0.00     0.000 A 
HETATM   58  C   UNK N   1      34.872  12.543  13.304  0.00  0.00     0.001 A 
HETATM   59  C   UNK N   1      34.912  13.481  12.266  0.00  0.00     0.017 A 
ENDBRANCH  52  54
ENDBRANCH  51  52
ENDBRANCH  12  51
BRANCH  10  60
HETATM   60  O   UNK N   1      36.585  12.356   9.795  0.00  0.00    -0.305 OA
BRANCH  60  61
HETATM   61  C   UNK N   1      36.799  11.092  10.239  0.00  0.00     0.255 C 
HETATM   62  O   UNK N   1      36.059  10.174   9.925  0.00  0.00    -0.266 OA
HETATM   63  C   UNK N   1      37.958  10.820  11.131  0.00  0.00     0.126 C 
ENDBRANCH  60  61
ENDBRANCH  10  60
BRANCH  23  64
HETATM   64  C   UNK N   1      33.413  13.562   2.196  0.00  0.00     0.331 C 
BRANCH  64  65
HETATM   65  N   UNK N   1      32.920  12.674   1.137  0.00  0.00     0.084 N 
HETATM   66  C   UNK N   1      33.836  11.565   0.930  0.00  0.00     0.309 C 
HETATM   67  C   UNK N   1      31.606  12.144   1.477  0.00  0.00     0.309 C 
ENDBRANCH  64  65
ENDBRANCH  23  64
TORSDOF 17
ENDMDL
MODEL 2
REMARK VINA RESULT:      -8.5      2.896      7.247
REMARK  17 active torsions:
REMARK  status: ('A' for Active; 'I' for Inactive)
REMARK    1  A    between atoms: C_10  and  O_53 
REMARK    2  A    between atoms: C_12  and  O_42 
REMARK    3  A    between atoms: C_13  and  O_41 
REMARK    4  A    between atoms: C_18  and  O_19 
REMARK    5  A    between atoms: O_19  and  C_20 
REMARK    6  A    between atoms: C_20  and  C_22 
REMARK    7  A    between atoms: C_22  and  C_23 
REMARK    8  A    between atoms: C_22  and  O_40 
REMARK    9  A    between atoms: C_23  and  C_24 
REMARK   10  A    between atoms: C_23  and  N_32 
REMARK       I    between atoms: N_32  and  C_33 
REMARK   11  A    between atoms: C_33  and  O_35 
REMARK   12  A    between atoms: O_35  and  C_36 
REMARK   13  A    between atoms: O_42  and  C_43 
REMARK   14  A    between atoms: C_43  and  C_45 
REMARK   15  A    between atoms: O_53  and  C_54 
REMARK   16  A    between atoms: C_59  and  C_61 
REMARK   17  A    between atoms: C_61  and  N_62 
ROOT
HETATM    1  C   UNK N   1      30.253  17.787   9.101  0.00  0.00     0.046 C 
HETATM    2  C   UNK N   1      30.528  17.334   7.712  0.00  0.00    -0.049 C 
HETATM    3  C   UNK N   1      31.755  16.903   7.334  0.00  0.00    -0.033 C 
HETATM    4  C   UNK N   1      33.133  16.702   8.021  0.00  0.00     0.184 C 
HETATM    5  C   UNK N   1      33.872  15.356   7.629  0.00  0.00     0.166 C 
HETATM    6  C   UNK N   1      34.195  14.647   6.127  0.00  0.00    -0.006 C 
HETATM    7  C   UNK N   1      34.736  13.290   6.590  0.00  0.00     0.015 C 
HETATM    8  C   UNK N   1      35.541  12.557   5.533  0.00  0.00     0.036 C 
HETATM    9  C   UNK N   1      34.774  12.290   4.245  0.00  0.00     0.159 C 
HETATM   10  C   UNK N   1      33.737  13.303   3.812  0.00  0.00     0.124 C 
HETATM   11  C   UNK N   1      33.095  14.225   4.861  0.00  0.00     0.069 C 
HETATM   12  C   UNK N   1      31.716  15.002   4.183  0.00  0.00     0.175 C 
HETATM   13  C   UNK N   1      30.927  16.206   4.936  0.00  0.00     0.098 C 
HETATM   14  C   UNK N   1      31.825  16.279   6.079  0.00  0.00     0.012 C 
HETATM   15  C   UNK N   1      33.075  17.016   5.419  0.00  0.00     0.023 C 
HETATM   16  C   UNK N   1      31.475  14.844   6.790  0.00  0.00     0.023 C 
HETATM   17  C   UNK N   1      29.506  16.139   5.578  0.00  0.00     0.078 C 
HETATM   18  C   UNK N   1      29.383  17.286   6.655  0.00  0.00     0.164 C 
HETATM   19  C   UNK N   1      32.875  12.060   3.695  0.00  0.00     0.210 C 
HETATM   20  O   UNK N   1      33.843  11.246   4.315  0.00  0.00    -0.380 OA
HETATM   21  C   UNK N   1      35.372  15.428   5.526  0.00  0.00     0.018 C 
HETATM   22  O   UNK N   1      34.927  15.365   8.533  0.00  0.00    -0.350 OA
HETATM   23  C   UNK N   1      34.443  16.128   9.645  0.00  0.00     0.289 C 
HETATM   24  O   UNK N   1      33.190  16.743   9.391  0.00  0.00    -0.347 OA
ENDROOT
BRANCH  18  25
HETATM   25  O   UNK N   1      29.182  18.510   6.030  0.00  0.00    -0.309 OA
BRANCH  25  26
HETATM   26  C   UNK N   1      27.984  19.099   5.734  0.00  0.00     0.290 C 
HETATM   27  O   UNK N   1      27.287  19.615   6.593  0.00  0.00    -0.262 OA
BRANCH  26  28
HETATM   28  C   UNK N   1      27.456  19.020   4.350  0.00  0.00     0.246 C 
BRANCH  28  29
HETATM   29  C   UNK N   1      26.030  18.441   4.359  0.00  0.00     0.178 C 
BRANCH  29  30
HETATM   30  C   UNK N   1      25.928  16.982   3.979  0.00  0.00     0.074 A 
HETATM   31  C   UNK N   1      25.925  16.001   4.980  0.00  0.00     0.141 A 
HETATM   32  C   UNK N   1      25.812  14.656   4.625  0.00  0.00     0.046 A 
HETATM   33  F   UNK N   1      26.045  16.346   6.286  0.00  0.00    -0.204 F 
HETATM   34  C   UNK N   1      25.704  14.298   3.281  0.00  0.00     0.020 A 
HETATM   35  C   UNK N   1      25.729  15.294   2.307  0.00  0.00     0.088 A 
HETATM   36  N   UNK N   1      25.842  16.600   2.672  0.00  0.00    -0.365 N 
ATOM     37  HN  UNK N   1      25.862  17.317   1.946  1.00  0.00     0.165 HD
ENDBRANCH  29  30
BRANCH  29  38
HETATM   38  N   UNK N   1      25.161  19.233   3.515  0.00  0.00    -0.324 N 
HETATM   39  C   UNK N   1      23.841  19.336   3.778  0.00  0.00     0.362 C 
HETATM   40  O   UNK N   1      23.141  20.059   3.096  0.00  0.00    -0.238 OA
HETATM   41  H   UNK N   1      25.538  19.704   2.737  0.00  0.00     0.165 HD
BRANCH  39  42
HETATM   42  O   UNK N   1      23.340  18.670   4.860  0.00  0.00    -0.294 OA
BRANCH  42  43
HETATM   43  C   UNK N   1      22.374  17.683   4.882  0.00  0.00     0.061 C 
HETATM   44  C   UNK N   1      21.043  18.376   5.075  0.00  0.00     0.046 C 
HETATM   45  C   UNK N   1      22.597  16.737   6.048  0.00  0.00     0.046 C 
HETATM   46  C   UNK N   1      22.307  16.903   3.578  0.00  0.00     0.046 C 
ENDBRANCH  42  43
ENDBRANCH  39  42
ENDBRANCH  29  38
ENDBRANCH  28  29
BRANCH  28  47
HETATM   47  O   UNK N   1      28.302  18.236   3.563  0.00  0.00    -0.383 OA
HETATM   48  H   UNK N   1      28.204  17.271   3.553  0.00  0.00     0.210 HD
ENDBRANCH  28  47
ENDBRANCH  26  28
ENDBRANCH  25  26
ENDBRANCH  18  25
BRANCH  13  49
HETATM   49  O   UNK N   1      30.947  17.353   4.120  0.00  0.00    -0.386 OA
HETATM   50  H   UNK N   1      30.576  18.248   4.066  0.00  0.00     0.210 HD
ENDBRANCH  13  49
BRANCH  12  51
HETATM   51  O   UNK N   1      31.152  14.509   2.989  0.00  0.00    -0.308 OA
BRANCH  51  52
HETATM   52  C   UNK N   1      29.802  14.442   2.698  0.00  0.00     0.293 C 
HETATM   53  O   UNK N   1      29.201  15.413   2.271  0.00  0.00    -0.259 OA
BRANCH  52  54
HETATM   54  C   UNK N   1      29.038  13.187   2.813  0.00  0.00     0.039 A 
HETATM   55  C   UNK N   1      28.886  12.603   4.084  0.00  0.00     0.017 A 
HETATM   56  C   UNK N   1      28.137  11.439   4.249  0.00  0.00     0.001 A 
HETATM   57  C   UNK N   1      27.553  10.830   3.138  0.00  0.00     0.000 A 
HETATM   58  C   UNK N   1      27.714  11.392   1.867  0.00  0.00     0.001 A 
HETATM   59  C   UNK N   1      28.445  12.575   1.707  0.00  0.00     0.017 A 
ENDBRANCH  52  54
ENDBRANCH  51  52
ENDBRANCH  12  51
BRANCH  10  60
HETATM   60  O   UNK N   1      34.135  13.982   2.668  0.00  0.00    -0.305 OA
BRANCH  60  61
HETATM   61  C   UNK N   1      34.531  13.444   1.486  0.00  0.00     0.255 C 
HETATM   62  O   UNK N   1      33.722  13.037   0.669  0.00  0.00    -0.266 OA
HETATM   63  C   UNK N   1      35.984  13.347   1.182  0.00  0.00     0.126 C 
ENDBRANCH  60  61
ENDBRANCH  10  60
BRANCH  23  64
HETATM   64  C   UNK N   1      34.311  15.248  10.891  0.00  0.00     0.331 C 
BRANCH  64  65
HETATM   65  N   UNK N   1      35.482  14.408  11.162  0.00  0.00     0.084 N 
HETATM   66  C   UNK N   1      36.060  14.734  12.456  0.00  0.00     0.309 C 
HETATM   67  C   UNK N   1      35.121  12.997  11.149  0.00  0.00     0.309 C 
ENDBRANCH  64  65
ENDBRANCH  23  64
TORSDOF 17
ENDMDL
MODEL 3
REMARK VINA RESULT:      -8.5      3.075      8.482
REMARK  17 active torsions:
REMARK  status: ('A' for Active; 'I' for Inactive)
REMARK    1  A    between atoms: C_10  and  O_53 
REMARK    2  A    between atoms: C_12  and  O_42 
REMARK    3  A    between atoms: C_13  and  O_41 
REMARK    4  A    between atoms: C_18  and  O_19 
REMARK    5  A    between atoms: O_19  and  C_20 
REMARK    6  A    between atoms: C_20  and  C_22 
REMARK    7  A    between atoms: C_22  and  C_23 
REMARK    8  A    between atoms: C_22  and  O_40 
REMARK    9  A    between atoms: C_23  and  C_24 
REMARK   10  A    between atoms: C_23  and  N_32 
REMARK       I    between atoms: N_32  and  C_33 
REMARK   11  A    between atoms: C_33  and  O_35 
REMARK   12  A    between atoms: O_35  and  C_36 
REMARK   13  A    between atoms: O_42  and  C_43 
REMARK   14  A    between atoms: C_43  and  C_45 
REMARK   15  A    between atoms: O_53  and  C_54 
REMARK   16  A    between atoms: C_59  and  C_61 
REMARK   17  A    between atoms: C_61  and  N_62 
ROOT
HETATM    1  C   UNK N   1      32.299  17.714   8.152  0.00  0.00     0.046 C 
HETATM    2  C   UNK N   1      32.999  16.545   7.556  0.00  0.00    -0.049 C 
HETATM    3  C   UNK N   1      32.330  15.591   6.866  0.00  0.00    -0.033 C 
HETATM    4  C   UNK N   1      30.856  15.337   6.447  0.00  0.00     0.184 C 
HETATM    5  C   UNK N   1      30.677  14.826   4.958  0.00  0.00     0.166 C 
HETATM    6  C   UNK N   1      31.437  13.586   4.095  0.00  0.00    -0.006 C 
HETATM    7  C   UNK N   1      30.882  13.864   2.694  0.00  0.00     0.015 C 
HETATM    8  C   UNK N   1      30.994  12.686   1.744  0.00  0.00     0.036 C 
HETATM    9  C   UNK N   1      32.419  12.187   1.543  0.00  0.00     0.159 C 
HETATM   10  C   UNK N   1      33.380  12.292   2.707  0.00  0.00     0.124 C 
HETATM   11  C   UNK N   1      33.124  13.332   3.808  0.00  0.00     0.069 C 
HETATM   12  C   UNK N   1      34.529  13.491   4.792  0.00  0.00     0.175 C 
HETATM   13  C   UNK N   1      34.539  14.339   6.178  0.00  0.00     0.098 C 
HETATM   14  C   UNK N   1      33.125  14.680   6.153  0.00  0.00     0.012 C 
HETATM   15  C   UNK N   1      32.483  13.285   6.581  0.00  0.00     0.023 C 
HETATM   16  C   UNK N   1      33.115  15.699   4.870  0.00  0.00     0.023 C 
HETATM   17  C   UNK N   1      35.250  15.704   6.438  0.00  0.00     0.078 C 
HETATM   18  C   UNK N   1      34.550  16.415   7.660  0.00  0.00     0.164 C 
HETATM   19  C   UNK N   1      34.260  12.937   1.652  0.00  0.00     0.210 C 
HETATM   20  O   UNK N   1      33.214  12.985   0.709  0.00  0.00    -0.380 OA
HETATM   21  C   UNK N   1      30.811  12.273   4.584  0.00  0.00     0.018 C 
HETATM   22  O   UNK N   1      29.296  14.897   4.823  0.00  0.00    -0.350 OA
HETATM   23  C   UNK N   1      28.896  15.921   5.743  0.00  0.00     0.289 C 
HETATM   24  O   UNK N   1      29.957  16.365   6.573  0.00  0.00    -0.347 OA
ENDROOT
BRANCH  18  25
HETATM   25  O   UNK N   1      34.957  15.830   8.852  0.00  0.00    -0.309 OA
BRANCH  25  26
HETATM   26  C   UNK N   1      35.070  16.438  10.073  0.00  0.00     0.290 C 
HETATM   27  O   UNK N   1      35.509  17.571  10.193  0.00  0.00    -0.262 OA
BRANCH  26  28
HETATM   28  C   UNK N   1      34.755  15.669  11.301  0.00  0.00     0.246 C 
BRANCH  28  29
HETATM   29  C   UNK N   1      35.800  14.561  11.516  0.00  0.00     0.178 C 
BRANCH  29  30
HETATM   30  C   UNK N   1      35.969  14.109  12.949  0.00  0.00     0.074 A 
HETATM   31  C   UNK N   1      35.351  12.929  13.384  0.00  0.00     0.141 A 
HETATM   32  C   UNK N   1      35.525  12.506  14.702  0.00  0.00     0.046 A 
HETATM   33  F   UNK N   1      34.575  12.204  12.540  0.00  0.00    -0.204 F 
HETATM   34  C   UNK N   1      36.309  13.258  15.576  0.00  0.00     0.020 A 
HETATM   35  C   UNK N   1      36.896  14.437  15.120  0.00  0.00     0.088 A 
HETATM   36  N   UNK N   1      36.714  14.835  13.832  0.00  0.00    -0.365 N 
ATOM     37  HN  UNK N   1      37.148  15.703  13.515  1.00  0.00     0.165 HD
ENDBRANCH  29  30
BRANCH  29  38
HETATM   38  N   UNK N   1      37.079  14.963  10.971  0.00  0.00    -0.324 N 
HETATM   39  C   UNK N   1      37.658  14.267   9.970  0.00  0.00     0.362 C 
HETATM   40  O   UNK N   1      38.700  14.659   9.482  0.00  0.00    -0.238 OA
HETATM   41  H   UNK N   1      37.534  15.757  11.336  0.00  0.00     0.165 HD
BRANCH  39  42
HETATM   42  O   UNK N   1      37.011  13.167   9.484  0.00  0.00    -0.294 OA
BRANCH  42  43
HETATM   43  C   UNK N   1      37.364  11.839   9.622  0.00  0.00     0.061 C 
HETATM   44  C   UNK N   1      36.107  11.026   9.400  0.00  0.00     0.046 C 
HETATM   45  C   UNK N   1      37.874  11.561  11.024  0.00  0.00     0.046 C 
HETATM   46  C   UNK N   1      38.391  11.396   8.592  0.00  0.00     0.046 C 
ENDBRANCH  42  43
ENDBRANCH  39  42
ENDBRANCH  29  38
ENDBRANCH  28  29
BRANCH  28  47
HETATM   47  O   UNK N   1      33.472  15.126  11.205  0.00  0.00    -0.383 OA
HETATM   48  H   UNK N   1      33.216  14.378  11.766  0.00  0.00     0.210 HD
ENDBRANCH  28  47
ENDBRANCH  26  28
ENDBRANCH  25  26
ENDBRANCH  18  25
BRANCH  13  49
HETATM   49  O   UNK N   1      34.903  13.487   7.238  0.00  0.00    -0.386 OA
HETATM   50  H   UNK N   1      35.652  12.961   7.561  0.00  0.00     0.210 HD
ENDBRANCH  13  49
BRANCH  12  51
HETATM   51  O   UNK N   1      35.763  12.985   4.336  0.00  0.00    -0.308 OA
BRANCH  51  52
HETATM   52  C   UNK N   1      36.670  12.263   5.090  0.00  0.00     0.293 C 
HETATM   53  O   UNK N   1      36.368  11.190   5.581  0.00  0.00    -0.259 OA
BRANCH  52  54
HETATM   54  C   UNK N   1      38.064  12.709   5.273  0.00  0.00     0.039 A 
HETATM   55  C   UNK N   1      39.103  11.870   4.831  0.00  0.00     0.017 A 
HETATM   56  C   UNK N   1      40.435  12.265   4.944  0.00  0.00     0.001 A 
HETATM   57  C   UNK N   1      40.743  13.495   5.525  0.00  0.00     0.000 A 
HETATM   58  C   UNK N   1      39.718  14.328   5.985  0.00  0.00     0.001 A 
HETATM   59  C   UNK N   1      38.380  13.941   5.848  0.00  0.00     0.017 A 
ENDBRANCH  52  54
ENDBRANCH  51  52
ENDBRANCH  12  51
BRANCH  10  60
HETATM   60  O   UNK N   1      33.707  11.040   3.211  0.00  0.00    -0.305 OA
BRANCH  60  61
HETATM   61  C   UNK N   1      34.419  10.062   2.594  0.00  0.00     0.255 C 
HETATM   62  O   UNK N   1      35.621  10.168   2.416  0.00  0.00    -0.266 OA
HETATM   63  C   UNK N   1      33.718   8.838   2.123  0.00  0.00     0.126 C 
ENDBRANCH  60  61
ENDBRANCH  10  60
BRANCH  23  64
HETATM   64  C   UNK N   1      28.322  17.128   4.996  0.00  0.00     0.331 C 
BRANCH  64  65
HETATM   65  N   UNK N   1      27.285  17.856   5.735  0.00  0.00     0.084 N 
HETATM   66  C   UNK N   1      27.733  19.202   6.057  0.00  0.00     0.309 C 
HETATM   67  C   UNK N   1      26.057  17.941   4.956  0.00  0.00     0.309 C 
ENDBRANCH  64  65
ENDBRANCH  23  64
TORSDOF 17
ENDMDL
MODEL 4
REMARK VINA RESULT:      -8.4      4.539      8.096
REMARK  17 active torsions:
REMARK  status: ('A' for Active; 'I' for Inactive)
REMARK    1  A    between atoms: C_10  and  O_53 
REMARK    2  A    between atoms: C_12  and  O_42 
REMARK    3  A    between atoms: C_13  and  O_41 
REMARK    4  A    between atoms: C_18  and  O_19 
REMARK    5  A    between atoms: O_19  and  C_20 
REMARK    6  A    between atoms: C_20  and  C_22 
REMARK    7  A    between atoms: C_22  and  C_23 
REMARK    8  A    between atoms: C_22  and  O_40 
REMARK    9  A    between atoms: C_23  and  C_24 
REMARK   10  A    between atoms: C_23  and  N_32 
REMARK       I    between atoms: N_32  and  C_33 
REMARK   11  A    between atoms: C_33  and  O_35 
REMARK   12  A    between atoms: O_35  and  C_36 
REMARK   13  A    between atoms: O_42  and  C_43 
REMARK   14  A    between atoms: C_43  and  C_45 
REMARK   15  A    between atoms: O_53  and  C_54 
REMARK   16  A    between atoms: C_59  and  C_61 
REMARK   17  A    between atoms: C_61  and  N_62 
ROOT
HETATM    1  C   UNK N   1      26.004  11.427   1.245  0.00  0.00     0.046 C 
HETATM    2  C   UNK N   1      26.630  12.471   2.100  0.00  0.00    -0.049 C 
HETATM    3  C   UNK N   1      27.887  12.335   2.583  0.00  0.00    -0.033 C 
HETATM    4  C   UNK N   1      29.020  11.278   2.479  0.00  0.00     0.184 C 
HETATM    5  C   UNK N   1      30.467  11.885   2.266  0.00  0.00     0.166 C 
HETATM    6  C   UNK N   1      31.300  13.117   3.073  0.00  0.00    -0.006 C 
HETATM    7  C   UNK N   1      32.520  13.252   2.157  0.00  0.00     0.015 C 
HETATM    8  C   UNK N   1      33.702  13.950   2.805  0.00  0.00     0.036 C 
HETATM    9  C   UNK N   1      33.391  15.354   3.306  0.00  0.00     0.159 C 
HETATM   10  C   UNK N   1      31.996  15.635   3.818  0.00  0.00     0.124 C 
HETATM   11  C   UNK N   1      30.826  14.758   3.344  0.00  0.00     0.069 C 
HETATM   12  C   UNK N   1      29.334  15.503   3.773  0.00  0.00     0.175 C 
HETATM   13  C   UNK N   1      27.901  14.751   3.623  0.00  0.00     0.098 C 
HETATM   14  C   UNK N   1      28.447  13.483   3.166  0.00  0.00     0.012 C 
HETATM   15  C   UNK N   1      29.023  12.904   4.534  0.00  0.00     0.023 C 
HETATM   16  C   UNK N   1      28.999  13.942   1.693  0.00  0.00     0.023 C 
HETATM   17  C   UNK N   1      26.777  15.072   2.589  0.00  0.00     0.078 C 
HETATM   18  C   UNK N   1      25.867  13.794   2.418  0.00  0.00     0.164 C 
HETATM   19  C   UNK N   1      32.108  16.813   2.868  0.00  0.00     0.210 C 
HETATM   20  O   UNK N   1      33.310  16.335   2.308  0.00  0.00    -0.380 OA
HETATM   21  C   UNK N   1      31.786  12.512   4.398  0.00  0.00     0.018 C 
HETATM   22  O   UNK N   1      31.198  10.733   2.004  0.00  0.00    -0.350 OA
HETATM   23  C   UNK N   1      30.243   9.818   1.452  0.00  0.00     0.289 C 
HETATM   24  O   UNK N   1      28.910  10.298   1.525  0.00  0.00    -0.347 OA
ENDROOT
BRANCH  18  25
HETATM   25  O   UNK N   1      25.009  13.668   3.502  0.00  0.00    -0.309 OA
BRANCH  25  26
HETATM   26  C   UNK N   1      23.835  12.968   3.548  0.00  0.00     0.290 C 
HETATM   27  O   UNK N   1      23.074  12.919   2.595  0.00  0.00    -0.262 OA
BRANCH  26  28
HETATM   28  C   UNK N   1      23.412  12.337   4.821  0.00  0.00     0.246 C 
BRANCH  28  29
HETATM   29  C   UNK N   1      23.256  13.406   5.917  0.00  0.00     0.178 C 
BRANCH  29  30
HETATM   30  C   UNK N   1      23.649  12.960   7.307  0.00  0.00     0.074 A 
HETATM   31  C   UNK N   1      24.597  13.696   8.032  0.00  0.00     0.141 A 
HETATM   32  C   UNK N   1      24.942  13.292   9.322  0.00  0.00     0.046 A 
HETATM   33  F   UNK N   1      25.189  14.787   7.486  0.00  0.00    -0.204 F 
HETATM   34  C   UNK N   1      24.346  12.161   9.880  0.00  0.00     0.020 A 
HETATM   35  C   UNK N   1      23.421  11.439   9.128  0.00  0.00     0.088 A 
HETATM   36  N   UNK N   1      23.097  11.847   7.871  0.00  0.00    -0.365 N 
ATOM     37  HN  UNK N   1      22.421  11.305   7.333  1.00  0.00     0.165 HD
ENDBRANCH  29  30
BRANCH  29  38
HETATM   38  N   UNK N   1      21.904  13.921   5.927  0.00  0.00    -0.324 N 
HETATM   39  C   UNK N   1      21.666  15.250   5.934  0.00  0.00     0.362 C 
HETATM   40  O   UNK N   1      20.524  15.662   5.876  0.00  0.00    -0.238 OA
HETATM   41  H   UNK N   1      21.145  13.293   5.931  0.00  0.00     0.165 HD
BRANCH  39  42
HETATM   42  O   UNK N   1      22.734  16.102   5.935  0.00  0.00    -0.294 OA
BRANCH  42  43
HETATM   43  C   UNK N   1      23.145  16.955   4.930  0.00  0.00     0.061 C 
HETATM   44  C   UNK N   1      24.655  17.024   5.005  0.00  0.00     0.046 C 
HETATM   45  C   UNK N   1      22.589  18.350   5.147  0.00  0.00     0.046 C 
HETATM   46  C   UNK N   1      22.772  16.450   3.545  0.00  0.00     0.046 C 
ENDBRANCH  42  43
ENDBRANCH  39  42
ENDBRANCH  29  38
ENDBRANCH  28  29
BRANCH  28  47
HETATM   47  O   UNK N   1      24.344  11.370   5.204  0.00  0.00    -0.383 OA
HETATM   48  H   UNK N   1      24.086  10.436   5.253  0.00  0.00     0.210 HD
ENDBRANCH  28  47
ENDBRANCH  26  28
ENDBRANCH  25  26
ENDBRANCH  18  25
BRANCH  13  49
HETATM   49  O   UNK N   1      27.279  14.685   4.885  0.00  0.00    -0.386 OA
HETATM   50  H   UNK N   1      26.818  15.244   5.530  0.00  0.00     0.210 HD
ENDBRANCH  13  49
BRANCH  12  51
HETATM   51  O   UNK N   1      29.313  16.861   4.150  0.00  0.00    -0.308 OA
BRANCH  51  52
HETATM   52  C   UNK N   1      28.801  17.366   5.331  0.00  0.00     0.293 C 
HETATM   53  O   UNK N   1      29.003  16.807   6.395  0.00  0.00    -0.259 OA
BRANCH  52  54
HETATM   54  C   UNK N   1      28.057  18.638   5.381  0.00  0.00     0.039 A 
HETATM   55  C   UNK N   1      27.869  19.261   6.628  0.00  0.00     0.017 A 
HETATM   56  C   UNK N   1      27.209  20.486   6.721  0.00  0.00     0.001 A 
HETATM   57  C   UNK N   1      26.706  21.089   5.567  0.00  0.00     0.000 A 
HETATM   58  C   UNK N   1      26.872  20.467   4.325  0.00  0.00     0.001 A 
HETATM   59  C   UNK N   1      27.557  19.251   4.230  0.00  0.00     0.017 A 
ENDBRANCH  52  54
ENDBRANCH  51  52
ENDBRANCH  12  51
BRANCH  10  60
HETATM   60  O   UNK N   1      31.990  15.848   5.190  0.00  0.00    -0.305 OA
BRANCH  60  61
HETATM   61  C   UNK N   1      33.063  16.048   5.998  0.00  0.00     0.255 C 
HETATM   62  O   UNK N   1      33.602  15.122   6.581  0.00  0.00    -0.266 OA
HETATM   63  C   UNK N   1      33.590  17.427   6.178  0.00  0.00     0.126 C 
ENDBRANCH  60  61
ENDBRANCH  10  60
BRANCH  23  64
HETATM   64  C   UNK N   1      30.571   9.508  -0.011  0.00  0.00     0.331 C 
BRANCH  64  65
HETATM   65  N   UNK N   1      29.650  10.116  -0.977  0.00  0.00     0.084 N 
HETATM   66  C   UNK N   1      30.186  11.373  -1.475  0.00  0.00     0.309 C 
HETATM   67  C   UNK N   1      29.417   9.223  -2.104  0.00  0.00     0.309 C 
ENDBRANCH  64  65
ENDBRANCH  23  64
TORSDOF 17
ENDMDL
MODEL 5
REMARK VINA RESULT:      -8.4      4.532      8.160
REMARK  17 active torsions:
REMARK  status: ('A' for Active; 'I' for Inactive)
REMARK    1  A    between atoms: C_10  and  O_53 
REMARK    2  A    between atoms: C_12  and  O_42 
REMARK    3  A    between atoms: C_13  and  O_41 
REMARK    4  A    between atoms: C_18  and  O_19 
REMARK    5  A    between atoms: O_19  and  C_20 
REMARK    6  A    between atoms: C_20  and  C_22 
REMARK    7  A    between atoms: C_22  and  C_23 
REMARK    8  A    between atoms: C_22  and  O_40 
REMARK    9  A    between atoms: C_23  and  C_24 
REMARK   10  A    between atoms: C_23  and  N_32 
REMARK       I    between atoms: N_32  and  C_33 
REMARK   11  A    between atoms: C_33  and  O_35 
REMARK   12  A    between atoms: O_35  and  C_36 
REMARK   13  A    between atoms: O_42  and  C_43 
REMARK   14  A    between atoms: C_43  and  C_45 
REMARK   15  A    between atoms: O_53  and  C_54 
REMARK   16  A    between atoms: C_59  and  C_61 
REMARK   17  A    between atoms: C_61  and  N_62 
ROOT
HETATM    1  C   UNK N   1      24.869  12.837   1.269  0.00  0.00     0.046 C 
HETATM    2  C   UNK N   1      25.697  13.702   2.151  0.00  0.00    -0.049 C 
HETATM    3  C   UNK N   1      26.887  13.283   2.643  0.00  0.00    -0.033 C 
HETATM    4  C   UNK N   1      27.761  12.005   2.528  0.00  0.00     0.184 C 
HETATM    5  C   UNK N   1      29.310  12.284   2.341  0.00  0.00     0.166 C 
HETATM    6  C   UNK N   1      30.381  13.287   3.182  0.00  0.00    -0.006 C 
HETATM    7  C   UNK N   1      31.614  13.167   2.280  0.00  0.00     0.015 C 
HETATM    8  C   UNK N   1      32.910  13.576   2.954  0.00  0.00     0.036 C 
HETATM    9  C   UNK N   1      32.909  15.005   3.482  0.00  0.00     0.159 C 
HETATM   10  C   UNK N   1      31.602  15.576   3.987  0.00  0.00     0.124 C 
HETATM   11  C   UNK N   1      30.275  14.987   3.483  0.00  0.00     0.069 C 
HETATM   12  C   UNK N   1      28.977  16.034   3.914  0.00  0.00     0.175 C 
HETATM   13  C   UNK N   1      27.416  15.618   3.734  0.00  0.00     0.098 C 
HETATM   14  C   UNK N   1      27.677  14.269   3.255  0.00  0.00     0.012 C 
HETATM   15  C   UNK N   1      28.093  13.553   4.617  0.00  0.00     0.023 C 
HETATM   16  C   UNK N   1      28.337  14.623   1.797  0.00  0.00     0.023 C 
HETATM   17  C   UNK N   1      26.405  16.197   2.697  0.00  0.00     0.078 C 
HETATM   18  C   UNK N   1      25.239  15.153   2.490  0.00  0.00     0.164 C 
HETATM   19  C   UNK N   1      31.984  16.718   3.063  0.00  0.00     0.210 C 
HETATM   20  O   UNK N   1      33.059  15.998   2.505  0.00  0.00    -0.380 OA
HETATM   21  C   UNK N   1      30.704  12.566   4.498  0.00  0.00     0.018 C 
HETATM   22  O   UNK N   1      29.773  11.004   2.062  0.00  0.00    -0.350 OA
HETATM   23  C   UNK N   1      28.648  10.332   1.481  0.00  0.00     0.289 C 
HETATM   24  O   UNK N   1      27.452  11.092   1.552  0.00  0.00    -0.347 OA
ENDROOT
BRANCH  18  25
HETATM   25  O   UNK N   1      24.360  15.199   3.563  0.00  0.00    -0.309 OA
BRANCH  25  26
HETATM   26  C   UNK N   1      23.002  15.361   3.511  0.00  0.00     0.290 C 
HETATM   27  O   UNK N   1      22.322  14.841   2.641  0.00  0.00    -0.262 OA
BRANCH  26  28
HETATM   28  C   UNK N   1      22.341  16.278   4.471  0.00  0.00     0.246 C 
BRANCH  28  29
HETATM   29  C   UNK N   1      22.332  15.657   5.879  0.00  0.00     0.178 C 
BRANCH  29  30
HETATM   30  C   UNK N   1      21.362  16.288   6.851  0.00  0.00     0.074 A 
HETATM   31  C   UNK N   1      20.647  15.478   7.744  0.00  0.00     0.141 A 
HETATM   32  C   UNK N   1      19.766  16.067   8.652  0.00  0.00     0.046 A 
HETATM   33  F   UNK N   1      20.793  14.130   7.724  0.00  0.00    -0.204 F 
HETATM   34  C   UNK N   1      19.603  17.452   8.665  0.00  0.00     0.020 A 
HETATM   35  C   UNK N   1      20.313  18.229   7.752  0.00  0.00     0.088 A 
HETATM   36  N   UNK N   1      21.166  17.638   6.873  0.00  0.00    -0.365 N 
ATOM     37  HN  UNK N   1      21.676  18.221   6.208  1.00  0.00     0.165 HD
ENDBRANCH  29  30
BRANCH  29  38
HETATM   38  N   UNK N   1      23.667  15.662   6.438  0.00  0.00    -0.324 N 
HETATM   39  C   UNK N   1      24.172  14.564   7.040  0.00  0.00     0.362 C 
HETATM   40  O   UNK N   1      25.318  14.569   7.445  0.00  0.00    -0.238 OA
HETATM   41  H   UNK N   1      24.214  16.479   6.381  0.00  0.00     0.165 HD
BRANCH  39  42
HETATM   42  O   UNK N   1      23.393  13.445   7.113  0.00  0.00    -0.294 OA
BRANCH  42  43
HETATM   43  C   UNK N   1      23.631  12.202   6.562  0.00  0.00     0.061 C 
HETATM   44  C   UNK N   1      22.322  11.728   5.969  0.00  0.00     0.046 C 
HETATM   45  C   UNK N   1      24.062  11.213   7.628  0.00  0.00     0.046 C 
HETATM   46  C   UNK N   1      24.658  12.247   5.441  0.00  0.00     0.046 C 
ENDBRANCH  42  43
ENDBRANCH  39  42
ENDBRANCH  29  38
ENDBRANCH  28  29
BRANCH  28  47
HETATM   47  O   UNK N   1      21.041  16.554   4.045  0.00  0.00    -0.383 OA
HETATM   48  H   UNK N   1      20.593  17.364   4.336  0.00  0.00     0.210 HD
ENDBRANCH  28  47
ENDBRANCH  26  28
ENDBRANCH  25  26
ENDBRANCH  18  25
BRANCH  13  49
HETATM   49  O   UNK N   1      26.778  15.666   4.989  0.00  0.00    -0.386 OA
HETATM   50  H   UNK N   1      26.005  15.314   5.457  0.00  0.00     0.210 HD
ENDBRANCH  13  49
BRANCH  12  51
HETATM   51  O   UNK N   1      29.250  17.356   4.319  0.00  0.00    -0.308 OA
BRANCH  51  52
HETATM   52  C   UNK N   1      28.852  17.936   5.510  0.00  0.00     0.293 C 
HETATM   53  O   UNK N   1      29.284  17.542   6.578  0.00  0.00    -0.259 OA
BRANCH  52  54
HETATM   54  C   UNK N   1      27.953  19.104   5.548  0.00  0.00     0.039 A 
HETATM   55  C   UNK N   1      27.813  19.808   6.758  0.00  0.00     0.017 A 
HETATM   56  C   UNK N   1      27.007  20.944   6.833  0.00  0.00     0.001 A 
HETATM   57  C   UNK N   1      26.312  21.373   5.702  0.00  0.00     0.000 A 
HETATM   58  C   UNK N   1      26.430  20.669   4.499  0.00  0.00     0.001 A 
HETATM   59  C   UNK N   1      27.259  19.544   4.419  0.00  0.00     0.017 A 
ENDBRANCH  52  54
ENDBRANCH  51  52
ENDBRANCH  12  51
BRANCH  10  60
HETATM   60  O   UNK N   1      31.625  15.759   5.363  0.00  0.00    -0.305 OA
BRANCH  60  61
HETATM   61  C   UNK N   1      32.715  15.914   6.156  0.00  0.00     0.255 C 
HETATM   62  O   UNK N   1      33.206  14.970   6.753  0.00  0.00    -0.266 OA
HETATM   63  C   UNK N   1      33.323  17.263   6.304  0.00  0.00     0.126 C 
ENDBRANCH  60  61
ENDBRANCH  10  60
BRANCH  23  64
HETATM   64  C   UNK N   1      28.920   9.984   0.015  0.00  0.00     0.331 C 
BRANCH  64  65
HETATM   65  N   UNK N   1      30.229  10.428  -0.477  0.00  0.00     0.084 N 
HETATM   66  C   UNK N   1      30.918   9.341  -1.154  0.00  0.00     0.309 C 
HETATM   67  C   UNK N   1      30.082  11.544  -1.402  0.00  0.00     0.309 C 
ENDBRANCH  64  65
ENDBRANCH  23  64
TORSDOF 17
ENDMDL
MODEL 6
REMARK VINA RESULT:      -8.4      4.506      8.015
REMARK  17 active torsions:
REMARK  status: ('A' for Active; 'I' for Inactive)
REMARK    1  A    between atoms: C_10  and  O_53 
REMARK    2  A    between atoms: C_12  and  O_42 
REMARK    3  A    between atoms: C_13  and  O_41 
REMARK    4  A    between atoms: C_18  and  O_19 
REMARK    5  A    between atoms: O_19  and  C_20 
REMARK    6  A    between atoms: C_20  and  C_22 
REMARK    7  A    between atoms: C_22  and  C_23 
REMARK    8  A    between atoms: C_22  and  O_40 
REMARK    9  A    between atoms: C_23  and  C_24 
REMARK   10  A    between atoms: C_23  and  N_32 
REMARK       I    between atoms: N_32  and  C_33 
REMARK   11  A    between atoms: C_33  and  O_35 
REMARK   12  A    between atoms: O_35  and  C_36 
REMARK   13  A    between atoms: O_42  and  C_43 
REMARK   14  A    between atoms: C_43  and  C_45 
REMARK   15  A    between atoms: O_53  and  C_54 
REMARK   16  A    between atoms: C_59  and  C_61 
REMARK   17  A    between atoms: C_61  and  N_62 
ROOT
HETATM    1  C   UNK N   1      25.968  11.390   1.058  0.00  0.00     0.046 C 
HETATM    2  C   UNK N   1      26.541  12.443   1.937  0.00  0.00    -0.049 C 
HETATM    3  C   UNK N   1      27.775  12.321   2.483  0.00  0.00    -0.033 C 
HETATM    4  C   UNK N   1      28.921  11.275   2.440  0.00  0.00     0.184 C 
HETATM    5  C   UNK N   1      30.372  11.896   2.295  0.00  0.00     0.166 C 
HETATM    6  C   UNK N   1      31.152  13.139   3.137  0.00  0.00    -0.006 C 
HETATM    7  C   UNK N   1      32.414  13.281   2.281  0.00  0.00     0.015 C 
HETATM    8  C   UNK N   1      33.556  13.993   2.983  0.00  0.00     0.036 C 
HETATM    9  C   UNK N   1      33.208  15.397   3.462  0.00  0.00     0.159 C 
HETATM   10  C   UNK N   1      31.786  15.666   3.904  0.00  0.00     0.124 C 
HETATM   11  C   UNK N   1      30.649  14.776   3.377  0.00  0.00     0.069 C 
HETATM   12  C   UNK N   1      29.131  15.509   3.729  0.00  0.00     0.175 C 
HETATM   13  C   UNK N   1      27.714  14.742   3.511  0.00  0.00     0.098 C 
HETATM   14  C   UNK N   1      28.294  13.477   3.087  0.00  0.00     0.012 C 
HETATM   15  C   UNK N   1      28.808  12.910   4.485  0.00  0.00     0.023 C 
HETATM   16  C   UNK N   1      28.914  13.935   1.641  0.00  0.00     0.023 C 
HETATM   17  C   UNK N   1      26.640  15.047   2.422  0.00  0.00     0.078 C 
HETATM   18  C   UNK N   1      25.752  13.760   2.212  0.00  0.00     0.164 C 
HETATM   19  C   UNK N   1      31.934  16.841   2.955  0.00  0.00     0.210 C 
HETATM   20  O   UNK N   1      33.166  16.373   2.457  0.00  0.00    -0.380 OA
HETATM   21  C   UNK N   1      31.578  12.544   4.486  0.00  0.00     0.018 C 
HETATM   22  O   UNK N   1      31.125  10.749   2.075  0.00  0.00    -0.350 OA
HETATM   23  C   UNK N   1      30.207   9.823   1.480  0.00  0.00     0.289 C 
HETATM   24  O   UNK N   1      28.868  10.290   1.486  0.00  0.00    -0.347 OA
ENDROOT
BRANCH  18  25
HETATM   25  O   UNK N   1      24.843  13.630   3.253  0.00  0.00    -0.309 OA
BRANCH  25  26
HETATM   26  C   UNK N   1      23.507  13.927   3.225  0.00  0.00     0.290 C 
HETATM   27  O   UNK N   1      23.004  14.554   2.307  0.00  0.00    -0.262 OA
BRANCH  26  28
HETATM   28  C   UNK N   1      22.659  13.574   4.389  0.00  0.00     0.246 C 
BRANCH  28  29
HETATM   29  C   UNK N   1      23.059  14.416   5.613  0.00  0.00     0.178 C 
BRANCH  29  30
HETATM   30  C   UNK N   1      23.268  15.888   5.337  0.00  0.00     0.074 A 
HETATM   31  C   UNK N   1      22.316  16.819   5.773  0.00  0.00     0.141 A 
HETATM   32  C   UNK N   1      22.523  18.178   5.533  0.00  0.00     0.046 A 
HETATM   33  F   UNK N   1      21.192  16.411   6.411  0.00  0.00    -0.204 F 
HETATM   34  C   UNK N   1      23.671  18.599   4.863  0.00  0.00     0.020 A 
HETATM   35  C   UNK N   1      24.591  17.648   4.425  0.00  0.00     0.088 A 
HETATM   36  N   UNK N   1      24.372  16.328   4.667  0.00  0.00    -0.365 N 
ATOM     37  HN  UNK N   1      25.054  15.644   4.336  1.00  0.00     0.165 HD
ENDBRANCH  29  30
BRANCH  29  38
HETATM   38  N   UNK N   1      24.237  13.859   6.242  0.00  0.00    -0.324 N 
HETATM   39  C   UNK N   1      24.307  13.715   7.582  0.00  0.00     0.362 C 
HETATM   40  O   UNK N   1      25.278  13.184   8.085  0.00  0.00    -0.238 OA
HETATM   41  H   UNK N   1      25.000  13.581   5.684  0.00  0.00     0.165 HD
BRANCH  39  42
HETATM   42  O   UNK N   1      23.239  14.112   8.336  0.00  0.00    -0.294 OA
BRANCH  42  43
HETATM   43  C   UNK N   1      22.407  13.332   9.113  0.00  0.00     0.061 C 
HETATM   44  C   UNK N   1      21.945  12.183   8.243  0.00  0.00     0.046 C 
HETATM   45  C   UNK N   1      21.187  14.120   9.555  0.00  0.00     0.046 C 
HETATM   46  C   UNK N   1      23.118  12.743  10.322  0.00  0.00     0.046 C 
ENDBRANCH  42  43
ENDBRANCH  39  42
ENDBRANCH  29  38
ENDBRANCH  28  29
BRANCH  28  47
HETATM   47  O   UNK N   1      22.776  12.211   4.667  0.00  0.00    -0.383 OA
HETATM   48  H   UNK N   1      22.033  11.727   5.061  0.00  0.00     0.210 HD
ENDBRANCH  28  47
ENDBRANCH  26  28
ENDBRANCH  25  26
ENDBRANCH  18  25
BRANCH  13  49
HETATM   49  O   UNK N   1      27.032  14.674   4.741  0.00  0.00    -0.386 OA
HETATM   50  H   UNK N   1      27.198  14.605   5.695  0.00  0.00     0.210 HD
ENDBRANCH  13  49
BRANCH  12  51
HETATM   51  O   UNK N   1      29.078  16.868   4.098  0.00  0.00    -0.308 OA
BRANCH  51  52
HETATM   52  C   UNK N   1      28.609  17.363   5.300  0.00  0.00     0.293 C 
HETATM   53  O   UNK N   1      28.760  16.743   6.339  0.00  0.00    -0.259 OA
BRANCH  52  54
HETATM   54  C   UNK N   1      27.977  18.690   5.406  0.00  0.00     0.039 A 
HETATM   55  C   UNK N   1      27.771  19.240   6.685  0.00  0.00     0.017 A 
HETATM   56  C   UNK N   1      27.216  20.510   6.835  0.00  0.00     0.001 A 
HETATM   57  C   UNK N   1      26.835  21.234   5.705  0.00  0.00     0.000 A 
HETATM   58  C   UNK N   1      27.017  20.689   4.430  0.00  0.00     0.001 A 
HETATM   59  C   UNK N   1      27.599  19.425   4.280  0.00  0.00     0.017 A 
ENDBRANCH  52  54
ENDBRANCH  51  52
ENDBRANCH  12  51
BRANCH  10  60
HETATM   60  O   UNK N   1      31.711  15.885   5.273  0.00  0.00    -0.305 OA
BRANCH  60  61
HETATM   61  C   UNK N   1      32.743  16.041   6.141  0.00  0.00     0.255 C 
HETATM   62  O   UNK N   1      33.205  15.095   6.757  0.00  0.00    -0.266 OA
HETATM   63  C   UNK N   1      33.321  17.396   6.347  0.00  0.00     0.126 C 
ENDBRANCH  60  61
ENDBRANCH  10  60
BRANCH  23  64
HETATM   64  C   UNK N   1      30.610   9.510   0.037  0.00  0.00     0.331 C 
BRANCH  64  65
HETATM   65  N   UNK N   1      29.783  10.174  -0.977  0.00  0.00     0.084 N 
HETATM   66  C   UNK N   1      30.406  11.413  -1.415  0.00  0.00     0.309 C 
HETATM   67  C   UNK N   1      29.587   9.310  -2.132  0.00  0.00     0.309 C 
ENDBRANCH  64  65
ENDBRANCH  23  64
TORSDOF 17
ENDMDL
MODEL 7
REMARK VINA RESULT:      -8.4      4.496      8.422
REMARK  17 active torsions:
REMARK  status: ('A' for Active; 'I' for Inactive)
REMARK    1  A    between atoms: C_10  and  O_53 
REMARK    2  A    between atoms: C_12  and  O_42 
REMARK    3  A    between atoms: C_13  and  O_41 
REMARK    4  A    between atoms: C_18  and  O_19 
REMARK    5  A    between atoms: O_19  and  C_20 
REMARK    6  A    between atoms: C_20  and  C_22 
REMARK    7  A    between atoms: C_22  and  C_23 
REMARK    8  A    between atoms: C_22  and  O_40 
REMARK    9  A    between atoms: C_23  and  C_24 
REMARK   10  A    between atoms: C_23  and  N_32 
REMARK       I    between atoms: N_32  and  C_33 
REMARK   11  A    between atoms: C_33  and  O_35 
REMARK   12  A    between atoms: O_35  and  C_36 
REMARK   13  A    between atoms: O_42  and  C_43 
REMARK   14  A    between atoms: C_43  and  C_45 
REMARK   15  A    between atoms: O_53  and  C_54 
REMARK   16  A    between atoms: C_59  and  C_61 
REMARK   17  A    between atoms: C_61  and  N_62 
ROOT
HETATM    1  C   UNK N   1      25.380  12.489   1.520  0.00  0.00     0.046 C 
HETATM    2  C   UNK N   1      26.190  13.407   2.363  0.00  0.00    -0.049 C 
HETATM    3  C   UNK N   1      27.425  13.066   2.803  0.00  0.00    -0.033 C 
HETATM    4  C   UNK N   1      28.372  11.845   2.649  0.00  0.00     0.184 C 
HETATM    5  C   UNK N   1      29.890  12.220   2.393  0.00  0.00     0.166 C 
HETATM    6  C   UNK N   1      30.933  13.291   3.185  0.00  0.00    -0.006 C 
HETATM    7  C   UNK N   1      32.129  13.246   2.229  0.00  0.00     0.015 C 
HETATM    8  C   UNK N   1      33.426  13.738   2.844  0.00  0.00     0.036 C 
HETATM    9  C   UNK N   1      33.358  15.166   3.370  0.00  0.00     0.159 C 
HETATM   10  C   UNK N   1      32.042  15.655   3.932  0.00  0.00     0.124 C 
HETATM   11  C   UNK N   1      30.733  14.982   3.489  0.00  0.00     0.069 C 
HETATM   12  C   UNK N   1      29.393  15.947   3.977  0.00  0.00     0.175 C 
HETATM   13  C   UNK N   1      27.855  15.433   3.867  0.00  0.00     0.098 C 
HETATM   14  C   UNK N   1      28.178  14.102   3.378  0.00  0.00     0.012 C 
HETATM   15  C   UNK N   1      28.698  13.418   4.720  0.00  0.00     0.023 C 
HETATM   16  C   UNK N   1      28.749  14.491   1.892  0.00  0.00     0.023 C 
HETATM   17  C   UNK N   1      26.763  15.943   2.875  0.00  0.00     0.078 C 
HETATM   18  C   UNK N   1      25.658  14.828   2.721  0.00  0.00     0.164 C 
HETATM   19  C   UNK N   1      32.310  16.815   2.992  0.00  0.00     0.210 C 
HETATM   20  O   UNK N   1      33.402  16.163   2.386  0.00  0.00    -0.380 OA
HETATM   21  C   UNK N   1      31.359  12.596   4.486  0.00  0.00     0.018 C 
HETATM   22  O   UNK N   1      30.420  10.970   2.095  0.00  0.00    -0.350 OA
HETATM   23  C   UNK N   1      29.315  10.227   1.565  0.00  0.00     0.289 C 
HETATM   24  O   UNK N   1      28.078  10.910   1.689  0.00  0.00    -0.347 OA
ENDROOT
BRANCH  18  25
HETATM   25  O   UNK N   1      24.826  14.822   3.833  0.00  0.00    -0.309 OA
BRANCH  25  26
HETATM   26  C   UNK N   1      23.500  15.157   3.873  0.00  0.00     0.290 C 
HETATM   27  O   UNK N   1      23.127  16.320   3.876  0.00  0.00    -0.262 OA
BRANCH  26  28
HETATM   28  C   UNK N   1      22.483  14.089   4.026  0.00  0.00     0.246 C 
BRANCH  28  29
HETATM   29  C   UNK N   1      22.850  13.172   5.205  0.00  0.00     0.178 C 
BRANCH  29  30
HETATM   30  C   UNK N   1      23.579  11.902   4.827  0.00  0.00     0.074 A 
HETATM   31  C   UNK N   1      24.914  11.725   5.214  0.00  0.00     0.141 A 
HETATM   32  C   UNK N   1      25.577  10.544   4.878  0.00  0.00     0.046 A 
HETATM   33  F   UNK N   1      25.571  12.696   5.897  0.00  0.00    -0.204 F 
HETATM   34  C   UNK N   1      24.909   9.551   4.163  0.00  0.00     0.020 A 
HETATM   35  C   UNK N   1      23.587   9.763   3.776  0.00  0.00     0.088 A 
HETATM   36  N   UNK N   1      22.958  10.922   4.110  0.00  0.00    -0.365 N 
ATOM     37  HN  UNK N   1      21.990  11.063   3.816  1.00  0.00     0.165 HD
ENDBRANCH  29  30
BRANCH  29  38
HETATM   38  N   UNK N   1      21.670  12.852   5.979  0.00  0.00    -0.324 N 
HETATM   39  C   UNK N   1      21.666  12.977   7.324  0.00  0.00     0.362 C 
HETATM   40  O   UNK N   1      20.645  12.766   7.949  0.00  0.00    -0.238 OA
HETATM   41  H   UNK N   1      20.858  12.538   5.519  0.00  0.00     0.165 HD
BRANCH  39  42
HETATM   42  O   UNK N   1      22.805  13.409   7.941  0.00  0.00    -0.294 OA
BRANCH  42  43
HETATM   43  C   UNK N   1      23.562  12.752   8.891  0.00  0.00     0.061 C 
HETATM   44  C   UNK N   1      22.855  12.935  10.217  0.00  0.00     0.046 C 
HETATM   45  C   UNK N   1      24.946  13.365   8.995  0.00  0.00     0.046 C 
HETATM   46  C   UNK N   1      23.668  11.258   8.624  0.00  0.00     0.046 C 
ENDBRANCH  42  43
ENDBRANCH  39  42
ENDBRANCH  29  38
ENDBRANCH  28  29
BRANCH  28  47
HETATM   47  O   UNK N   1      22.383  13.356   2.842  0.00  0.00    -0.383 OA
HETATM   48  H   UNK N   1      23.183  13.034   2.398  0.00  0.00     0.210 HD
ENDBRANCH  28  47
ENDBRANCH  26  28
ENDBRANCH  25  26
ENDBRANCH  18  25
BRANCH  13  49
HETATM   49  O   UNK N   1      27.271  15.446   5.148  0.00  0.00    -0.386 OA
HETATM   50  H   UNK N   1      26.419  15.593   5.589  0.00  0.00     0.210 HD
ENDBRANCH  13  49
BRANCH  12  51
HETATM   51  O   UNK N   1      29.599  17.285   4.368  0.00  0.00    -0.308 OA
BRANCH  51  52
HETATM   52  C   UNK N   1      29.138  17.868   5.534  0.00  0.00     0.293 C 
HETATM   53  O   UNK N   1      29.533  17.496   6.624  0.00  0.00    -0.259 OA
BRANCH  52  54
HETATM   54  C   UNK N   1      28.210  19.014   5.520  0.00  0.00     0.039 A 
HETATM   55  C   UNK N   1      27.619  19.389   4.300  0.00  0.00     0.017 A 
HETATM   56  C   UNK N   1      26.704  20.439   4.244  0.00  0.00     0.001 A 
HETATM   57  C   UNK N   1      26.389  21.143   5.407  0.00  0.00     0.000 A 
HETATM   58  C   UNK N   1      26.985  20.790   6.622  0.00  0.00     0.001 A 
HETATM   59  C   UNK N   1      27.885  19.719   6.681  0.00  0.00     0.017 A 
ENDBRANCH  52  54
ENDBRANCH  51  52
ENDBRANCH  12  51
BRANCH  10  60
HETATM   60  O   UNK N   1      32.114  15.844   5.306  0.00  0.00    -0.305 OA
BRANCH  60  61
HETATM   61  C   UNK N   1      33.234  15.950   6.066  0.00  0.00     0.255 C 
HETATM   62  O   UNK N   1      33.751  14.970   6.575  0.00  0.00    -0.266 OA
HETATM   63  C   UNK N   1      33.840  17.291   6.286  0.00  0.00     0.126 C 
ENDBRANCH  60  61
ENDBRANCH  10  60
BRANCH  23  64
HETATM   64  C   UNK N   1      29.543   9.892   0.089  0.00  0.00     0.331 C 
BRANCH  64  65
HETATM   65  N   UNK N   1      30.738  10.513  -0.493  0.00  0.00     0.084 N 
HETATM   66  C   UNK N   1      31.569   9.514  -1.146  0.00  0.00     0.309 C 
HETATM   67  C   UNK N   1      30.370  11.531  -1.467  0.00  0.00     0.309 C 
ENDBRANCH  64  65
ENDBRANCH  23  64
TORSDOF 17
ENDMDL
MODEL 8
REMARK VINA RESULT:      -8.3      3.841      9.056
REMARK  17 active torsions:
REMARK  status: ('A' for Active; 'I' for Inactive)
REMARK    1  A    between atoms: C_10  and  O_53 
REMARK    2  A    between atoms: C_12  and  O_42 
REMARK    3  A    between atoms: C_13  and  O_41 
REMARK    4  A    between atoms: C_18  and  O_19 
REMARK    5  A    between atoms: O_19  and  C_20 
REMARK    6  A    between atoms: C_20  and  C_22 
REMARK    7  A    between atoms: C_22  and  C_23 
REMARK    8  A    between atoms: C_22  and  O_40 
REMARK    9  A    between atoms: C_23  and  C_24 
REMARK   10  A    between atoms: C_23  and  N_32 
REMARK       I    between atoms: N_32  and  C_33 
REMARK   11  A    between atoms: C_33  and  O_35 
REMARK   12  A    between atoms: O_35  and  C_36 
REMARK   13  A    between atoms: O_42  and  C_43 
REMARK   14  A    between atoms: C_43  and  C_45 
REMARK   15  A    between atoms: O_53  and  C_54 
REMARK   16  A    between atoms: C_59  and  C_61 
REMARK   17  A    between atoms: C_61  and  N_62 
ROOT
HETATM    1  C   UNK N   1      28.654  18.051   7.255  0.00  0.00     0.046 C 
HETATM    2  C   UNK N   1      28.582  17.219   6.025  0.00  0.00    -0.049 C 
HETATM    3  C   UNK N   1      29.697  16.741   5.423  0.00  0.00    -0.033 C 
HETATM    4  C   UNK N   1      31.226  16.800   5.686  0.00  0.00     0.184 C 
HETATM    5  C   UNK N   1      31.983  15.426   5.466  0.00  0.00     0.166 C 
HETATM    6  C   UNK N   1      31.956  14.319   4.187  0.00  0.00    -0.006 C 
HETATM    7  C   UNK N   1      32.766  13.178   4.812  0.00  0.00     0.015 C 
HETATM    8  C   UNK N   1      33.327  12.196   3.800  0.00  0.00     0.036 C 
HETATM    9  C   UNK N   1      32.267  11.535   2.928  0.00  0.00     0.159 C 
HETATM   10  C   UNK N   1      31.035  12.338   2.574  0.00  0.00     0.124 C 
HETATM   11  C   UNK N   1      30.606  13.503   3.479  0.00  0.00     0.069 C 
HETATM   12  C   UNK N   1      29.008  13.996   3.068  0.00  0.00     0.175 C 
HETATM   13  C   UNK N   1      28.321  15.340   3.672  0.00  0.00     0.098 C 
HETATM   14  C   UNK N   1      29.487  15.778   4.423  0.00  0.00     0.012 C 
HETATM   15  C   UNK N   1      30.402  16.332   3.242  0.00  0.00     0.023 C 
HETATM   16  C   UNK N   1      29.528  14.605   5.566  0.00  0.00     0.023 C 
HETATM   17  C   UNK N   1      27.156  15.414   4.708  0.00  0.00     0.078 C 
HETATM   18  C   UNK N   1      27.200  16.822   5.419  0.00  0.00     0.164 C 
HETATM   19  C   UNK N   1      30.333  11.085   3.065  0.00  0.00     0.210 C 
HETATM   20  O   UNK N   1      31.528  10.524   3.557  0.00  0.00    -0.380 OA
HETATM   21  C   UNK N   1      32.813  14.930   3.070  0.00  0.00     0.018 C 
HETATM   22  O   UNK N   1      33.241  15.738   5.969  0.00  0.00    -0.350 OA
HETATM   23  C   UNK N   1      32.998  16.777   6.926  0.00  0.00     0.289 C 
HETATM   24  O   UNK N   1      31.659  17.244   6.909  0.00  0.00    -0.347 OA
ENDROOT
BRANCH  18  25
HETATM   25  O   UNK N   1      26.685  17.800   4.579  0.00  0.00    -0.309 OA
BRANCH  25  26
HETATM   26  C   UNK N   1      25.453  18.389   4.657  0.00  0.00     0.290 C 
HETATM   27  O   UNK N   1      25.207  19.268   5.468  0.00  0.00    -0.262 OA
BRANCH  26  28
HETATM   28  C   UNK N   1      24.347  17.880   3.811  0.00  0.00     0.246 C 
BRANCH  28  29
HETATM   29  C   UNK N   1      23.279  17.200   4.686  0.00  0.00     0.178 C 
BRANCH  29  30
HETATM   30  C   UNK N   1      22.526  16.073   4.017  0.00  0.00     0.074 A 
HETATM   31  C   UNK N   1      22.825  14.744   4.345  0.00  0.00     0.141 A 
HETATM   32  C   UNK N   1      22.114  13.708   3.738  0.00  0.00     0.046 A 
HETATM   33  F   UNK N   1      23.808  14.456   5.234  0.00  0.00    -0.204 F 
HETATM   34  C   UNK N   1      21.113  14.001   2.812  0.00  0.00     0.020 A 
HETATM   35  C   UNK N   1      20.850  15.332   2.492  0.00  0.00     0.088 A 
HETATM   36  N   UNK N   1      21.556  16.329   3.092  0.00  0.00    -0.365 N 
ATOM     37  HN  UNK N   1      21.353  17.297   2.844  1.00  0.00     0.165 HD
ENDBRANCH  29  30
BRANCH  29  38
HETATM   38  N   UNK N   1      22.349  18.182   5.198  0.00  0.00    -0.324 N 
HETATM   39  C   UNK N   1      21.689  17.976   6.358  0.00  0.00     0.362 C 
HETATM   40  O   UNK N   1      20.961  18.842   6.803  0.00  0.00    -0.238 OA
HETATM   41  H   UNK N   1      22.193  19.013   4.692  0.00  0.00     0.165 HD
BRANCH  39  42
HETATM   42  O   UNK N   1      21.916  16.814   7.038  0.00  0.00    -0.294 OA
BRANCH  42  43
HETATM   43  C   UNK N   1      20.989  15.908   7.513  0.00  0.00     0.061 C 
HETATM   44  C   UNK N   1      21.743  14.636   7.832  0.00  0.00     0.046 C 
HETATM   45  C   UNK N   1      19.948  15.597   6.453  0.00  0.00     0.046 C 
HETATM   46  C   UNK N   1      20.312  16.379   8.791  0.00  0.00     0.046 C 
ENDBRANCH  42  43
ENDBRANCH  39  42
ENDBRANCH  29  38
ENDBRANCH  28  29
BRANCH  28  47
HETATM   47  O   UNK N   1      24.848  16.989   2.860  0.00  0.00    -0.383 OA
HETATM   48  H   UNK N   1      25.085  17.303   1.974  0.00  0.00     0.210 HD
ENDBRANCH  28  47
ENDBRANCH  26  28
ENDBRANCH  25  26
ENDBRANCH  18  25
BRANCH  13  49
HETATM   49  O   UNK N   1      27.970  16.196   2.610  0.00  0.00    -0.386 OA
HETATM   50  H   UNK N   1      28.171  16.362   1.676  0.00  0.00     0.210 HD
ENDBRANCH  13  49
BRANCH  12  51
HETATM   51  O   UNK N   1      28.196  13.154   2.283  0.00  0.00    -0.308 OA
BRANCH  51  52
HETATM   52  C   UNK N   1      26.950  12.669   2.637  0.00  0.00     0.293 C 
HETATM   53  O   UNK N   1      26.765  12.139   3.718  0.00  0.00    -0.259 OA
BRANCH  52  54
HETATM   54  C   UNK N   1      25.770  12.835   1.769  0.00  0.00     0.039 A 
HETATM   55  C   UNK N   1      25.190  11.689   1.193  0.00  0.00     0.017 A 
HETATM   56  C   UNK N   1      24.049  11.791   0.399  0.00  0.00     0.001 A 
HETATM   57  C   UNK N   1      23.489  13.045   0.151  0.00  0.00     0.000 A 
HETATM   58  C   UNK N   1      24.070  14.191   0.703  0.00  0.00     0.001 A 
HETATM   59  C   UNK N   1      25.201  14.085   1.521  0.00  0.00     0.017 A 
ENDBRANCH  52  54
ENDBRANCH  51  52
ENDBRANCH  12  51
BRANCH  10  60
HETATM   60  O   UNK N   1      31.009  12.663   1.225  0.00  0.00    -0.305 OA
BRANCH  60  61
HETATM   61  C   UNK N   1      30.980  11.809   0.170  0.00  0.00     0.255 C 
HETATM   62  O   UNK N   1      32.004  11.325  -0.284  0.00  0.00    -0.266 OA
HETATM   63  C   UNK N   1      29.673  11.458  -0.446  0.00  0.00     0.126 C 
ENDBRANCH  60  61
ENDBRANCH  10  60
BRANCH  23  64
HETATM   64  C   UNK N   1      33.330  16.298   8.343  0.00  0.00     0.331 C 
BRANCH  64  65
HETATM   65  N   UNK N   1      34.051  17.282   9.158  0.00  0.00     0.084 N 
HETATM   66  C   UNK N   1      35.102  16.638   9.928  0.00  0.00     0.309 C 
HETATM   67  C   UNK N   1      34.644  18.314   8.318  0.00  0.00     0.309 C 
ENDBRANCH  64  65
ENDBRANCH  23  64
TORSDOF 17
ENDMDL
MODEL 9
REMARK VINA RESULT:      -8.2      4.610     11.956
REMARK  17 active torsions:
REMARK  status: ('A' for Active; 'I' for Inactive)
REMARK    1  A    between atoms: C_10  and  O_53 
REMARK    2  A    between atoms: C_12  and  O_42 
REMARK    3  A    between atoms: C_13  and  O_41 
REMARK    4  A    between atoms: C_18  and  O_19 
REMARK    5  A    between atoms: O_19  and  C_20 
REMARK    6  A    between atoms: C_20  and  C_22 
REMARK    7  A    between atoms: C_22  and  C_23 
REMARK    8  A    between atoms: C_22  and  O_40 
REMARK    9  A    between atoms: C_23  and  C_24 
REMARK   10  A    between atoms: C_23  and  N_32 
REMARK       I    between atoms: N_32  and  C_33 
REMARK   11  A    between atoms: C_33  and  O_35 
REMARK   12  A    between atoms: O_35  and  C_36 
REMARK   13  A    between atoms: O_42  and  C_43 
REMARK   14  A    between atoms: C_43  and  C_45 
REMARK   15  A    between atoms: O_53  and  C_54 
REMARK   16  A    between atoms: C_59  and  C_61 
REMARK   17  A    between atoms: C_61  and  N_62 
ROOT
HETATM    1  C   UNK N   1      25.606  18.664   3.213  0.00  0.00     0.046 C 
HETATM    2  C   UNK N   1      25.445  17.254   3.657  0.00  0.00    -0.049 C 
HETATM    3  C   UNK N   1      24.362  16.850   4.364  0.00  0.00    -0.033 C 
HETATM    4  C   UNK N   1      23.063  17.510   4.900  0.00  0.00     0.184 C 
HETATM    5  C   UNK N   1      21.756  16.636   4.710  0.00  0.00     0.166 C 
HETATM    6  C   UNK N   1      21.423  15.017   5.071  0.00  0.00    -0.006 C 
HETATM    7  C   UNK N   1      20.050  14.878   4.406  0.00  0.00     0.015 C 
HETATM    8  C   UNK N   1      19.243  13.693   4.904  0.00  0.00     0.036 C 
HETATM    9  C   UNK N   1      19.939  12.351   4.722  0.00  0.00     0.159 C 
HETATM   10  C   UNK N   1      21.448  12.312   4.824  0.00  0.00     0.124 C 
HETATM   11  C   UNK N   1      22.257  13.592   4.558  0.00  0.00     0.069 C 
HETATM   12  C   UNK N   1      23.923  13.195   4.378  0.00  0.00     0.175 C 
HETATM   13  C   UNK N   1      25.092  14.323   4.305  0.00  0.00     0.098 C 
HETATM   14  C   UNK N   1      24.210  15.462   4.511  0.00  0.00     0.012 C 
HETATM   15  C   UNK N   1      23.926  15.330   6.073  0.00  0.00     0.023 C 
HETATM   16  C   UNK N   1      23.380  15.420   3.099  0.00  0.00     0.023 C 
HETATM   17  C   UNK N   1      25.935  14.721   3.053  0.00  0.00     0.078 C 
HETATM   18  C   UNK N   1      26.503  16.177   3.268  0.00  0.00     0.164 C 
HETATM   19  C   UNK N   1      21.311  11.567   3.510  0.00  0.00     0.210 C 
HETATM   20  O   UNK N   1      19.934  11.853   3.412  0.00  0.00    -0.380 OA
HETATM   21  C   UNK N   1      21.206  14.950   6.589  0.00  0.00     0.018 C 
HETATM   22  O   UNK N   1      20.775  17.551   5.075  0.00  0.00    -0.350 OA
HETATM   23  C   UNK N   1      21.353  18.831   4.791  0.00  0.00     0.289 C 
HETATM   24  O   UNK N   1      22.723  18.753   4.429  0.00  0.00    -0.347 OA
ENDROOT
BRANCH  18  25
HETATM   25  O   UNK N   1      27.581  16.147   4.142  0.00  0.00    -0.309 OA
BRANCH  25  26
HETATM   26  C   UNK N   1      28.740  15.433   3.999  0.00  0.00     0.290 C 
HETATM   27  O   UNK N   1      28.782  14.227   4.178  0.00  0.00    -0.262 OA
BRANCH  26  28
HETATM   28  C   UNK N   1      30.008  16.151   3.725  0.00  0.00     0.246 C 
BRANCH  28  29
HETATM   29  C   UNK N   1      30.437  16.961   4.961  0.00  0.00     0.178 C 
BRANCH  29  30
HETATM   30  C   UNK N   1      29.437  17.994   5.429  0.00  0.00     0.074 A 
HETATM   31  C   UNK N   1      28.965  17.958   6.748  0.00  0.00     0.141 A 
HETATM   32  C   UNK N   1      28.057  18.925   7.180  0.00  0.00     0.046 A 
HETATM   33  F   UNK N   1      29.371  16.985   7.601  0.00  0.00    -0.204 F 
HETATM   34  C   UNK N   1      27.626  19.918   6.300  0.00  0.00     0.020 A 
HETATM   35  C   UNK N   1      28.099  19.917   4.989  0.00  0.00     0.088 A 
HETATM   36  N   UNK N   1      28.983  18.965   4.585  0.00  0.00    -0.365 N 
ATOM     37  HN  UNK N   1      29.317  18.977   3.621  1.00  0.00     0.165 HD
ENDBRANCH  29  30
BRANCH  29  38
HETATM   38  N   UNK N   1      31.722  17.585   4.731  0.00  0.00    -0.324 N 
HETATM   39  C   UNK N   1      32.786  17.293   5.509  0.00  0.00     0.362 C 
HETATM   40  O   UNK N   1      33.872  17.778   5.259  0.00  0.00    -0.238 OA
HETATM   41  H   UNK N   1      31.822  18.234   3.997  0.00  0.00     0.165 HD
BRANCH  39  42
HETATM   42  O   UNK N   1      32.622  16.395   6.525  0.00  0.00    -0.294 OA
BRANCH  42  43
HETATM   43  C   UNK N   1      32.897  16.566   7.868  0.00  0.00     0.061 C 
HETATM   44  C   UNK N   1      32.103  15.517   8.615  0.00  0.00     0.046 C 
HETATM   45  C   UNK N   1      32.448  17.936   8.340  0.00  0.00     0.046 C 
HETATM   46  C   UNK N   1      34.368  16.354   8.194  0.00  0.00     0.046 C 
ENDBRANCH  42  43
ENDBRANCH  39  42
ENDBRANCH  29  38
ENDBRANCH  28  29
BRANCH  28  47
HETATM   47  O   UNK N   1      29.851  16.987   2.618  0.00  0.00    -0.383 OA
HETATM   48  H   UNK N   1      29.978  16.638   1.721  0.00  0.00     0.210 HD
ENDBRANCH  28  47
ENDBRANCH  26  28
ENDBRANCH  25  26
ENDBRANCH  18  25
BRANCH  13  49
HETATM   49  O   UNK N   1      26.006  14.110   5.355  0.00  0.00    -0.386 OA
HETATM   50  H   UNK N   1      26.390  13.397   5.889  0.00  0.00     0.210 HD
ENDBRANCH  13  49
BRANCH  12  51
HETATM   51  O   UNK N   1      24.304  11.857   4.154  0.00  0.00    -0.308 OA
BRANCH  51  52
HETATM   52  C   UNK N   1      25.085  11.401   3.109  0.00  0.00     0.293 C 
HETATM   53  O   UNK N   1      26.261  11.128   3.273  0.00  0.00    -0.259 OA
BRANCH  52  54
HETATM   54  C   UNK N   1      24.526  11.147   1.768  0.00  0.00     0.039 A 
HETATM   55  C   UNK N   1      24.127  12.245   0.984  0.00  0.00     0.017 A 
HETATM   56  C   UNK N   1      23.632  12.057  -0.305  0.00  0.00     0.001 A 
HETATM   57  C   UNK N   1      23.506  10.765  -0.816  0.00  0.00     0.000 A 
HETATM   58  C   UNK N   1      23.883   9.666  -0.037  0.00  0.00     0.001 A 
HETATM   59  C   UNK N   1      24.404   9.857   1.248  0.00  0.00     0.017 A 
ENDBRANCH  52  54
ENDBRANCH  51  52
ENDBRANCH  12  51
BRANCH  10  60
HETATM   60  O   UNK N   1      21.864  11.637   5.964  0.00  0.00    -0.305 OA
BRANCH  60  61
HETATM   61  C   UNK N   1      21.856  12.094   7.242  0.00  0.00     0.255 C 
HETATM   62  O   UNK N   1      20.812  12.348   7.820  0.00  0.00    -0.266 OA
HETATM   63  C   UNK N   1      23.148  12.293   7.952  0.00  0.00     0.126 C 
ENDBRANCH  60  61
ENDBRANCH  10  60
BRANCH  23  64
HETATM   64  C   UNK N   1      20.590  19.534   3.665  0.00  0.00     0.331 C 
BRANCH  64  65
HETATM   65  N   UNK N   1      21.062  19.201   2.318  0.00  0.00     0.084 N 
HETATM   66  C   UNK N   1      20.246  18.149   1.733  0.00  0.00     0.309 C 
HETATM   67  C   UNK N   1      21.018  20.370   1.450  0.00  0.00     0.309 C 
ENDBRANCH  64  65
ENDBRANCH  23  64
TORSDOF 17
ENDMDL
