MODEL 1
REMARK VINA RESULT:      -8.2      0.000      0.000
REMARK  3 active torsions:
REMARK  status: ('A' for Active; 'I' for Inactive)
REMARK    1  A    between atoms: C_3  and  C_20 
REMARK    2  A    between atoms: C_4  and  C_12 
REMARK       I    between atoms: C_20  and  N_22 
REMARK    3  A    between atoms: C_26  and  C_27 
ROOT
HETATM    1  C   UNK N   1      29.277  12.965   3.813  0.00  0.00     0.069 C 
HETATM    2  C   UNK N   1      28.438  13.807   4.696  0.00  0.00     0.021 A 
HETATM    3  C   UNK N   1      28.905  14.860   5.486  0.00  0.00     0.061 A 
HETATM    4  C   UNK N   1      27.839  15.730   6.283  0.00  0.00     0.183 A 
HETATM    5  N   UNK N   1      26.452  15.288   6.045  0.00  0.00    -0.263 N 
HETATM    6  C   UNK N   1      26.117  14.253   5.295  0.00  0.00     0.124 A 
HETATM    7  C   UNK N   1      24.752  14.086   5.287  0.00  0.00     0.068 A 
HETATM    8  C   UNK N   1      24.293  15.115   6.100  0.00  0.00     0.111 A 
HETATM    9  N   UNK N   1      25.356  15.822   6.551  0.00  0.00    -0.307 N 
ATOM     10  HN  UNK N   1      25.317  16.629   7.173  1.00  0.00     0.186 HD
HETATM   11  N   UNK N   1      27.059  13.479   4.634  0.00  0.00    -0.344 N 
HETATM   12  H   UNK N   1      26.769  12.695   4.115  0.00  0.00     0.167 HD
ENDROOT
BRANCH   3  13
HETATM   13  C   UNK N   1      30.381  15.320   5.569  0.00  0.00     0.254 C 
HETATM   14  O   UNK N   1      31.016  14.917   6.523  0.00  0.00    -0.268 OA
HETATM   15  N   UNK N   1      31.032  16.169   4.698  0.00  0.00    -0.339 N 
HETATM   16  C   UNK N   1      30.885  16.105   3.273  0.00  0.00     0.127 C 
HETATM   17  C   UNK N   1      32.053  17.131   5.097  0.00  0.00     0.120 C 
HETATM   18  C   UNK N   1      31.830  17.156   2.704  0.00  0.00     0.022 C 
HETATM   19  C   UNK N   1      32.781  17.528   3.831  0.00  0.00     0.032 C 
BRANCH  17  20
HETATM   20  C   UNK N   1      32.897  16.932   6.336  0.00  0.00    -0.035 A 
HETATM   21  C   UNK N   1      34.030  16.110   6.295  0.00  0.00     0.012 A 
HETATM   22  C   UNK N   1      34.830  15.955   7.429  0.00  0.00     0.043 A 
HETATM   23  C   UNK N   1      34.507  16.626   8.611  0.00  0.00     0.116 A 
HETATM   24  C   UNK N   1      33.402  17.477   8.652  0.00  0.00     0.043 A 
HETATM   25  F   UNK N   1      35.270  16.451   9.717  0.00  0.00    -0.206 F 
HETATM   26  C   UNK N   1      32.612  17.645   7.513  0.00  0.00     0.012 A 
ENDBRANCH  17  20
ENDBRANCH   3  13
BRANCH   4  27
HETATM   27  C   UNK N   1      27.907  17.277   6.290  0.00  0.00    -0.027 A 
HETATM   28  C   UNK N   1      28.165  18.047   7.437  0.00  0.00     0.011 A 
HETATM   29  C   UNK N   1      27.994  19.438   7.425  0.00  0.00     0.026 A 
HETATM   30  C   UNK N   1      27.626  20.094   6.249  0.00  0.00     0.055 A 
HETATM   31  C   UNK N   1      27.466  19.353   5.070  0.00  0.00     0.056 A 
HETATM   32 Cl   UNK N   1      27.363  21.832   6.278  0.00  0.00    -0.083 Cl
HETATM   33  C   UNK N   1      27.578  17.960   5.106  0.00  0.00     0.035 A 
HETATM   34 Cl   UNK N   1      27.097  20.139   3.542  0.00  0.00    -0.083 Cl
ENDBRANCH   4  27
TORSDOF 3
ENDMDL
MODEL 2
REMARK VINA RESULT:      -7.8      4.738      6.894
REMARK  3 active torsions:
REMARK  status: ('A' for Active; 'I' for Inactive)
REMARK    1  A    between atoms: C_3  and  C_20 
REMARK    2  A    between atoms: C_4  and  C_12 
REMARK       I    between atoms: C_20  and  N_22 
REMARK    3  A    between atoms: C_26  and  C_27 
ROOT
HETATM    1  C   UNK N   1      24.715  20.737   3.122  0.00  0.00     0.069 C 
HETATM    2  C   UNK N   1      23.609  19.759   3.235  0.00  0.00     0.021 A 
HETATM    3  C   UNK N   1      23.694  18.516   3.866  0.00  0.00     0.061 A 
HETATM    4  C   UNK N   1      22.370  17.645   3.992  0.00  0.00     0.183 A 
HETATM    5  N   UNK N   1      21.191  18.317   3.414  0.00  0.00    -0.263 N 
HETATM    6  C   UNK N   1      21.223  19.491   2.810  0.00  0.00     0.124 A 
HETATM    7  C   UNK N   1      19.969  19.838   2.364  0.00  0.00     0.068 A 
HETATM    8  C   UNK N   1      19.176  18.765   2.754  0.00  0.00     0.111 A 
HETATM    9  N   UNK N   1      19.955  17.854   3.384  0.00  0.00    -0.307 N 
ATOM     10  HN  UNK N   1      19.641  16.964   3.770  1.00  0.00     0.186 HD
HETATM   11  N   UNK N   1      22.392  20.225   2.674  0.00  0.00    -0.344 N 
HETATM   12  H   UNK N   1      22.378  21.079   2.184  0.00  0.00     0.167 HD
ENDROOT
BRANCH   3  13
HETATM   13  C   UNK N   1      24.965  17.954   4.551  0.00  0.00     0.254 C 
HETATM   14  O   UNK N   1      25.062  18.150   5.745  0.00  0.00    -0.268 OA
HETATM   15  N   UNK N   1      26.011  17.295   3.938  0.00  0.00    -0.339 N 
HETATM   16  C   UNK N   1      25.832  16.299   2.922  0.00  0.00     0.127 C 
HETATM   17  C   UNK N   1      27.407  17.416   4.342  0.00  0.00     0.120 C 
HETATM   18  C   UNK N   1      27.226  15.784   2.588  0.00  0.00     0.022 C 
HETATM   19  C   UNK N   1      28.133  16.243   3.718  0.00  0.00     0.032 C 
BRANCH  17  20
HETATM   20  C   UNK N   1      27.801  17.789   5.754  0.00  0.00    -0.035 A 
HETATM   21  C   UNK N   1      27.951  19.134   6.115  0.00  0.00     0.012 A 
HETATM   22  C   UNK N   1      28.279  19.480   7.427  0.00  0.00     0.043 A 
HETATM   23  C   UNK N   1      28.452  18.484   8.391  0.00  0.00     0.116 A 
HETATM   24  C   UNK N   1      28.268  17.143   8.052  0.00  0.00     0.043 A 
HETATM   25  F   UNK N   1      28.797  18.822   9.657  0.00  0.00    -0.206 F 
HETATM   26  C   UNK N   1      27.923  16.798   6.743  0.00  0.00     0.012 A 
ENDBRANCH  17  20
ENDBRANCH   3  13
BRANCH   4  27
HETATM   27  C   UNK N   1      21.985  16.954   5.323  0.00  0.00    -0.027 A 
HETATM   28  C   UNK N   1      22.224  15.597   5.602  0.00  0.00     0.011 A 
HETATM   29  C   UNK N   1      21.657  14.981   6.726  0.00  0.00     0.026 A 
HETATM   30  C   UNK N   1      20.895  15.725   7.629  0.00  0.00     0.055 A 
HETATM   31  C   UNK N   1      20.734  17.102   7.422  0.00  0.00     0.056 A 
HETATM   32 Cl   UNK N   1      20.149  14.914   8.999  0.00  0.00    -0.083 Cl
HETATM   33  C   UNK N   1      21.252  17.694   6.266  0.00  0.00     0.035 A 
HETATM   34 Cl   UNK N   1      19.867  18.103   8.577  0.00  0.00    -0.083 Cl
ENDBRANCH   4  27
TORSDOF 3
ENDMDL
MODEL 3
REMARK VINA RESULT:      -7.8      5.729      8.036
REMARK  3 active torsions:
REMARK  status: ('A' for Active; 'I' for Inactive)
REMARK    1  A    between atoms: C_3  and  C_20 
REMARK    2  A    between atoms: C_4  and  C_12 
REMARK       I    between atoms: C_20  and  N_22 
REMARK    3  A    between atoms: C_26  and  C_27 
ROOT
HETATM    1  C   UNK N   1      21.561  12.365   6.565  0.00  0.00     0.069 C 
HETATM    2  C   UNK N   1      21.459  13.830   6.751  0.00  0.00     0.021 A 
HETATM    3  C   UNK N   1      22.063  14.790   5.935  0.00  0.00     0.061 A 
HETATM    4  C   UNK N   1      21.747  16.322   6.218  0.00  0.00     0.183 A 
HETATM    5  N   UNK N   1      20.807  16.511   7.339  0.00  0.00    -0.263 N 
HETATM    6  C   UNK N   1      20.312  15.529   8.071  0.00  0.00     0.124 A 
HETATM    7  C   UNK N   1      19.483  16.028   9.049  0.00  0.00     0.068 A 
HETATM    8  C   UNK N   1      19.522  17.401   8.840  0.00  0.00     0.111 A 
HETATM    9  N   UNK N   1      20.345  17.660   7.796  0.00  0.00    -0.307 N 
ATOM     10  HN  UNK N   1      20.569  18.584   7.426  1.00  0.00     0.186 HD
HETATM   11  N   UNK N   1      20.624  14.198   7.837  0.00  0.00    -0.344 N 
HETATM   12  H   UNK N   1      20.261  13.501   8.429  0.00  0.00     0.167 HD
ENDROOT
BRANCH   3  13
HETATM   13  C   UNK N   1      22.942  14.477   4.699  0.00  0.00     0.254 C 
HETATM   14  O   UNK N   1      24.107  14.218   4.921  0.00  0.00    -0.268 OA
HETATM   15  N   UNK N   1      22.547  14.504   3.377  0.00  0.00    -0.339 N 
HETATM   16  C   UNK N   1      21.295  13.981   2.914  0.00  0.00     0.127 C 
HETATM   17  C   UNK N   1      23.402  14.928   2.274  0.00  0.00     0.120 C 
HETATM   18  C   UNK N   1      21.306  14.142   1.399  0.00  0.00     0.022 C 
HETATM   19  C   UNK N   1      22.751  14.409   1.009  0.00  0.00     0.032 C 
BRANCH  17  20
HETATM   20  C   UNK N   1      24.910  14.837   2.351  0.00  0.00    -0.035 A 
HETATM   21  C   UNK N   1      25.563  13.636   2.049  0.00  0.00     0.012 A 
HETATM   22  C   UNK N   1      26.957  13.562   2.086  0.00  0.00     0.043 A 
HETATM   23  C   UNK N   1      27.709  14.691   2.417  0.00  0.00     0.116 A 
HETATM   24  C   UNK N   1      27.071  15.903   2.683  0.00  0.00     0.043 A 
HETATM   25  F   UNK N   1      29.060  14.609   2.478  0.00  0.00    -0.206 F 
HETATM   26  C   UNK N   1      25.677  15.981   2.630  0.00  0.00     0.012 A 
ENDBRANCH  17  20
ENDBRANCH   3  13
BRANCH   4  27
HETATM   27  C   UNK N   1      21.399  17.298   5.067  0.00  0.00    -0.027 A 
HETATM   28  C   UNK N   1      20.214  17.235   4.314  0.00  0.00     0.011 A 
HETATM   29  C   UNK N   1      20.058  18.000   3.150  0.00  0.00     0.026 A 
HETATM   30  C   UNK N   1      21.056  18.890   2.752  0.00  0.00     0.055 A 
HETATM   31  C   UNK N   1      22.200  19.043   3.548  0.00  0.00     0.056 A 
HETATM   32 Cl   UNK N   1      20.858  19.794   1.257  0.00  0.00    -0.083 Cl
HETATM   33  C   UNK N   1      22.373  18.232   4.673  0.00  0.00     0.035 A 
HETATM   34 Cl   UNK N   1      23.442  20.219   3.146  0.00  0.00    -0.083 Cl
ENDBRANCH   4  27
TORSDOF 3
ENDMDL
MODEL 4
REMARK VINA RESULT:      -7.7      8.123     11.255
REMARK  3 active torsions:
REMARK  status: ('A' for Active; 'I' for Inactive)
REMARK    1  A    between atoms: C_3  and  C_20 
REMARK    2  A    between atoms: C_4  and  C_12 
REMARK       I    between atoms: C_20  and  N_22 
REMARK    3  A    between atoms: C_26  and  C_27 
ROOT
HETATM    1  C   UNK N   1      36.835  14.961  14.775  0.00  0.00     0.069 C 
HETATM    2  C   UNK N   1      36.041  13.712  14.837  0.00  0.00     0.021 A 
HETATM    3  C   UNK N   1      35.399  13.111  13.752  0.00  0.00     0.061 A 
HETATM    4  C   UNK N   1      34.689  11.708  13.984  0.00  0.00     0.183 A 
HETATM    5  N   UNK N   1      34.834  11.219  15.368  0.00  0.00    -0.263 N 
HETATM    6  C   UNK N   1      35.442  11.883  16.333  0.00  0.00     0.124 A 
HETATM    7  C   UNK N   1      35.395  11.173  17.511  0.00  0.00     0.068 A 
HETATM    8  C   UNK N   1      34.703  10.018  17.167  0.00  0.00     0.111 A 
HETATM    9  N   UNK N   1      34.370  10.083  15.856  0.00  0.00    -0.307 N 
ATOM     10  HN  UNK N   1      33.851   9.377  15.335  1.00  0.00     0.186 HD
HETATM   11  N   UNK N   1      36.027  13.124  16.128  0.00  0.00    -0.344 N 
HETATM   12  H   UNK N   1      36.437  13.601  16.884  0.00  0.00     0.167 HD
ENDROOT
BRANCH   3  13
HETATM   13  C   UNK N   1      35.411  13.655  12.302  0.00  0.00     0.254 C 
HETATM   14  O   UNK N   1      34.586  14.505  12.041  0.00  0.00    -0.268 OA
HETATM   15  N   UNK N   1      36.232  13.242  11.272  0.00  0.00    -0.339 N 
HETATM   16  C   UNK N   1      37.631  12.972  11.435  0.00  0.00     0.127 C 
HETATM   17  C   UNK N   1      35.822  13.169   9.874  0.00  0.00     0.120 C 
HETATM   18  C   UNK N   1      38.157  12.628  10.047  0.00  0.00     0.022 C 
HETATM   19  C   UNK N   1      37.097  13.093   9.061  0.00  0.00     0.032 C 
BRANCH  17  20
HETATM   20  C   UNK N   1      34.711  14.033   9.322  0.00  0.00    -0.035 A 
HETATM   21  C   UNK N   1      34.959  15.368   8.976  0.00  0.00     0.012 A 
HETATM   22  C   UNK N   1      33.943  16.156   8.433  0.00  0.00     0.043 A 
HETATM   23  C   UNK N   1      32.672  15.614   8.222  0.00  0.00     0.116 A 
HETATM   24  C   UNK N   1      32.425  14.275   8.527  0.00  0.00     0.043 A 
HETATM   25  F   UNK N   1      31.682  16.389   7.720  0.00  0.00    -0.206 F 
HETATM   26  C   UNK N   1      33.446  13.482   9.056  0.00  0.00     0.012 A 
ENDBRANCH  17  20
ENDBRANCH   3  13
BRANCH   4  27
HETATM   27  C   UNK N   1      34.874  10.537  12.987  0.00  0.00    -0.027 A 
HETATM   28  C   UNK N   1      36.106   9.912  12.730  0.00  0.00     0.011 A 
HETATM   29  C   UNK N   1      36.251   9.015  11.663  0.00  0.00     0.026 A 
HETATM   30  C   UNK N   1      35.152   8.676  10.872  0.00  0.00     0.055 A 
HETATM   31  C   UNK N   1      33.893   9.209  11.180  0.00  0.00     0.056 A 
HETATM   32 Cl   UNK N   1      35.375   7.593   9.506  0.00  0.00    -0.083 Cl
HETATM   33  C   UNK N   1      33.771  10.150  12.207  0.00  0.00     0.035 A 
HETATM   34 Cl   UNK N   1      32.459   8.741  10.279  0.00  0.00    -0.083 Cl
ENDBRANCH   4  27
TORSDOF 3
ENDMDL
MODEL 5
REMARK VINA RESULT:      -7.6      4.750      6.886
REMARK  3 active torsions:
REMARK  status: ('A' for Active; 'I' for Inactive)
REMARK    1  A    between atoms: C_3  and  C_20 
REMARK    2  A    between atoms: C_4  and  C_12 
REMARK       I    between atoms: C_20  and  N_22 
REMARK    3  A    between atoms: C_26  and  C_27 
ROOT
HETATM    1  C   UNK N   1      24.613  20.734   3.229  0.00  0.00     0.069 C 
HETATM    2  C   UNK N   1      23.505  19.753   3.263  0.00  0.00     0.021 A 
HETATM    3  C   UNK N   1      23.568  18.486   3.848  0.00  0.00     0.061 A 
HETATM    4  C   UNK N   1      22.241  17.613   3.892  0.00  0.00     0.183 A 
HETATM    5  N   UNK N   1      21.083  18.308   3.299  0.00  0.00    -0.263 N 
HETATM    6  C   UNK N   1      21.136  19.504   2.743  0.00  0.00     0.124 A 
HETATM    7  C   UNK N   1      19.898  19.869   2.266  0.00  0.00     0.068 A 
HETATM    8  C   UNK N   1      19.093  18.784   2.586  0.00  0.00     0.111 A 
HETATM    9  N   UNK N   1      19.849  17.848   3.207  0.00  0.00    -0.307 N 
ATOM     10  HN  UNK N   1      19.522  16.943   3.546  1.00  0.00     0.186 HD
HETATM   11  N   UNK N   1      22.309  20.242   2.678  0.00  0.00    -0.344 N 
HETATM   12  H   UNK N   1      22.312  21.114   2.221  0.00  0.00     0.167 HD
ENDROOT
BRANCH   3  13
HETATM   13  C   UNK N   1      24.814  17.897   4.556  0.00  0.00     0.254 C 
HETATM   14  O   UNK N   1      24.873  18.057   5.758  0.00  0.00    -0.268 OA
HETATM   15  N   UNK N   1      25.876  17.251   3.957  0.00  0.00    -0.339 N 
HETATM   16  C   UNK N   1      25.725  16.288   2.905  0.00  0.00     0.127 C 
HETATM   17  C   UNK N   1      27.259  17.352   4.408  0.00  0.00     0.120 C 
HETATM   18  C   UNK N   1      27.126  15.775   2.600  0.00  0.00     0.022 C 
HETATM   19  C   UNK N   1      27.999  16.195   3.772  0.00  0.00     0.032 C 
BRANCH  17  20
HETATM   20  C   UNK N   1      27.609  17.680   5.842  0.00  0.00    -0.035 A 
HETATM   21  C   UNK N   1      27.674  16.665   6.804  0.00  0.00     0.012 A 
HETATM   22  C   UNK N   1      28.032  16.962   8.121  0.00  0.00     0.043 A 
HETATM   23  C   UNK N   1      28.335  18.276   8.485  0.00  0.00     0.116 A 
HETATM   24  C   UNK N   1      28.310  19.290   7.526  0.00  0.00     0.043 A 
HETATM   25  F   UNK N   1      28.656  18.565   9.768  0.00  0.00    -0.206 F 
HETATM   26  C   UNK N   1      27.968  18.989   6.205  0.00  0.00     0.012 A 
ENDBRANCH  17  20
ENDBRANCH   3  13
BRANCH   4  27
HETATM   27  C   UNK N   1      21.809  16.870   5.181  0.00  0.00    -0.027 A 
HETATM   28  C   UNK N   1      21.145  17.485   6.257  0.00  0.00     0.011 A 
HETATM   29  C   UNK N   1      20.979  16.818   7.478  0.00  0.00     0.026 A 
HETATM   30  C   UNK N   1      21.416  15.500   7.627  0.00  0.00     0.055 A 
HETATM   31  C   UNK N   1      21.986  14.837   6.532  0.00  0.00     0.056 A 
HETATM   32 Cl   UNK N   1      21.248  14.708   9.187  0.00  0.00    -0.083 Cl
HETATM   33  C   UNK N   1      22.202  15.530   5.337  0.00  0.00     0.035 A 
HETATM   34 Cl   UNK N   1      22.465  13.149   6.635  0.00  0.00    -0.083 Cl
ENDBRANCH   4  27
TORSDOF 3
ENDMDL
MODEL 6
REMARK VINA RESULT:      -7.5      5.910      8.448
REMARK  3 active torsions:
REMARK  status: ('A' for Active; 'I' for Inactive)
REMARK    1  A    between atoms: C_3  and  C_20 
REMARK    2  A    between atoms: C_4  and  C_12 
REMARK       I    between atoms: C_20  and  N_22 
REMARK    3  A    between atoms: C_26  and  C_27 
ROOT
HETATM    1  C   UNK N   1      18.855  14.174   4.620  0.00  0.00     0.069 C 
HETATM    2  C   UNK N   1      19.801  15.310   4.540  0.00  0.00     0.021 A 
HETATM    3  C   UNK N   1      21.103  15.312   5.045  0.00  0.00     0.061 A 
HETATM    4  C   UNK N   1      22.016  16.583   4.764  0.00  0.00     0.183 A 
HETATM    5  N   UNK N   1      21.327  17.611   3.961  0.00  0.00    -0.263 N 
HETATM    6  C   UNK N   1      20.074  17.523   3.554  0.00  0.00     0.124 A 
HETATM    7  C   UNK N   1      19.719  18.647   2.844  0.00  0.00     0.068 A 
HETATM    8  C   UNK N   1      20.873  19.421   2.859  0.00  0.00     0.111 A 
HETATM    9  N   UNK N   1      21.830  18.762   3.555  0.00  0.00    -0.307 N 
ATOM     10  HN  UNK N   1      22.776  19.097   3.735  1.00  0.00     0.186 HD
HETATM   11  N   UNK N   1      19.276  16.424   3.836  0.00  0.00    -0.344 N 
HETATM   12  H   UNK N   1      18.336  16.417   3.545  0.00  0.00     0.167 HD
ENDROOT
BRANCH   3  13
HETATM   13  C   UNK N   1      21.773  14.121   5.775  0.00  0.00     0.254 C 
HETATM   14  O   UNK N   1      21.642  14.089   6.981  0.00  0.00    -0.268 OA
HETATM   15  N   UNK N   1      22.534  13.123   5.201  0.00  0.00    -0.339 N 
HETATM   16  C   UNK N   1      22.194  12.481   3.964  0.00  0.00     0.127 C 
HETATM   17  C   UNK N   1      23.686  12.498   5.841  0.00  0.00     0.120 C 
HETATM   18  C   UNK N   1      23.248  11.402   3.747  0.00  0.00     0.022 C 
HETATM   19  C   UNK N   1      23.946  11.213   5.084  0.00  0.00     0.032 C 
BRANCH  17  20
HETATM   20  C   UNK N   1      23.833  12.446   7.345  0.00  0.00    -0.035 A 
HETATM   21  C   UNK N   1      23.140  11.485   8.091  0.00  0.00     0.012 A 
HETATM   22  C   UNK N   1      23.304  11.414   9.476  0.00  0.00     0.043 A 
HETATM   23  C   UNK N   1      24.168  12.299  10.125  0.00  0.00     0.116 A 
HETATM   24  C   UNK N   1      24.893  13.236   9.387  0.00  0.00     0.043 A 
HETATM   25  F   UNK N   1      24.304  12.245  11.471  0.00  0.00    -0.206 F 
HETATM   26  C   UNK N   1      24.741  13.296   8.000  0.00  0.00     0.012 A 
ENDBRANCH  17  20
ENDBRANCH   3  13
BRANCH   4  27
HETATM   27  C   UNK N   1      23.481  16.432   4.286  0.00  0.00    -0.027 A 
HETATM   28  C   UNK N   1      23.862  15.726   3.132  0.00  0.00     0.011 A 
HETATM   29  C   UNK N   1      25.209  15.438   2.874  0.00  0.00     0.026 A 
HETATM   30  C   UNK N   1      26.207  15.906   3.731  0.00  0.00     0.055 A 
HETATM   31  C   UNK N   1      25.852  16.701   4.829  0.00  0.00     0.056 A 
HETATM   32 Cl   UNK N   1      27.883  15.481   3.414  0.00  0.00    -0.083 Cl
HETATM   33  C   UNK N   1      24.503  16.931   5.112  0.00  0.00     0.035 A 
HETATM   34 Cl   UNK N   1      27.074  17.397   5.884  0.00  0.00    -0.083 Cl
ENDBRANCH   4  27
TORSDOF 3
ENDMDL
MODEL 7
REMARK VINA RESULT:      -7.5     13.024     15.690
REMARK  3 active torsions:
REMARK  status: ('A' for Active; 'I' for Inactive)
REMARK    1  A    between atoms: C_3  and  C_20 
REMARK    2  A    between atoms: C_4  and  C_12 
REMARK       I    between atoms: C_20  and  N_22 
REMARK    3  A    between atoms: C_26  and  C_27 
ROOT
HETATM    1  C   UNK N   1      32.975  26.013  -5.333  0.00  0.00     0.069 C 
HETATM    2  C   UNK N   1      31.988  24.976  -4.956  0.00  0.00     0.021 A 
HETATM    3  C   UNK N   1      30.601  25.139  -4.976  0.00  0.00     0.061 A 
HETATM    4  C   UNK N   1      29.692  23.877  -4.650  0.00  0.00     0.183 A 
HETATM    5  N   UNK N   1      30.483  22.661  -4.380  0.00  0.00    -0.263 N 
HETATM    6  C   UNK N   1      31.802  22.620  -4.359  0.00  0.00     0.124 A 
HETATM    7  C   UNK N   1      32.240  21.350  -4.061  0.00  0.00     0.068 A 
HETATM    8  C   UNK N   1      31.063  20.628  -3.904  0.00  0.00     0.111 A 
HETATM    9  N   UNK N   1      30.012  21.460  -4.099  0.00  0.00    -0.307 N 
ATOM     10  HN  UNK N   1      29.027  21.204  -4.038  1.00  0.00     0.186 HD
HETATM   11  N   UNK N   1      32.585  23.737  -4.609  0.00  0.00    -0.344 N 
HETATM   12  H   UNK N   1      33.565  23.670  -4.547  0.00  0.00     0.167 HD
ENDROOT
BRANCH   3  13
HETATM   13  C   UNK N   1      29.866  26.437  -5.394  0.00  0.00     0.254 C 
HETATM   14  O   UNK N   1      29.619  27.225  -4.504  0.00  0.00    -0.268 OA
HETATM   15  N   UNK N   1      29.430  26.767  -6.661  0.00  0.00    -0.339 N 
HETATM   16  C   UNK N   1      30.202  26.539  -7.848  0.00  0.00     0.127 C 
HETATM   17  C   UNK N   1      28.208  27.513  -6.941  0.00  0.00     0.120 C 
HETATM   18  C   UNK N   1      29.387  27.118  -8.998  0.00  0.00     0.022 C 
HETATM   19  C   UNK N   1      28.332  28.012  -8.365  0.00  0.00     0.032 C 
BRANCH  17  20
HETATM   20  C   UNK N   1      27.607  28.467  -5.933  0.00  0.00    -0.035 A 
HETATM   21  C   UNK N   1      26.577  28.044  -5.085  0.00  0.00     0.012 A 
HETATM   22  C   UNK N   1      26.046  28.914  -4.130  0.00  0.00     0.043 A 
HETATM   23  C   UNK N   1      26.548  30.212  -4.011  0.00  0.00     0.116 A 
HETATM   24  C   UNK N   1      27.600  30.633  -4.826  0.00  0.00     0.043 A 
HETATM   25  F   UNK N   1      26.013  31.062  -3.102  0.00  0.00    -0.206 F 
HETATM   26  C   UNK N   1      28.141  29.757  -5.769  0.00  0.00     0.012 A 
ENDBRANCH  17  20
ENDBRANCH   3  13
BRANCH   4  27
HETATM   27  C   UNK N   1      28.461  23.524  -5.521  0.00  0.00    -0.027 A 
HETATM   28  C   UNK N   1      27.150  23.942  -5.235  0.00  0.00     0.011 A 
HETATM   29  C   UNK N   1      26.056  23.411  -5.931  0.00  0.00     0.026 A 
HETATM   30  C   UNK N   1      26.255  22.501  -6.971  0.00  0.00     0.055 A 
HETATM   31  C   UNK N   1      27.562  22.153  -7.339  0.00  0.00     0.056 A 
HETATM   32 Cl   UNK N   1      24.862  21.807  -7.788  0.00  0.00    -0.083 Cl
HETATM   33  C   UNK N   1      28.643  22.641  -6.599  0.00  0.00     0.035 A 
HETATM   34 Cl   UNK N   1      27.874  21.088  -8.701  0.00  0.00    -0.083 Cl
ENDBRANCH   4  27
TORSDOF 3
ENDMDL
MODEL 8
REMARK VINA RESULT:      -7.4      5.128      8.104
REMARK  3 active torsions:
REMARK  status: ('A' for Active; 'I' for Inactive)
REMARK    1  A    between atoms: C_3  and  C_20 
REMARK    2  A    between atoms: C_4  and  C_12 
REMARK       I    between atoms: C_20  and  N_22 
REMARK    3  A    between atoms: C_26  and  C_27 
ROOT
HETATM    1  C   UNK N   1      20.043  16.554   4.292  0.00  0.00     0.069 C 
HETATM    2  C   UNK N   1      21.345  17.257   4.328  0.00  0.00     0.021 A 
HETATM    3  C   UNK N   1      22.517  16.753   4.896  0.00  0.00     0.061 A 
HETATM    4  C   UNK N   1      23.853  17.600   4.739  0.00  0.00     0.183 A 
HETATM    5  N   UNK N   1      23.652  18.840   3.965  0.00  0.00    -0.263 N 
HETATM    6  C   UNK N   1      22.487  19.242   3.491  0.00  0.00     0.124 A 
HETATM    7  C   UNK N   1      22.623  20.443   2.833  0.00  0.00     0.068 A 
HETATM    8  C   UNK N   1      23.977  20.728   2.953  0.00  0.00     0.111 A 
HETATM    9  N   UNK N   1      24.572  19.735   3.655  0.00  0.00    -0.307 N 
ATOM     10  HN  UNK N   1      25.560  19.685   3.901  1.00  0.00     0.186 HD
HETATM   11  N   UNK N   1      21.321  18.512   3.667  0.00  0.00    -0.344 N 
HETATM   12  H   UNK N   1      20.467  18.867   3.329  0.00  0.00     0.167 HD
ENDROOT
BRANCH   3  13
HETATM   13  C   UNK N   1      22.646  15.372   5.586  0.00  0.00     0.254 C 
HETATM   14  O   UNK N   1      22.444  15.349   6.782  0.00  0.00    -0.268 OA
HETATM   15  N   UNK N   1      23.006  14.181   4.989  0.00  0.00    -0.339 N 
HETATM   16  C   UNK N   1      22.521  13.760   3.707  0.00  0.00     0.127 C 
HETATM   17  C   UNK N   1      23.799  13.143   5.638  0.00  0.00     0.120 C 
HETATM   18  C   UNK N   1      23.101  12.371   3.472  0.00  0.00     0.022 C 
HETATM   19  C   UNK N   1      23.598  11.883   4.824  0.00  0.00     0.032 C 
BRANCH  17  20
HETATM   20  C   UNK N   1      23.830  12.986   7.142  0.00  0.00    -0.035 A 
HETATM   21  C   UNK N   1      22.804  12.300   7.803  0.00  0.00     0.012 A 
HETATM   22  C   UNK N   1      22.850  12.123   9.187  0.00  0.00     0.043 A 
HETATM   23  C   UNK N   1      23.928  12.625   9.921  0.00  0.00     0.116 A 
HETATM   24  C   UNK N   1      24.974  13.278   9.268  0.00  0.00     0.043 A 
HETATM   25  F   UNK N   1      23.956  12.476  11.267  0.00  0.00    -0.206 F 
HETATM   26  C   UNK N   1      24.935  13.440   7.882  0.00  0.00     0.012 A 
ENDBRANCH  17  20
ENDBRANCH   3  13
BRANCH   4  27
HETATM   27  C   UNK N   1      25.187  16.930   4.326  0.00  0.00    -0.027 A 
HETATM   28  C   UNK N   1      25.378  16.238   3.117  0.00  0.00     0.011 A 
HETATM   29  C   UNK N   1      26.530  15.470   2.901  0.00  0.00     0.026 A 
HETATM   30  C   UNK N   1      27.542  15.431   3.861  0.00  0.00     0.055 A 
HETATM   31  C   UNK N   1      27.416  16.198   5.026  0.00  0.00     0.056 A 
HETATM   32 Cl   UNK N   1      28.950  14.413   3.587  0.00  0.00    -0.083 Cl
HETATM   33  C   UNK N   1      26.237  16.912   5.260  0.00  0.00     0.035 A 
HETATM   34 Cl   UNK N   1      28.701  16.262   6.222  0.00  0.00    -0.083 Cl
ENDBRANCH   4  27
TORSDOF 3
ENDMDL
MODEL 9
REMARK VINA RESULT:      -7.3     12.097     15.138
REMARK  3 active torsions:
REMARK  status: ('A' for Active; 'I' for Inactive)
REMARK    1  A    between atoms: C_3  and  C_20 
REMARK    2  A    between atoms: C_4  and  C_12 
REMARK       I    between atoms: C_20  and  N_22 
REMARK    3  A    between atoms: C_26  and  C_27 
ROOT
HETATM    1  C   UNK N   1      29.278  22.901  -1.943  0.00  0.00     0.069 C 
HETATM    2  C   UNK N   1      30.301  22.678  -2.989  0.00  0.00     0.021 A 
HETATM    3  C   UNK N   1      30.273  23.228  -4.273  0.00  0.00     0.061 A 
HETATM    4  C   UNK N   1      31.520  22.973  -5.226  0.00  0.00     0.183 A 
HETATM    5  N   UNK N   1      32.576  22.173  -4.578  0.00  0.00    -0.263 N 
HETATM    6  C   UNK N   1      32.491  21.673  -3.359  0.00  0.00     0.124 A 
HETATM    7  C   UNK N   1      33.627  20.961  -3.049  0.00  0.00     0.068 A 
HETATM    8  C   UNK N   1      34.406  21.077  -4.194  0.00  0.00     0.111 A 
HETATM    9  N   UNK N   1      33.732  21.815  -5.107  0.00  0.00    -0.307 N 
ATOM     10  HN  UNK N   1      34.060  22.054  -6.043  1.00  0.00     0.186 HD
HETATM   11  N   UNK N   1      31.382  21.872  -2.550  0.00  0.00    -0.344 N 
HETATM   12  H   UNK N   1      31.345  21.451  -1.661  0.00  0.00     0.167 HD
ENDROOT
BRANCH   3  13
HETATM   13  C   UNK N   1      29.162  24.161  -4.815  0.00  0.00     0.254 C 
HETATM   14  O   UNK N   1      29.278  25.341  -4.554  0.00  0.00    -0.268 OA
HETATM   15  N   UNK N   1      28.039  23.784  -5.523  0.00  0.00    -0.339 N 
HETATM   16  C   UNK N   1      28.056  22.804  -6.570  0.00  0.00     0.127 C 
HETATM   17  C   UNK N   1      26.736  24.428  -5.400  0.00  0.00     0.120 C 
HETATM   18  C   UNK N   1      26.638  22.756  -7.124  0.00  0.00     0.022 C 
HETATM   19  C   UNK N   1      25.939  24.008  -6.617  0.00  0.00     0.032 C 
BRANCH  17  20
HETATM   20  C   UNK N   1      26.596  25.867  -4.956  0.00  0.00    -0.035 A 
HETATM   21  C   UNK N   1      26.685  26.907  -5.888  0.00  0.00     0.012 A 
HETATM   22  C   UNK N   1      26.520  28.233  -5.484  0.00  0.00     0.043 A 
HETATM   23  C   UNK N   1      26.255  28.529  -4.145  0.00  0.00     0.116 A 
HETATM   24  C   UNK N   1      26.127  27.498  -3.214  0.00  0.00     0.043 A 
HETATM   25  F   UNK N   1      26.122  29.818  -3.751  0.00  0.00    -0.206 F 
HETATM   26  C   UNK N   1      26.276  26.171  -3.621  0.00  0.00     0.012 A 
ENDBRANCH  17  20
ENDBRANCH   3  13
BRANCH   4  27
HETATM   27  C   UNK N   1      32.155  24.123  -6.046  0.00  0.00    -0.027 A 
HETATM   28  C   UNK N   1      32.230  24.140  -7.449  0.00  0.00     0.011 A 
HETATM   29  C   UNK N   1      33.008  25.094  -8.119  0.00  0.00     0.026 A 
HETATM   30  C   UNK N   1      33.674  26.089  -7.402  0.00  0.00     0.055 A 
HETATM   31  C   UNK N   1      33.526  26.151  -6.010  0.00  0.00     0.056 A 
HETATM   32 Cl   UNK N   1      34.689  27.238  -8.263  0.00  0.00    -0.083 Cl
HETATM   33  C   UNK N   1      32.798  25.159  -5.346  0.00  0.00     0.035 A 
HETATM   34 Cl   UNK N   1      34.264  27.439  -5.069  0.00  0.00    -0.083 Cl
ENDBRANCH   4  27
TORSDOF 3
ENDMDL
