MODEL 1
REMARK VINA RESULT:      -7.1      0.000      0.000
REMARK  5 active torsions:
REMARK  status: ('A' for Active; 'I' for Inactive)
REMARK    1  A    between atoms: O_2  and  C_3 
REMARK    2  A    between atoms: C_9  and  C_12 
REMARK    3  A    between atoms: C_12  and  C_13 
REMARK    4  A    between atoms: C_13  and  N_14 
REMARK       I    between atoms: N_14  and  C_15 
REMARK    5  A    between atoms: C_15  and  C_17 
ROOT
HETATM    1  C   UNK N   1      27.716  23.826  -3.136  0.00  0.00     0.060 C 
ENDROOT
BRANCH   1   2
HETATM    2  C   UNK N   1      26.787  24.359  -4.178  0.00  0.00    -0.029 A 
HETATM    3  C   UNK N   1      26.317  25.639  -4.263  0.00  0.00     0.001 A 
HETATM    4  C   UNK N   1      25.508  25.690  -5.359  0.00  0.00     0.043 A 
HETATM    5  C   UNK N   1      26.548  26.749  -3.459  0.00  0.00     0.051 A 
HETATM    6  C   UNK N   1      24.862  26.862  -5.740  0.00  0.00     0.033 A 
HETATM    7  N   UNK N   1      25.443  24.492  -5.970  0.00  0.00    -0.365 N 
HETATM    8  C   UNK N   1      25.066  28.007  -4.945  0.00  0.00     0.039 A 
HETATM    9  C   UNK N   1      25.909  27.954  -3.799  0.00  0.00     0.069 A 
HETATM   10  C   UNK N   1      26.231  23.659  -5.245  0.00  0.00     0.096 A 
HETATM   11  H   UNK N   1      24.928  24.268  -6.778  0.00  0.00     0.165 HD
BRANCH   9  12
HETATM   12  O   UNK N   1      26.103  29.038  -3.013  0.00  0.00    -0.356 OA
HETATM   13  C   UNK N   1      26.619  30.225  -3.481  0.00  0.00     0.210 C 
ENDBRANCH   9  12
ENDBRANCH   1   2
BRANCH   1  14
HETATM   14  C   UNK N   1      29.163  24.135  -3.485  0.00  0.00     0.127 C 
BRANCH  14  15
HETATM   15  N   UNK N   1      30.050  23.431  -2.593  0.00  0.00    -0.355 N 
HETATM   16  C   UNK N   1      30.993  22.540  -2.989  0.00  0.00     0.275 C 
HETATM   17  O   UNK N   1      31.711  22.039  -2.139  0.00  0.00    -0.265 OA
HETATM   18  H   UNK N   1      29.964  23.609  -1.629  0.00  0.00     0.162 HD
BRANCH  16  19
HETATM   19  C   UNK N   1      31.201  22.174  -4.417  0.00  0.00     0.146 A 
HETATM   20  C   UNK N   1      30.468  21.113  -4.964  0.00  0.00     0.097 A 
HETATM   21  C   UNK N   1      30.680  20.757  -6.292  0.00  0.00     0.176 A 
HETATM   22  O   UNK N   1      30.069  19.827  -6.781  0.00  0.00    -0.288 OA
HETATM   23  C   UNK N   1      31.602  21.470  -7.054  0.00  0.00     0.079 A 
HETATM   24  C   UNK N   1      32.293  22.522  -6.454  0.00  0.00     0.147 A 
HETATM   25  O   UNK N   1      32.079  22.831  -5.176  0.00  0.00    -0.317 OA
ENDBRANCH  16  19
ENDBRANCH  14  15
ENDBRANCH   1  14
TORSDOF 5
ENDMDL
MODEL 2
REMARK VINA RESULT:      -7.0     15.930     19.707
REMARK  5 active torsions:
REMARK  status: ('A' for Active; 'I' for Inactive)
REMARK    1  A    between atoms: O_2  and  C_3 
REMARK    2  A    between atoms: C_9  and  C_12 
REMARK    3  A    between atoms: C_12  and  C_13 
REMARK    4  A    between atoms: C_13  and  N_14 
REMARK       I    between atoms: N_14  and  C_15 
REMARK    5  A    between atoms: C_15  and  C_17 
ROOT
HETATM    1  C   UNK N   1      34.832  15.660  11.109  0.00  0.00     0.060 C 
ENDROOT
BRANCH   1   2
HETATM    2  C   UNK N   1      35.935  14.657  11.197  0.00  0.00    -0.029 A 
HETATM    3  C   UNK N   1      36.010  13.612  12.074  0.00  0.00     0.001 A 
HETATM    4  C   UNK N   1      37.173  12.954  11.804  0.00  0.00     0.043 A 
HETATM    5  C   UNK N   1      35.140  13.201  13.077  0.00  0.00     0.051 A 
HETATM    6  C   UNK N   1      37.560  11.825  12.520  0.00  0.00     0.033 A 
HETATM    7  N   UNK N   1      37.841  13.542  10.793  0.00  0.00    -0.365 N 
HETATM    8  C   UNK N   1      36.708  11.383  13.550  0.00  0.00     0.039 A 
HETATM    9  C   UNK N   1      35.494  12.071  13.834  0.00  0.00     0.069 A 
HETATM   10  C   UNK N   1      37.083  14.600  10.411  0.00  0.00     0.096 A 
HETATM   11  H   UNK N   1      38.703  13.261  10.411  0.00  0.00     0.165 HD
BRANCH   9  12
HETATM   12  O   UNK N   1      34.671  11.672  14.831  0.00  0.00    -0.356 OA
HETATM   13  C   UNK N   1      33.688  10.724  14.661  0.00  0.00     0.210 C 
ENDBRANCH   9  12
ENDBRANCH   1   2
BRANCH   1  14
HETATM   14  C   UNK N   1      34.620  16.115   9.674  0.00  0.00     0.127 C 
BRANCH  14  15
HETATM   15  N   UNK N   1      35.075  17.474   9.513  0.00  0.00    -0.355 N 
HETATM   16  C   UNK N   1      34.711  18.292   8.493  0.00  0.00     0.275 C 
HETATM   17  O   UNK N   1      35.133  19.437   8.489  0.00  0.00    -0.265 OA
HETATM   18  H   UNK N   1      35.692  17.833  10.190  0.00  0.00     0.162 HD
BRANCH  16  19
HETATM   19  C   UNK N   1      33.801  17.855   7.400  0.00  0.00     0.146 A 
HETATM   20  C   UNK N   1      32.447  17.634   7.685  0.00  0.00     0.097 A 
HETATM   21  C   UNK N   1      31.602  17.203   6.667  0.00  0.00     0.176 A 
HETATM   22  O   UNK N   1      30.428  16.987   6.897  0.00  0.00    -0.288 OA
HETATM   23  C   UNK N   1      32.113  17.017   5.386  0.00  0.00     0.079 A 
HETATM   24  C   UNK N   1      33.467  17.263   5.164  0.00  0.00     0.147 A 
HETATM   25  O   UNK N   1      34.255  17.661   6.161  0.00  0.00    -0.317 OA
ENDBRANCH  16  19
ENDBRANCH  14  15
ENDBRANCH   1  14
TORSDOF 5
ENDMDL
MODEL 3
REMARK VINA RESULT:      -6.9     10.939     13.322
REMARK  5 active torsions:
REMARK  status: ('A' for Active; 'I' for Inactive)
REMARK    1  A    between atoms: O_2  and  C_3 
REMARK    2  A    between atoms: C_9  and  C_12 
REMARK    3  A    between atoms: C_12  and  C_13 
REMARK    4  A    between atoms: C_13  and  N_14 
REMARK       I    between atoms: N_14  and  C_15 
REMARK    5  A    between atoms: C_15  and  C_17 
ROOT
HETATM    1  C   UNK N   1      29.671  16.874   5.967  0.00  0.00     0.060 C 
ENDROOT
BRANCH   1   2
HETATM    2  C   UNK N   1      28.883  17.913   6.697  0.00  0.00    -0.029 A 
HETATM    3  C   UNK N   1      28.102  18.881   6.131  0.00  0.00     0.001 A 
HETATM    4  C   UNK N   1      27.567  19.604   7.156  0.00  0.00     0.043 A 
HETATM    5  C   UNK N   1      27.830  19.168   4.799  0.00  0.00     0.051 A 
HETATM    6  C   UNK N   1      26.711  20.677   6.927  0.00  0.00     0.033 A 
HETATM    7  N   UNK N   1      27.979  19.136   8.349  0.00  0.00    -0.365 N 
HETATM    8  C   UNK N   1      26.418  21.003   5.589  0.00  0.00     0.039 A 
HETATM    9  C   UNK N   1      26.978  20.250   4.519  0.00  0.00     0.069 A 
HETATM   10  C   UNK N   1      28.797  18.088   8.076  0.00  0.00     0.096 A 
HETATM   11  H   UNK N   1      27.737  19.483   9.237  0.00  0.00     0.165 HD
BRANCH   9  12
HETATM   12  O   UNK N   1      26.722  20.559   3.226  0.00  0.00    -0.356 OA
HETATM   13  C   UNK N   1      25.478  20.429   2.653  0.00  0.00     0.210 C 
ENDBRANCH   9  12
ENDBRANCH   1   2
BRANCH   1  14
HETATM   14  C   UNK N   1      31.023  17.418   5.535  0.00  0.00     0.127 C 
BRANCH  14  15
HETATM   15  N   UNK N   1      31.827  16.360   4.975  0.00  0.00    -0.355 N 
HETATM   16  C   UNK N   1      32.914  15.818   5.578  0.00  0.00     0.275 C 
HETATM   17  O   UNK N   1      33.489  14.898   5.018  0.00  0.00    -0.265 OA
HETATM   18  H   UNK N   1      31.568  16.007   4.094  0.00  0.00     0.162 HD
BRANCH  16  19
HETATM   19  C   UNK N   1      33.415  16.284   6.900  0.00  0.00     0.146 A 
HETATM   20  C   UNK N   1      34.054  17.527   6.990  0.00  0.00     0.097 A 
HETATM   21  C   UNK N   1      34.541  17.951   8.222  0.00  0.00     0.176 A 
HETATM   22  O   UNK N   1      35.116  19.018   8.318  0.00  0.00    -0.288 OA
HETATM   23  C   UNK N   1      34.370  17.141   9.342  0.00  0.00     0.079 A 
HETATM   24  C   UNK N   1      33.716  15.919   9.189  0.00  0.00     0.147 A 
HETATM   25  O   UNK N   1      33.273  15.533   7.993  0.00  0.00    -0.317 OA
ENDBRANCH  16  19
ENDBRANCH  14  15
ENDBRANCH   1  14
TORSDOF 5
ENDMDL
MODEL 4
REMARK VINA RESULT:      -6.7     10.690     12.376
REMARK  5 active torsions:
REMARK  status: ('A' for Active; 'I' for Inactive)
REMARK    1  A    between atoms: O_2  and  C_3 
REMARK    2  A    between atoms: C_9  and  C_12 
REMARK    3  A    between atoms: C_12  and  C_13 
REMARK    4  A    between atoms: C_13  and  N_14 
REMARK       I    between atoms: N_14  and  C_15 
REMARK    5  A    between atoms: C_15  and  C_17 
ROOT
HETATM    1  C   UNK N   1      30.251  17.387   7.691  0.00  0.00     0.060 C 
ENDROOT
BRANCH   1   2
HETATM    2  C   UNK N   1      29.562  17.229   6.375  0.00  0.00    -0.029 A 
HETATM    3  C   UNK N   1      28.698  18.119   5.803  0.00  0.00     0.001 A 
HETATM    4  C   UNK N   1      28.312  17.582   4.610  0.00  0.00     0.043 A 
HETATM    5  C   UNK N   1      28.234  19.351   6.247  0.00  0.00     0.051 A 
HETATM    6  C   UNK N   1      27.426  18.240   3.763  0.00  0.00     0.033 A 
HETATM    7  N   UNK N   1      28.894  16.386   4.405  0.00  0.00    -0.365 N 
HETATM    8  C   UNK N   1      26.928  19.489   4.182  0.00  0.00     0.039 A 
HETATM    9  C   UNK N   1      27.329  20.049   5.428  0.00  0.00     0.069 A 
HETATM   10  C   UNK N   1      29.670  16.156   5.494  0.00  0.00     0.096 A 
HETATM   11  H   UNK N   1      28.779  15.798   3.624  0.00  0.00     0.165 HD
BRANCH   9  12
HETATM   12  O   UNK N   1      26.848  21.239   5.857  0.00  0.00    -0.356 OA
HETATM   13  C   UNK N   1      26.337  21.434   7.119  0.00  0.00     0.210 C 
ENDBRANCH   9  12
ENDBRANCH   1   2
BRANCH   1  14
HETATM   14  C   UNK N   1      31.519  16.551   7.748  0.00  0.00     0.127 C 
BRANCH  14  15
HETATM   15  N   UNK N   1      32.673  17.408   7.861  0.00  0.00    -0.355 N 
HETATM   16  C   UNK N   1      33.615  17.563   6.897  0.00  0.00     0.275 C 
HETATM   17  O   UNK N   1      34.526  18.350   7.097  0.00  0.00    -0.265 OA
HETATM   18  H   UNK N   1      32.785  17.916   8.696  0.00  0.00     0.162 HD
BRANCH  16  19
HETATM   19  C   UNK N   1      33.565  16.832   5.601  0.00  0.00     0.146 A 
HETATM   20  C   UNK N   1      32.884  17.406   4.519  0.00  0.00     0.097 A 
HETATM   21  C   UNK N   1      32.819  16.711   3.316  0.00  0.00     0.176 A 
HETATM   22  O   UNK N   1      32.217  17.182   2.369  0.00  0.00    -0.288 OA
HETATM   23  C   UNK N   1      33.441  15.471   3.205  0.00  0.00     0.079 A 
HETATM   24  C   UNK N   1      34.111  14.958   4.316  0.00  0.00     0.147 A 
HETATM   25  O   UNK N   1      34.145  15.640   5.459  0.00  0.00    -0.317 OA
ENDBRANCH  16  19
ENDBRANCH  14  15
ENDBRANCH   1  14
TORSDOF 5
ENDMDL
MODEL 5
REMARK VINA RESULT:      -6.7     12.153     14.804
REMARK  5 active torsions:
REMARK  status: ('A' for Active; 'I' for Inactive)
REMARK    1  A    between atoms: O_2  and  C_3 
REMARK    2  A    between atoms: C_9  and  C_12 
REMARK    3  A    between atoms: C_12  and  C_13 
REMARK    4  A    between atoms: C_13  and  N_14 
REMARK       I    between atoms: N_14  and  C_15 
REMARK    5  A    between atoms: C_15  and  C_17 
ROOT
HETATM    1  C   UNK N   1      30.647  16.947   8.270  0.00  0.00     0.060 C 
ENDROOT
BRANCH   1   2
HETATM    2  C   UNK N   1      29.470  17.758   7.837  0.00  0.00    -0.029 A 
HETATM    3  C   UNK N   1      28.950  17.821   6.575  0.00  0.00     0.001 A 
HETATM    4  C   UNK N   1      27.886  18.671   6.629  0.00  0.00     0.043 A 
HETATM    5  C   UNK N   1      29.339  17.191   5.398  0.00  0.00     0.051 A 
HETATM    6  C   UNK N   1      27.121  18.960   5.503  0.00  0.00     0.033 A 
HETATM    7  N   UNK N   1      27.712  19.153   7.874  0.00  0.00    -0.365 N 
HETATM    8  C   UNK N   1      27.489  18.346   4.290  0.00  0.00     0.039 A 
HETATM    9  C   UNK N   1      28.601  17.461   4.233  0.00  0.00     0.069 A 
HETATM   10  C   UNK N   1      28.689  18.595   8.631  0.00  0.00     0.096 A 
HETATM   11  H   UNK N   1      27.017  19.783   8.172  0.00  0.00     0.165 HD
BRANCH   9  12
HETATM   12  O   UNK N   1      28.981  16.875   3.073  0.00  0.00    -0.356 OA
HETATM   13  C   UNK N   1      30.099  16.081   2.962  0.00  0.00     0.210 C 
ENDBRANCH   9  12
ENDBRANCH   1   2
BRANCH   1  14
HETATM   14  C   UNK N   1      31.792  17.840   8.717  0.00  0.00     0.127 C 
BRANCH  14  15
HETATM   15  N   UNK N   1      32.702  18.067   7.622  0.00  0.00    -0.355 N 
HETATM   16  C   UNK N   1      33.973  17.597   7.566  0.00  0.00     0.275 C 
HETATM   17  O   UNK N   1      34.632  17.823   6.564  0.00  0.00    -0.265 OA
HETATM   18  H   UNK N   1      32.377  18.601   6.861  0.00  0.00     0.162 HD
BRANCH  16  19
HETATM   19  C   UNK N   1      34.581  16.797   8.664  0.00  0.00     0.146 A 
HETATM   20  C   UNK N   1      34.652  15.403   8.536  0.00  0.00     0.097 A 
HETATM   21  C   UNK N   1      35.201  14.656   9.573  0.00  0.00     0.176 A 
HETATM   22  O   UNK N   1      35.254  13.444   9.491  0.00  0.00    -0.288 OA
HETATM   23  C   UNK N   1      35.681  15.305  10.707  0.00  0.00     0.079 A 
HETATM   24  C   UNK N   1      35.590  16.695  10.770  0.00  0.00     0.147 A 
HETATM   25  O   UNK N   1      35.047  17.384   9.767  0.00  0.00    -0.317 OA
ENDBRANCH  16  19
ENDBRANCH  14  15
ENDBRANCH   1  14
TORSDOF 5
ENDMDL
MODEL 6
REMARK VINA RESULT:      -6.7      3.050      4.561
REMARK  5 active torsions:
REMARK  status: ('A' for Active; 'I' for Inactive)
REMARK    1  A    between atoms: O_2  and  C_3 
REMARK    2  A    between atoms: C_9  and  C_12 
REMARK    3  A    between atoms: C_12  and  C_13 
REMARK    4  A    between atoms: C_13  and  N_14 
REMARK       I    between atoms: N_14  and  C_15 
REMARK    5  A    between atoms: C_15  and  C_17 
ROOT
HETATM    1  C   UNK N   1      25.521  26.043  -6.313  0.00  0.00     0.060 C 
ENDROOT
BRANCH   1   2
HETATM    2  C   UNK N   1      25.867  27.263  -5.522  0.00  0.00    -0.029 A 
HETATM    3  C   UNK N   1      26.815  28.192  -5.843  0.00  0.00     0.001 A 
HETATM    4  C   UNK N   1      26.795  29.133  -4.857  0.00  0.00     0.043 A 
HETATM    5  C   UNK N   1      27.682  28.272  -6.927  0.00  0.00     0.051 A 
HETATM    6  C   UNK N   1      27.645  30.235  -4.877  0.00  0.00     0.033 A 
HETATM    7  N   UNK N   1      25.874  28.836  -3.921  0.00  0.00    -0.365 N 
HETATM    8  C   UNK N   1      28.543  30.346  -5.956  0.00  0.00     0.039 A 
HETATM    9  C   UNK N   1      28.566  29.363  -6.985  0.00  0.00     0.069 A 
HETATM   10  C   UNK N   1      25.294  27.677  -4.323  0.00  0.00     0.096 A 
HETATM   11  H   UNK N   1      25.665  29.354  -3.110  0.00  0.00     0.165 HD
BRANCH   9  12
HETATM   12  O   UNK N   1      29.434  29.442  -8.021  0.00  0.00    -0.356 OA
HETATM   13  C   UNK N   1      30.276  30.512  -8.216  0.00  0.00     0.210 C 
ENDBRANCH   9  12
ENDBRANCH   1   2
BRANCH   1  14
HETATM   14  C   UNK N   1      26.478  24.903  -6.005  0.00  0.00     0.127 C 
BRANCH  14  15
HETATM   15  N   UNK N   1      26.221  24.381  -4.686  0.00  0.00    -0.355 N 
HETATM   16  C   UNK N   1      27.113  24.397  -3.664  0.00  0.00     0.275 C 
HETATM   17  O   UNK N   1      26.761  23.960  -2.580  0.00  0.00    -0.265 OA
HETATM   18  H   UNK N   1      25.336  23.986  -4.516  0.00  0.00     0.162 HD
BRANCH  16  19
HETATM   19  C   UNK N   1      28.488  24.949  -3.807  0.00  0.00     0.146 A 
HETATM   20  C   UNK N   1      29.568  24.066  -3.941  0.00  0.00     0.097 A 
HETATM   21  C   UNK N   1      30.855  24.583  -4.052  0.00  0.00     0.176 A 
HETATM   22  O   UNK N   1      31.808  23.834  -4.149  0.00  0.00    -0.288 OA
HETATM   23  C   UNK N   1      31.042  25.962  -4.045  0.00  0.00     0.079 A 
HETATM   24  C   UNK N   1      29.926  26.788  -3.919  0.00  0.00     0.147 A 
HETATM   25  O   UNK N   1      28.707  26.264  -3.800  0.00  0.00    -0.317 OA
ENDBRANCH  16  19
ENDBRANCH  14  15
ENDBRANCH   1  14
TORSDOF 5
ENDMDL
MODEL 7
REMARK VINA RESULT:      -6.7     20.279     23.548
REMARK  5 active torsions:
REMARK  status: ('A' for Active; 'I' for Inactive)
REMARK    1  A    between atoms: O_2  and  C_3 
REMARK    2  A    between atoms: C_9  and  C_12 
REMARK    3  A    between atoms: C_12  and  C_13 
REMARK    4  A    between atoms: C_13  and  N_14 
REMARK       I    between atoms: N_14  and  C_15 
REMARK    5  A    between atoms: C_15  and  C_17 
ROOT
HETATM    1  C   UNK N   1      34.926  12.360  13.987  0.00  0.00     0.060 C 
ENDROOT
BRANCH   1   2
HETATM    2  C   UNK N   1      35.038  11.581  15.257  0.00  0.00    -0.029 A 
HETATM    3  C   UNK N   1      35.120  12.100  16.518  0.00  0.00     0.001 A 
HETATM    4  C   UNK N   1      35.203  11.042  17.375  0.00  0.00     0.043 A 
HETATM    5  C   UNK N   1      35.124  13.417  16.963  0.00  0.00     0.051 A 
HETATM    6  C   UNK N   1      35.297  11.219  18.752  0.00  0.00     0.033 A 
HETATM    7  N   UNK N   1      35.181   9.873  16.706  0.00  0.00    -0.365 N 
HETATM    8  C   UNK N   1      35.311  12.540  19.239  0.00  0.00     0.039 A 
HETATM    9  C   UNK N   1      35.227  13.645  18.346  0.00  0.00     0.069 A 
HETATM   10  C   UNK N   1      35.081  10.196  15.392  0.00  0.00     0.096 A 
HETATM   11  H   UNK N   1      35.229   8.970  17.093  0.00  0.00     0.165 HD
BRANCH   9  12
HETATM   12  O   UNK N   1      35.257  14.922  18.794  0.00  0.00    -0.356 OA
HETATM   13  C   UNK N   1      36.003  15.911  18.197  0.00  0.00     0.210 C 
ENDBRANCH   9  12
ENDBRANCH   1   2
BRANCH   1  14
HETATM   14  C   UNK N   1      36.039  13.389  13.876  0.00  0.00     0.127 C 
BRANCH  14  15
HETATM   15  N   UNK N   1      37.049  12.930  12.955  0.00  0.00    -0.355 N 
HETATM   16  C   UNK N   1      37.105  13.269  11.643  0.00  0.00     0.275 C 
HETATM   17  O   UNK N   1      38.035  12.847  10.974  0.00  0.00    -0.265 OA
HETATM   18  H   UNK N   1      37.746  12.329  13.303  0.00  0.00     0.162 HD
BRANCH  16  19
HETATM   19  C   UNK N   1      36.096  14.153  10.998  0.00  0.00     0.146 A 
HETATM   20  C   UNK N   1      36.341  15.531  10.924  0.00  0.00     0.097 A 
HETATM   21  C   UNK N   1      35.386  16.358  10.342  0.00  0.00     0.176 A 
HETATM   22  O   UNK N   1      35.571  17.559  10.286  0.00  0.00    -0.288 OA
HETATM   23  C   UNK N   1      34.217  15.802   9.831  0.00  0.00     0.079 A 
HETATM   24  C   UNK N   1      34.036  14.422   9.926  0.00  0.00     0.147 A 
HETATM   25  O   UNK N   1      34.962  13.657  10.502  0.00  0.00    -0.317 OA
ENDBRANCH  16  19
ENDBRANCH  14  15
ENDBRANCH   1  14
TORSDOF 5
ENDMDL
MODEL 8
REMARK VINA RESULT:      -6.6     10.323     13.879
REMARK  5 active torsions:
REMARK  status: ('A' for Active; 'I' for Inactive)
REMARK    1  A    between atoms: O_2  and  C_3 
REMARK    2  A    between atoms: C_9  and  C_12 
REMARK    3  A    between atoms: C_12  and  C_13 
REMARK    4  A    between atoms: C_13  and  N_14 
REMARK       I    between atoms: N_14  and  C_15 
REMARK    5  A    between atoms: C_15  and  C_17 
ROOT
HETATM    1  C   UNK N   1      28.524  16.931   6.897  0.00  0.00     0.060 C 
ENDROOT
BRANCH   1   2
HETATM    2  C   UNK N   1      29.795  17.313   7.584  0.00  0.00    -0.029 A 
HETATM    3  C   UNK N   1      31.049  17.280   7.041  0.00  0.00     0.001 A 
HETATM    4  C   UNK N   1      31.908  17.712   8.007  0.00  0.00     0.043 A 
HETATM    5  C   UNK N   1      31.483  16.905   5.775  0.00  0.00     0.051 A 
HETATM    6  C   UNK N   1      33.278  17.805   7.782  0.00  0.00     0.033 A 
HETATM    7  N   UNK N   1      31.250  18.014   9.143  0.00  0.00    -0.365 N 
HETATM    8  C   UNK N   1      33.757  17.426   6.513  0.00  0.00     0.039 A 
HETATM    9  C   UNK N   1      32.861  16.973   5.504  0.00  0.00     0.069 A 
HETATM   10  C   UNK N   1      29.939  17.768   8.891  0.00  0.00     0.096 A 
HETATM   11  H   UNK N   1      31.641  18.345   9.983  0.00  0.00     0.165 HD
BRANCH   9  12
HETATM   12  O   UNK N   1      33.303  16.588   4.285  0.00  0.00    -0.356 OA
HETATM   13  C   UNK N   1      32.734  17.016   3.108  0.00  0.00     0.210 C 
ENDBRANCH   9  12
ENDBRANCH   1   2
BRANCH   1  14
HETATM   14  C   UNK N   1      28.197  17.902   5.775  0.00  0.00     0.127 C 
BRANCH  14  15
HETATM   15  N   UNK N   1      28.192  19.254   6.274  0.00  0.00    -0.355 N 
HETATM   16  C   UNK N   1      27.258  20.187   5.963  0.00  0.00     0.275 C 
HETATM   17  O   UNK N   1      27.342  21.288   6.483  0.00  0.00    -0.265 OA
HETATM   18  H   UNK N   1      28.918  19.519   6.883  0.00  0.00     0.162 HD
BRANCH  16  19
HETATM   19  C   UNK N   1      26.127  19.911   5.036  0.00  0.00     0.146 A 
HETATM   20  C   UNK N   1      26.129  20.494   3.761  0.00  0.00     0.097 A 
HETATM   21  C   UNK N   1      25.060  20.254   2.905  0.00  0.00     0.176 A 
HETATM   22  O   UNK N   1      25.032  20.766   1.802  0.00  0.00    -0.288 OA
HETATM   23  C   UNK N   1      24.020  19.428   3.322  0.00  0.00     0.079 A 
HETATM   24  C   UNK N   1      24.081  18.869   4.598  0.00  0.00     0.147 A 
HETATM   25  O   UNK N   1      25.111  19.129   5.402  0.00  0.00    -0.317 OA
ENDBRANCH  16  19
ENDBRANCH  14  15
ENDBRANCH   1  14
TORSDOF 5
ENDMDL
MODEL 9
REMARK VINA RESULT:      -6.6     10.458     13.371
REMARK  5 active torsions:
REMARK  status: ('A' for Active; 'I' for Inactive)
REMARK    1  A    between atoms: O_2  and  C_3 
REMARK    2  A    between atoms: C_9  and  C_12 
REMARK    3  A    between atoms: C_12  and  C_13 
REMARK    4  A    between atoms: C_13  and  N_14 
REMARK       I    between atoms: N_14  and  C_15 
REMARK    5  A    between atoms: C_15  and  C_17 
ROOT
HETATM    1  C   UNK N   1      26.680  20.327   3.547  0.00  0.00     0.060 C 
ENDROOT
BRANCH   1   2
HETATM    2  C   UNK N   1      26.944  20.158   5.008  0.00  0.00    -0.029 A 
HETATM    3  C   UNK N   1      27.802  19.260   5.576  0.00  0.00     0.001 A 
HETATM    4  C   UNK N   1      27.738  19.451   6.924  0.00  0.00     0.043 A 
HETATM    5  C   UNK N   1      28.627  18.300   5.001  0.00  0.00     0.051 A 
HETATM    6  C   UNK N   1      28.498  18.694   7.809  0.00  0.00     0.033 A 
HETATM    7  N   UNK N   1      26.870  20.433   7.234  0.00  0.00    -0.365 N 
HETATM    8  C   UNK N   1      29.341  17.706   7.265  0.00  0.00     0.039 A 
HETATM    9  C   UNK N   1      29.407  17.503   5.857  0.00  0.00     0.069 A 
HETATM   10  C   UNK N   1      26.371  20.878   6.053  0.00  0.00     0.096 A 
HETATM   11  H   UNK N   1      26.645  20.761   8.134  0.00  0.00     0.165 HD
BRANCH   9  12
HETATM   12  O   UNK N   1      30.197  16.547   5.316  0.00  0.00    -0.356 OA
HETATM   13  C   UNK N   1      30.682  15.477   6.031  0.00  0.00     0.210 C 
ENDBRANCH   9  12
ENDBRANCH   1   2
BRANCH   1  14
HETATM   14  C   UNK N   1      25.411  19.599   3.134  0.00  0.00     0.127 C 
BRANCH  14  15
HETATM   15  N   UNK N   1      24.391  20.550   2.770  0.00  0.00    -0.355 N 
HETATM   16  C   UNK N   1      23.069  20.403   3.039  0.00  0.00     0.275 C 
HETATM   17  O   UNK N   1      22.307  21.299   2.715  0.00  0.00    -0.265 OA
HETATM   18  H   UNK N   1      24.672  21.363   2.292  0.00  0.00     0.162 HD
BRANCH  16  19
HETATM   19  C   UNK N   1      22.522  19.207   3.737  0.00  0.00     0.146 A 
HETATM   20  C   UNK N   1      21.404  18.554   3.199  0.00  0.00     0.097 A 
HETATM   21  C   UNK N   1      20.880  17.451   3.864  0.00  0.00     0.176 A 
HETATM   22  O   UNK N   1      19.900  16.881   3.424  0.00  0.00    -0.288 OA
HETATM   23  C   UNK N   1      21.483  17.008   5.038  0.00  0.00     0.079 A 
HETATM   24  C   UNK N   1      22.598  17.695   5.517  0.00  0.00     0.147 A 
HETATM   25  O   UNK N   1      23.069  18.757   4.866  0.00  0.00    -0.317 OA
ENDBRANCH  16  19
ENDBRANCH  14  15
ENDBRANCH   1  14
TORSDOF 5
ENDMDL
