MODEL 1
REMARK VINA RESULT:      -5.6      0.000      0.000
REMARK  0 active torsions:
REMARK  status: ('A' for Active; 'I' for Inactive)
ROOT
HETATM    1  C   UNK N   1      24.560  27.035  -5.588  0.00  0.00     0.030 C 
HETATM    2  C   UNK N   1      28.264  26.147  -4.302  0.00  0.00     0.030 C 
HETATM    3  C   UNK N   1      27.303  29.126  -4.327  0.00  0.00     0.036 C 
HETATM    4  C   UNK N   1      27.551  28.454  -2.994  0.00  0.00     0.036 C 
HETATM    5  C   UNK N   1      25.969  28.482  -4.712  0.00  0.00     0.141 C 
HETATM    6  C   UNK N   1      26.453  27.395  -3.018  0.00  0.00     0.141 C 
HETATM    7  C   UNK N   1      26.101  25.805  -6.275  0.00  0.00     0.278 C 
HETATM    8  C   UNK N   1      26.170  25.025  -4.262  0.00  0.00     0.278 C 
HETATM    9  C   UNK N   1      26.114  27.105  -5.470  0.00  0.00     0.090 C 
HETATM   10  C   UNK N   1      26.744  26.397  -4.181  0.00  0.00     0.090 C 
HETATM   11  O   UNK N   1      26.075  25.774  -7.498  0.00  0.00    -0.264 OA
HETATM   12  O   UNK N   1      26.238  24.192  -3.372  0.00  0.00    -0.264 OA
HETATM   13  O   UNK N   1      25.384  28.155  -3.466  0.00  0.00    -0.378 OA
HETATM   14  O   UNK N   1      25.973  24.687  -5.534  0.00  0.00    -0.244 OA
ENDROOT
TORSDOF 0
ENDMDL
MODEL 2
REMARK VINA RESULT:      -5.6     16.229     17.894
REMARK  0 active torsions:
REMARK  status: ('A' for Active; 'I' for Inactive)
ROOT
HETATM    1  C   UNK N   1      32.376  17.932   8.312  0.00  0.00     0.030 C 
HETATM    2  C   UNK N   1      35.131  15.273   7.083  0.00  0.00     0.030 C 
HETATM    3  C   UNK N   1      33.339  14.616   9.563  0.00  0.00     0.036 C 
HETATM    4  C   UNK N   1      33.160  13.800   8.302  0.00  0.00     0.036 C 
HETATM    5  C   UNK N   1      32.639  15.913   9.149  0.00  0.00     0.141 C 
HETATM    6  C   UNK N   1      32.631  14.876   7.358  0.00  0.00     0.141 C 
HETATM    7  C   UNK N   1      34.376  18.051   7.720  0.00  0.00     0.278 C 
HETATM    8  C   UNK N   1      33.775  16.896   5.997  0.00  0.00     0.278 C 
HETATM    9  C   UNK N   1      33.575  16.936   8.394  0.00  0.00     0.090 C 
HETATM   10  C   UNK N   1      33.743  15.949   7.147  0.00  0.00     0.090 C 
HETATM   11  O   UNK N   1      34.925  18.951   8.341  0.00  0.00    -0.264 OA
HETATM   12  O   UNK N   1      33.707  16.564   4.824  0.00  0.00    -0.264 OA
HETATM   13  O   UNK N   1      31.699  15.491   8.180  0.00  0.00    -0.378 OA
HETATM   14  O   UNK N   1      34.312  18.053   6.375  0.00  0.00    -0.244 OA
ENDROOT
TORSDOF 0
ENDMDL
MODEL 3
REMARK VINA RESULT:      -5.5     15.859     17.692
REMARK  0 active torsions:
REMARK  status: ('A' for Active; 'I' for Inactive)
ROOT
HETATM    1  C   UNK N   1      34.586  16.527   9.198  0.00  0.00     0.030 C 
HETATM    2  C   UNK N   1      33.274  17.434   5.508  0.00  0.00     0.030 C 
HETATM    3  C   UNK N   1      35.283  15.067   5.901  0.00  0.00     0.036 C 
HETATM    4  C   UNK N   1      33.873  14.755   5.451  0.00  0.00     0.036 C 
HETATM    5  C   UNK N   1      35.036  15.367   7.382  0.00  0.00     0.141 C 
HETATM    6  C   UNK N   1      33.093  15.186   6.690  0.00  0.00     0.141 C 
HETATM    7  C   UNK N   1      34.331  18.297   8.121  0.00  0.00     0.278 C 
HETATM    8  C   UNK N   1      32.344  17.569   7.691  0.00  0.00     0.278 C 
HETATM    9  C   UNK N   1      34.644  16.869   7.677  0.00  0.00     0.090 C 
HETATM   10  C   UNK N   1      33.265  16.725   6.881  0.00  0.00     0.090 C 
HETATM   11  O   UNK N   1      35.192  19.099   8.457  0.00  0.00    -0.264 OA
HETATM   12  O   UNK N   1      31.131  17.602   7.551  0.00  0.00    -0.264 OA
HETATM   13  O   UNK N   1      33.874  14.619   7.685  0.00  0.00    -0.378 OA
HETATM   14  O   UNK N   1      33.018  18.567   8.256  0.00  0.00    -0.244 OA
ENDROOT
TORSDOF 0
ENDMDL
MODEL 4
REMARK VINA RESULT:      -5.4     16.405     18.076
REMARK  0 active torsions:
REMARK  status: ('A' for Active; 'I' for Inactive)
ROOT
HETATM    1  C   UNK N   1      35.151  15.477   6.365  0.00  0.00     0.030 C 
HETATM    2  C   UNK N   1      32.291  17.366   8.467  0.00  0.00     0.030 C 
HETATM    3  C   UNK N   1      32.658  14.274   8.778  0.00  0.00     0.036 C 
HETATM    4  C   UNK N   1      32.983  15.165   9.956  0.00  0.00     0.036 C 
HETATM    5  C   UNK N   1      33.880  14.531   7.894  0.00  0.00     0.141 C 
HETATM    6  C   UNK N   1      34.178  15.929   9.393  0.00  0.00     0.141 C 
HETATM    7  C   UNK N   1      33.707  16.920   5.921  0.00  0.00     0.278 C 
HETATM    8  C   UNK N   1      34.443  17.970   7.659  0.00  0.00     0.278 C 
HETATM    9  C   UNK N   1      33.735  15.785   6.945  0.00  0.00     0.090 C 
HETATM   10  C   UNK N   1      33.698  16.793   8.186  0.00  0.00     0.090 C 
HETATM   11  O   UNK N   1      33.334  16.771   4.765  0.00  0.00    -0.264 OA
HETATM   12  O   UNK N   1      34.818  18.913   8.338  0.00  0.00    -0.264 OA
HETATM   13  O   UNK N   1      34.891  14.887   8.819  0.00  0.00    -0.378 OA
HETATM   14  O   UNK N   1      34.265  18.071   6.344  0.00  0.00    -0.244 OA
ENDROOT
TORSDOF 0
ENDMDL
MODEL 5
REMARK VINA RESULT:      -5.4     24.429     26.027
REMARK  0 active torsions:
REMARK  status: ('A' for Active; 'I' for Inactive)
ROOT
HETATM    1  C   UNK N   1      36.546  12.047  12.814  0.00  0.00     0.030 C 
HETATM    2  C   UNK N   1      34.747  13.281  16.191  0.00  0.00     0.030 C 
HETATM    3  C   UNK N   1      34.510  10.287  15.312  0.00  0.00     0.036 C 
HETATM    4  C   UNK N   1      35.292  10.616  16.565  0.00  0.00     0.036 C 
HETATM    5  C   UNK N   1      35.511  10.730  14.242  0.00  0.00     0.141 C 
HETATM    6  C   UNK N   1      36.451  11.403  15.959  0.00  0.00     0.141 C 
HETATM    7  C   UNK N   1      35.380  13.697  13.343  0.00  0.00     0.278 C 
HETATM    8  C   UNK N   1      36.719  13.912  15.023  0.00  0.00     0.278 C 
HETATM    9  C   UNK N   1      35.411  12.260  13.863  0.00  0.00     0.090 C 
HETATM   10  C   UNK N   1      35.890  12.711  15.321  0.00  0.00     0.090 C 
HETATM   11  O   UNK N   1      34.716  14.046  12.375  0.00  0.00    -0.264 OA
HETATM   12  O   UNK N   1      37.438  14.475  15.834  0.00  0.00    -0.264 OA
HETATM   13  O   UNK N   1      36.766  10.591  14.880  0.00  0.00    -0.378 OA
HETATM   14  O   UNK N   1      36.255  14.529  13.940  0.00  0.00    -0.244 OA
ENDROOT
TORSDOF 0
ENDMDL
MODEL 6
REMARK VINA RESULT:      -5.3     15.411     17.015
REMARK  0 active torsions:
REMARK  status: ('A' for Active; 'I' for Inactive)
ROOT
HETATM    1  C   UNK N   1      33.646  17.732   8.212  0.00  0.00     0.030 C 
HETATM    2  C   UNK N   1      31.102  15.508   6.033  0.00  0.00     0.030 C 
HETATM    3  C   UNK N   1      33.064  17.478   4.596  0.00  0.00     0.036 C 
HETATM    4  C   UNK N   1      33.259  15.990   4.403  0.00  0.00     0.036 C 
HETATM    5  C   UNK N   1      33.617  17.645   6.013  0.00  0.00     0.141 C 
HETATM    6  C   UNK N   1      33.639  15.584   5.825  0.00  0.00     0.141 C 
HETATM    7  C   UNK N   1      31.619  17.250   8.354  0.00  0.00     0.278 C 
HETATM    8  C   UNK N   1      32.245  15.200   8.094  0.00  0.00     0.278 C 
HETATM    9  C   UNK N   1      32.553  17.391   7.152  0.00  0.00     0.090 C 
HETATM   10  C   UNK N   1      32.421  15.845   6.764  0.00  0.00     0.090 C 
HETATM   11  O   UNK N   1      31.016  18.193   8.849  0.00  0.00    -0.264 OA
HETATM   12  O   UNK N   1      32.289  13.995   8.291  0.00  0.00    -0.264 OA
HETATM   13  O   UNK N   1      34.546  16.585   6.136  0.00  0.00    -0.378 OA
HETATM   14  O   UNK N   1      31.619  16.030   8.924  0.00  0.00    -0.244 OA
ENDROOT
TORSDOF 0
ENDMDL
MODEL 7
REMARK VINA RESULT:      -5.3      1.843      3.346
REMARK  0 active torsions:
REMARK  status: ('A' for Active; 'I' for Inactive)
ROOT
HETATM    1  C   UNK N   1      27.301  23.192  -6.359  0.00  0.00     0.030 C 
HETATM    2  C   UNK N   1      27.380  26.601  -4.227  0.00  0.00     0.030 C 
HETATM    3  C   UNK N   1      26.116  26.590  -7.090  0.00  0.00     0.036 C 
HETATM    4  C   UNK N   1      25.212  26.814  -5.899  0.00  0.00     0.036 C 
HETATM    5  C   UNK N   1      26.356  25.083  -6.973  0.00  0.00     0.141 C 
HETATM    6  C   UNK N   1      25.330  25.455  -5.213  0.00  0.00     0.141 C 
HETATM    7  C   UNK N   1      28.739  24.175  -5.205  0.00  0.00     0.278 C 
HETATM    8  C   UNK N   1      27.213  24.293  -3.681  0.00  0.00     0.278 C 
HETATM    9  C   UNK N   1      27.560  24.695  -6.027  0.00  0.00     0.090 C 
HETATM   10  C   UNK N   1      26.803  25.261  -4.737  0.00  0.00     0.090 C 
HETATM   11  O   UNK N   1      29.846  23.964  -5.680  0.00  0.00    -0.264 OA
HETATM   12  O   UNK N   1      26.719  24.234  -2.565  0.00  0.00    -0.264 OA
HETATM   13  O   UNK N   1      25.200  24.613  -6.306  0.00  0.00    -0.378 OA
HETATM   14  O   UNK N   1      28.430  23.823  -3.942  0.00  0.00    -0.244 OA
ENDROOT
TORSDOF 0
ENDMDL
MODEL 8
REMARK VINA RESULT:      -5.3      1.631      3.696
REMARK  0 active torsions:
REMARK  status: ('A' for Active; 'I' for Inactive)
ROOT
HETATM    1  C   UNK N   1      28.742  27.157  -5.046  0.00  0.00     0.030 C 
HETATM    2  C   UNK N   1      24.777  26.852  -5.641  0.00  0.00     0.030 C 
HETATM    3  C   UNK N   1      26.657  24.492  -6.472  0.00  0.00     0.036 C 
HETATM    4  C   UNK N   1      25.688  24.279  -5.330  0.00  0.00     0.036 C 
HETATM    5  C   UNK N   1      27.714  25.352  -5.776  0.00  0.00     0.141 C 
HETATM    6  C   UNK N   1      26.256  25.262  -4.310  0.00  0.00     0.141 C 
HETATM    7  C   UNK N   1      27.266  28.423  -5.808  0.00  0.00     0.278 C 
HETATM    8  C   UNK N   1      26.145  27.936  -4.027  0.00  0.00     0.278 C 
HETATM    9  C   UNK N   1      27.400  26.900  -5.799  0.00  0.00     0.090 C 
HETATM   10  C   UNK N   1      26.110  26.709  -4.872  0.00  0.00     0.090 C 
HETATM   11  O   UNK N   1      27.755  29.134  -6.675  0.00  0.00    -0.264 OA
HETATM   12  O   UNK N   1      25.444  28.120  -3.044  0.00  0.00    -0.264 OA
HETATM   13  O   UNK N   1      27.608  24.977  -4.416  0.00  0.00    -0.378 OA
HETATM   14  O   UNK N   1      26.690  28.942  -4.706  0.00  0.00    -0.244 OA
ENDROOT
TORSDOF 0
ENDMDL
MODEL 9
REMARK VINA RESULT:      -5.2     24.660     26.306
REMARK  0 active torsions:
REMARK  status: ('A' for Active; 'I' for Inactive)
ROOT
HETATM    1  C   UNK N   1      35.325  13.437  16.532  0.00  0.00     0.030 C 
HETATM    2  C   UNK N   1      37.192  11.882  13.329  0.00  0.00     0.030 C 
HETATM    3  C   UNK N   1      36.814  10.141  15.902  0.00  0.00     0.036 C 
HETATM    4  C   UNK N   1      36.065   9.752  14.646  0.00  0.00     0.036 C 
HETATM    5  C   UNK N   1      35.983  11.345  16.352  0.00  0.00     0.141 C 
HETATM    6  C   UNK N   1      35.134  10.953  14.506  0.00  0.00     0.141 C 
HETATM    7  C   UNK N   1      36.795  14.114  15.213  0.00  0.00     0.278 C 
HETATM    8  C   UNK N   1      35.460  13.480  13.639  0.00  0.00     0.278 C 
HETATM    9  C   UNK N   1      36.430  12.713  15.702  0.00  0.00     0.090 C 
HETATM   10  C   UNK N   1      35.994  12.227  14.242  0.00  0.00     0.090 C 
HETATM   11  O   UNK N   1      37.563  14.855  15.813  0.00  0.00    -0.264 OA
HETATM   12  O   UNK N   1      34.843  13.533  12.586  0.00  0.00    -0.264 OA
HETATM   13  O   UNK N   1      34.700  11.085  15.816  0.00  0.00    -0.378 OA
HETATM   14  O   UNK N   1      36.095  14.535  14.141  0.00  0.00    -0.244 OA
ENDROOT
TORSDOF 0
ENDMDL
