MODEL 1
REMARK VINA RESULT:      -6.1      0.000      0.000
REMARK  10 active torsions:
REMARK  status: ('A' for Active; 'I' for Inactive)
REMARK    1  A    between atoms: O_21  and  C_13 
REMARK    2  A    between atoms: O_22  and  C_14 
REMARK    3  A    between atoms: S_27  and  C_15 
REMARK    4  A    between atoms: S_27  and  C_16 
REMARK    5  A    between atoms: P_23  and  O_17 
REMARK    6  A    between atoms: P_23  and  O_18 
REMARK    7  A    between atoms: P_24  and  O_19 
REMARK    8  A    between atoms: P_24  and  O_20 
REMARK    9  A    between atoms: P_23  and  O_21 
REMARK   10  A    between atoms: P_24  and  O_22 
ROOT
HETATM    1  S   UNK N   1      34.500  18.028   8.032  0.00  0.00    -0.091 SA
ENDROOT
BRANCH   1   2
HETATM    2  C   UNK N   1      32.814  17.633   7.595  0.00  0.00     0.005 A 
HETATM    3  C   UNK N   1      31.775  17.901   8.492  0.00  0.00     0.021 A 
HETATM    4  C   UNK N   1      30.462  17.580   8.155  0.00  0.00     0.038 A 
HETATM    5  C   UNK N   1      30.185  16.962   6.933  0.00  0.00     0.079 A 
HETATM    6  C   UNK N   1      31.227  16.704   6.029  0.00  0.00     0.038 A 
HETATM    7  C   UNK N   1      32.539  17.048   6.357  0.00  0.00     0.021 A 
BRANCH   5   8
HETATM    8  O   UNK N   1      28.922  16.578   6.668  0.00  0.00    -0.272 OA
BRANCH   8   9
HETATM    9  P   UNK N   1      27.847  17.556   5.736  0.00  0.00     0.333 P 
HETATM   10  S   UNK N   1      26.275  16.759   5.511  0.00  0.00    -0.007 SA
BRANCH   9  11
HETATM   11  O   UNK N   1      27.598  19.103   6.509  0.00  0.00    -0.319 OA
HETATM   12  C   UNK N   1      27.616  20.073   5.503  0.00  0.00     0.212 C 
ENDBRANCH   9  11
BRANCH   9  13
HETATM   13  O   UNK N   1      28.521  17.848   4.157  0.00  0.00    -0.319 OA
HETATM   14  C   UNK N   1      28.440  16.632   3.477  0.00  0.00     0.212 C 
ENDBRANCH   9  13
ENDBRANCH   8   9
ENDBRANCH   5   8
ENDBRANCH   1   2
BRANCH   1  15
HETATM   15  C   UNK N   1      34.543  16.783   9.310  0.00  0.00     0.005 A 
HETATM   16  C   UNK N   1      33.889  15.565   9.109  0.00  0.00     0.021 A 
HETATM   17  C   UNK N   1      33.939  14.579  10.094  0.00  0.00     0.038 A 
HETATM   18  C   UNK N   1      34.645  14.806  11.289  0.00  0.00     0.079 A 
HETATM   19  C   UNK N   1      35.274  16.039  11.491  0.00  0.00     0.038 A 
HETATM   20  C   UNK N   1      35.223  17.027  10.506  0.00  0.00     0.021 A 
BRANCH  18  21
HETATM   21  O   UNK N   1      34.797  13.834  12.217  0.00  0.00    -0.272 OA
BRANCH  21  22
HETATM   22  P   UNK N   1      35.997  13.872  13.471  0.00  0.00     0.333 P 
HETATM   23  S   UNK N   1      36.508  12.394  14.330  0.00  0.00    -0.007 SA
BRANCH  22  24
HETATM   24  O   UNK N   1      36.950  13.097  12.162  0.00  0.00    -0.319 OA
HETATM   25  C   UNK N   1      36.961  11.672  12.148  0.00  0.00     0.212 C 
ENDBRANCH  22  24
BRANCH  22  26
HETATM   26  O   UNK N   1      34.554  13.044  14.014  0.00  0.00    -0.319 OA
HETATM   27  C   UNK N   1      34.815  12.641  15.337  0.00  0.00     0.212 C 
ENDBRANCH  22  26
ENDBRANCH  21  22
ENDBRANCH  18  21
ENDBRANCH   1  15
TORSDOF 10
ENDMDL
MODEL 2
REMARK VINA RESULT:      -6.1      1.118      1.948
REMARK  10 active torsions:
REMARK  status: ('A' for Active; 'I' for Inactive)
REMARK    1  A    between atoms: O_21  and  C_13 
REMARK    2  A    between atoms: O_22  and  C_14 
REMARK    3  A    between atoms: S_27  and  C_15 
REMARK    4  A    between atoms: S_27  and  C_16 
REMARK    5  A    between atoms: P_23  and  O_17 
REMARK    6  A    between atoms: P_23  and  O_18 
REMARK    7  A    between atoms: P_24  and  O_19 
REMARK    8  A    between atoms: P_24  and  O_20 
REMARK    9  A    between atoms: P_23  and  O_21 
REMARK   10  A    between atoms: P_24  and  O_22 
ROOT
HETATM    1  S   UNK N   1      34.382  18.054   8.007  0.00  0.00    -0.091 SA
ENDROOT
BRANCH   1   2
HETATM    2  C   UNK N   1      32.690  17.600   7.665  0.00  0.00     0.005 A 
HETATM    3  C   UNK N   1      32.369  16.922   6.484  0.00  0.00     0.021 A 
HETATM    4  C   UNK N   1      31.046  16.581   6.212  0.00  0.00     0.038 A 
HETATM    5  C   UNK N   1      30.034  16.941   7.104  0.00  0.00     0.079 A 
HETATM    6  C   UNK N   1      30.357  17.612   8.293  0.00  0.00     0.038 A 
HETATM    7  C   UNK N   1      31.685  17.932   8.577  0.00  0.00     0.021 A 
BRANCH   5   8
HETATM    8  O   UNK N   1      28.754  16.683   6.776  0.00  0.00    -0.272 OA
BRANCH   8   9
HETATM    9  P   UNK N   1      27.855  17.717   5.725  0.00  0.00     0.333 P 
HETATM   10  S   UNK N   1      27.660  19.339   6.423  0.00  0.00    -0.007 SA
BRANCH   9  11
HETATM   11  O   UNK N   1      28.647  17.854   4.173  0.00  0.00    -0.319 OA
HETATM   12  C   UNK N   1      28.433  16.651   3.495  0.00  0.00     0.212 C 
ENDBRANCH   9  11
BRANCH   9  13
HETATM   13  O   UNK N   1      26.263  17.062   5.459  0.00  0.00    -0.319 OA
HETATM   14  C   UNK N   1      26.180  15.924   6.263  0.00  0.00     0.212 C 
ENDBRANCH   9  13
ENDBRANCH   8   9
ENDBRANCH   5   8
ENDBRANCH   1   2
BRANCH   1  15
HETATM   15  C   UNK N   1      34.540  16.811   9.278  0.00  0.00     0.005 A 
HETATM   16  C   UNK N   1      35.295  17.083  10.420  0.00  0.00     0.021 A 
HETATM   17  C   UNK N   1      35.404  16.125  11.428  0.00  0.00     0.038 A 
HETATM   18  C   UNK N   1      34.754  14.884  11.296  0.00  0.00     0.079 A 
HETATM   19  C   UNK N   1      34.023  14.610  10.136  0.00  0.00     0.038 A 
HETATM   20  C   UNK N   1      33.915  15.570   9.128  0.00  0.00     0.021 A 
BRANCH  18  21
HETATM   21  O   UNK N   1      34.756  13.975  12.298  0.00  0.00    -0.272 OA
BRANCH  21  22
HETATM   22  P   UNK N   1      36.044  13.805  13.449  0.00  0.00     0.333 P 
HETATM   23  S   UNK N   1      36.422  12.237  14.214  0.00  0.00    -0.007 SA
BRANCH  22  24
HETATM   24  O   UNK N   1      36.782  12.971  12.040  0.00  0.00    -0.319 OA
HETATM   25  C   UNK N   1      36.536  11.572  11.935  0.00  0.00     0.212 C 
ENDBRANCH  22  24
BRANCH  22  26
HETATM   26  O   UNK N   1      34.552  13.145  14.082  0.00  0.00    -0.319 OA
HETATM   27  C   UNK N   1      34.816  12.811  15.423  0.00  0.00     0.212 C 
ENDBRANCH  22  26
ENDBRANCH  21  22
ENDBRANCH  18  21
ENDBRANCH   1  15
TORSDOF 10
ENDMDL
MODEL 3
REMARK VINA RESULT:      -5.9      1.322      9.497
REMARK  10 active torsions:
REMARK  status: ('A' for Active; 'I' for Inactive)
REMARK    1  A    between atoms: O_21  and  C_13 
REMARK    2  A    between atoms: O_22  and  C_14 
REMARK    3  A    between atoms: S_27  and  C_15 
REMARK    4  A    between atoms: S_27  and  C_16 
REMARK    5  A    between atoms: P_23  and  O_17 
REMARK    6  A    between atoms: P_23  and  O_18 
REMARK    7  A    between atoms: P_24  and  O_19 
REMARK    8  A    between atoms: P_24  and  O_20 
REMARK    9  A    between atoms: P_23  and  O_21 
REMARK   10  A    between atoms: P_24  and  O_22 
ROOT
HETATM    1  S   UNK N   1      34.420  17.964   7.939  0.00  0.00    -0.091 SA
ENDROOT
BRANCH   1   2
HETATM    2  C   UNK N   1      34.500  16.734   9.231  0.00  0.00     0.005 A 
HETATM    3  C   UNK N   1      33.787  15.538   9.107  0.00  0.00     0.021 A 
HETATM    4  C   UNK N   1      33.839  14.584  10.122  0.00  0.00     0.038 A 
HETATM    5  C   UNK N   1      34.581  14.835  11.279  0.00  0.00     0.079 A 
HETATM    6  C   UNK N   1      35.305  16.031  11.398  0.00  0.00     0.038 A 
HETATM    7  C   UNK N   1      35.272  16.975  10.370  0.00  0.00     0.021 A 
BRANCH   5   8
HETATM    8  O   UNK N   1      34.542  13.941  12.284  0.00  0.00    -0.272 OA
BRANCH   8   9
HETATM    9  P   UNK N   1      35.654  12.623  12.376  0.00  0.00     0.333 P 
HETATM   10  S   UNK N   1      34.822  11.098  12.747  0.00  0.00    -0.007 SA
BRANCH   9  11
HETATM   11  O   UNK N   1      36.523  12.447  10.869  0.00  0.00    -0.319 OA
HETATM   12  C   UNK N   1      37.842  12.842  11.108  0.00  0.00     0.212 C 
ENDBRANCH   9  11
BRANCH   9  13
HETATM   13  O   UNK N   1      36.820  12.910  13.637  0.00  0.00    -0.319 OA
HETATM   14  C   UNK N   1      36.271  13.909  14.442  0.00  0.00     0.212 C 
ENDBRANCH   9  13
ENDBRANCH   8   9
ENDBRANCH   5   8
ENDBRANCH   1   2
BRANCH   1  15
HETATM   15  C   UNK N   1      32.670  17.711   7.699  0.00  0.00     0.005 A 
HETATM   16  C   UNK N   1      31.769  18.151   8.670  0.00  0.00     0.021 A 
HETATM   17  C   UNK N   1      30.399  17.978   8.478  0.00  0.00     0.038 A 
HETATM   18  C   UNK N   1      29.921  17.361   7.308  0.00  0.00     0.079 A 
HETATM   19  C   UNK N   1      30.833  16.898   6.353  0.00  0.00     0.038 A 
HETATM   20  C   UNK N   1      32.205  17.072   6.547  0.00  0.00     0.021 A 
BRANCH  18  21
HETATM   21  O   UNK N   1      28.597  17.270   7.045  0.00  0.00    -0.272 OA
BRANCH  21  22
HETATM   22  P   UNK N   1      27.945  16.843   5.495  0.00  0.00     0.333 P 
HETATM   23  S   UNK N   1      26.260  17.223   5.045  0.00  0.00    -0.007 SA
BRANCH  22  24
HETATM   24  O   UNK N   1      28.100  18.619   5.281  0.00  0.00    -0.319 OA
HETATM   25  C   UNK N   1      27.162  19.425   5.989  0.00  0.00     0.212 C 
ENDBRANCH  22  24
BRANCH  22  26
HETATM   26  O   UNK N   1      26.907  16.276   6.784  0.00  0.00    -0.319 OA
HETATM   27  C   UNK N   1      26.288  15.109   6.298  0.00  0.00     0.212 C 
ENDBRANCH  22  26
ENDBRANCH  21  22
ENDBRANCH  18  21
ENDBRANCH   1  15
TORSDOF 10
ENDMDL
MODEL 4
REMARK VINA RESULT:      -5.8      1.856      2.699
REMARK  10 active torsions:
REMARK  status: ('A' for Active; 'I' for Inactive)
REMARK    1  A    between atoms: O_21  and  C_13 
REMARK    2  A    between atoms: O_22  and  C_14 
REMARK    3  A    between atoms: S_27  and  C_15 
REMARK    4  A    between atoms: S_27  and  C_16 
REMARK    5  A    between atoms: P_23  and  O_17 
REMARK    6  A    between atoms: P_23  and  O_18 
REMARK    7  A    between atoms: P_24  and  O_19 
REMARK    8  A    between atoms: P_24  and  O_20 
REMARK    9  A    between atoms: P_23  and  O_21 
REMARK   10  A    between atoms: P_24  and  O_22 
ROOT
HETATM    1  S   UNK N   1      34.987  15.113   7.878  0.00  0.00    -0.091 SA
ENDROOT
BRANCH   1   2
HETATM    2  C   UNK N   1      33.583  16.179   8.166  0.00  0.00     0.005 A 
HETATM    3  C   UNK N   1      32.362  15.636   8.577  0.00  0.00     0.021 A 
HETATM    4  C   UNK N   1      31.264  16.467   8.788  0.00  0.00     0.038 A 
HETATM    5  C   UNK N   1      31.374  17.841   8.562  0.00  0.00     0.079 A 
HETATM    6  C   UNK N   1      32.603  18.386   8.162  0.00  0.00     0.038 A 
HETATM    7  C   UNK N   1      33.709  17.557   7.973  0.00  0.00     0.021 A 
BRANCH   5   8
HETATM    8  O   UNK N   1      30.276  18.611   8.684  0.00  0.00    -0.272 OA
BRANCH   8   9
HETATM    9  P   UNK N   1      28.795  18.220   7.888  0.00  0.00     0.333 P 
HETATM   10  S   UNK N   1      27.829  17.075   8.842  0.00  0.00    -0.007 SA
BRANCH   9  11
HETATM   11  O   UNK N   1      27.851  19.663   7.603  0.00  0.00    -0.319 OA
HETATM   12  C   UNK N   1      27.808  19.859   6.219  0.00  0.00     0.212 C 
ENDBRANCH   9  11
BRANCH   9  13
HETATM   13  O   UNK N   1      29.121  17.480   6.346  0.00  0.00    -0.319 OA
HETATM   14  C   UNK N   1      28.370  16.303   6.322  0.00  0.00     0.212 C 
ENDBRANCH   9  13
ENDBRANCH   8   9
ENDBRANCH   5   8
ENDBRANCH   1   2
BRANCH   1  15
HETATM   15  C   UNK N   1      35.137  14.712   9.611  0.00  0.00     0.005 A 
HETATM   16  C   UNK N   1      35.570  15.688  10.510  0.00  0.00     0.021 A 
HETATM   17  C   UNK N   1      35.668  15.389  11.869  0.00  0.00     0.038 A 
HETATM   18  C   UNK N   1      35.331  14.106  12.336  0.00  0.00     0.079 A 
HETATM   19  C   UNK N   1      34.924  13.126  11.423  0.00  0.00     0.038 A 
HETATM   20  C   UNK N   1      34.828  13.427  10.064  0.00  0.00     0.021 A 
BRANCH  18  21
HETATM   21  O   UNK N   1      35.317  13.814  13.657  0.00  0.00    -0.272 OA
BRANCH  21  22
HETATM   22  P   UNK N   1      35.200  12.204  14.292  0.00  0.00     0.333 P 
HETATM   23  S   UNK N   1      36.099  11.698  15.749  0.00  0.00    -0.007 SA
BRANCH  22  24
HETATM   24  O   UNK N   1      34.252  13.089  15.534  0.00  0.00    -0.319 OA
HETATM   25  C   UNK N   1      34.859  13.222  16.815  0.00  0.00     0.212 C 
ENDBRANCH  22  24
BRANCH  22  26
HETATM   26  O   UNK N   1      36.873  12.668  14.076  0.00  0.00    -0.319 OA
HETATM   27  C   UNK N   1      37.570  11.480  13.785  0.00  0.00     0.212 C 
ENDBRANCH  22  26
ENDBRANCH  21  22
ENDBRANCH  18  21
ENDBRANCH   1  15
TORSDOF 10
ENDMDL
MODEL 5
REMARK VINA RESULT:      -5.5      1.359      9.478
REMARK  10 active torsions:
REMARK  status: ('A' for Active; 'I' for Inactive)
REMARK    1  A    between atoms: O_21  and  C_13 
REMARK    2  A    between atoms: O_22  and  C_14 
REMARK    3  A    between atoms: S_27  and  C_15 
REMARK    4  A    between atoms: S_27  and  C_16 
REMARK    5  A    between atoms: P_23  and  O_17 
REMARK    6  A    between atoms: P_23  and  O_18 
REMARK    7  A    between atoms: P_24  and  O_19 
REMARK    8  A    between atoms: P_24  and  O_20 
REMARK    9  A    between atoms: P_23  and  O_21 
REMARK   10  A    between atoms: P_24  and  O_22 
ROOT
HETATM    1  S   UNK N   1      34.584  18.039   8.158  0.00  0.00    -0.091 SA
ENDROOT
BRANCH   1   2
HETATM    2  C   UNK N   1      34.634  16.560   9.156  0.00  0.00     0.005 A 
HETATM    3  C   UNK N   1      34.966  16.639  10.512  0.00  0.00     0.021 A 
HETATM    4  C   UNK N   1      35.018  15.482  11.287  0.00  0.00     0.038 A 
HETATM    5  C   UNK N   1      34.766  14.238  10.704  0.00  0.00     0.079 A 
HETATM    6  C   UNK N   1      34.421  14.161   9.346  0.00  0.00     0.038 A 
HETATM    7  C   UNK N   1      34.346  15.322   8.576  0.00  0.00     0.021 A 
BRANCH   5   8
HETATM    8  O   UNK N   1      34.912  13.127  11.450  0.00  0.00    -0.272 OA
BRANCH   8   9
HETATM    9  P   UNK N   1      36.448  12.643  12.074  0.00  0.00     0.333 P 
HETATM   10  S   UNK N   1      37.757  13.010  10.931  0.00  0.00    -0.007 SA
BRANCH   9  11
HETATM   11  O   UNK N   1      36.774  13.445  13.593  0.00  0.00    -0.319 OA
HETATM   12  C   UNK N   1      35.595  13.400  14.343  0.00  0.00     0.212 C 
ENDBRANCH   9  11
BRANCH   9  13
HETATM   13  O   UNK N   1      36.463  10.926  12.362  0.00  0.00    -0.319 OA
HETATM   14  C   UNK N   1      35.299  10.431  11.770  0.00  0.00     0.212 C 
ENDBRANCH   9  13
ENDBRANCH   8   9
ENDBRANCH   5   8
ENDBRANCH   1   2
BRANCH   1  15
HETATM   15  C   UNK N   1      32.902  17.732   7.647  0.00  0.00     0.005 A 
HETATM   16  C   UNK N   1      32.639  17.343   6.332  0.00  0.00     0.021 A 
HETATM   17  C   UNK N   1      31.329  17.079   5.933  0.00  0.00     0.038 A 
HETATM   18  C   UNK N   1      30.271  17.202   6.852  0.00  0.00     0.079 A 
HETATM   19  C   UNK N   1      30.542  17.618   8.160  0.00  0.00     0.038 A 
HETATM   20  C   UNK N   1      31.853  17.884   8.558  0.00  0.00     0.021 A 
BRANCH  18  21
HETATM   21  O   UNK N   1      29.005  16.855   6.524  0.00  0.00    -0.272 OA
BRANCH  21  22
HETATM   22  P   UNK N   1      28.257  17.245   5.008  0.00  0.00     0.333 P 
HETATM   23  S   UNK N   1      26.519  17.637   4.889  0.00  0.00    -0.007 SA
BRANCH  22  24
HETATM   24  O   UNK N   1      28.279  18.874   5.763  0.00  0.00    -0.319 OA
HETATM   25  C   UNK N   1      27.427  19.853   5.177  0.00  0.00     0.212 C 
ENDBRANCH  22  24
BRANCH  22  26
HETATM   26  O   UNK N   1      27.367  15.987   5.837  0.00  0.00    -0.319 OA
HETATM   27  C   UNK N   1      27.842  14.769   5.316  0.00  0.00     0.212 C 
ENDBRANCH  22  26
ENDBRANCH  21  22
ENDBRANCH  18  21
ENDBRANCH   1  15
TORSDOF 10
ENDMDL
MODEL 6
REMARK VINA RESULT:      -5.5      2.146      9.452
REMARK  10 active torsions:
REMARK  status: ('A' for Active; 'I' for Inactive)
REMARK    1  A    between atoms: O_21  and  C_13 
REMARK    2  A    between atoms: O_22  and  C_14 
REMARK    3  A    between atoms: S_27  and  C_15 
REMARK    4  A    between atoms: S_27  and  C_16 
REMARK    5  A    between atoms: P_23  and  O_17 
REMARK    6  A    between atoms: P_23  and  O_18 
REMARK    7  A    between atoms: P_24  and  O_19 
REMARK    8  A    between atoms: P_24  and  O_20 
REMARK    9  A    between atoms: P_23  and  O_21 
REMARK   10  A    between atoms: P_24  and  O_22 
ROOT
HETATM    1  S   UNK N   1      35.753  14.128   7.395  0.00  0.00    -0.091 SA
ENDROOT
BRANCH   1   2
HETATM    2  C   UNK N   1      35.492  13.959   9.154  0.00  0.00     0.005 A 
HETATM    3  C   UNK N   1      35.117  12.724   9.692  0.00  0.00     0.021 A 
HETATM    4  C   UNK N   1      34.901  12.596  11.063  0.00  0.00     0.038 A 
HETATM    5  C   UNK N   1      35.030  13.709  11.897  0.00  0.00     0.079 A 
HETATM    6  C   UNK N   1      35.417  14.945  11.358  0.00  0.00     0.038 A 
HETATM    7  C   UNK N   1      35.657  15.067   9.988  0.00  0.00     0.021 A 
BRANCH   5   8
HETATM    8  O   UNK N   1      34.726  13.583  13.203  0.00  0.00    -0.272 OA
BRANCH   8   9
HETATM    9  P   UNK N   1      35.652  12.581  14.262  0.00  0.00     0.333 P 
HETATM   10  S   UNK N   1      34.838  11.031  14.564  0.00  0.00    -0.007 SA
BRANCH   9  11
HETATM   11  O   UNK N   1      37.235  12.273  13.588  0.00  0.00    -0.319 OA
HETATM   12  C   UNK N   1      37.623  11.000  14.016  0.00  0.00     0.212 C 
ENDBRANCH   9  11
BRANCH   9  13
HETATM   13  O   UNK N   1      35.868  13.373  15.797  0.00  0.00    -0.319 OA
HETATM   14  C   UNK N   1      34.676  13.179  16.497  0.00  0.00     0.212 C 
ENDBRANCH   9  13
ENDBRANCH   8   9
ENDBRANCH   5   8
ENDBRANCH   1   2
BRANCH   1  15
HETATM   15  C   UNK N   1      34.315  15.168   7.203  0.00  0.00     0.005 A 
HETATM   16  C   UNK N   1      33.041  14.617   7.348  0.00  0.00     0.021 A 
HETATM   17  C   UNK N   1      31.914  15.429   7.223  0.00  0.00     0.038 A 
HETATM   18  C   UNK N   1      32.057  16.802   6.950  0.00  0.00     0.079 A 
HETATM   19  C   UNK N   1      33.338  17.338   6.780  0.00  0.00     0.038 A 
HETATM   20  C   UNK N   1      34.465  16.525   6.905  0.00  0.00     0.021 A 
BRANCH  18  21
HETATM   21  O   UNK N   1      30.991  17.634   6.924  0.00  0.00    -0.272 OA
BRANCH  21  22
HETATM   22  P   UNK N   1      29.463  17.272   7.663  0.00  0.00     0.333 P 
HETATM   23  S   UNK N   1      28.464  18.538   8.428  0.00  0.00    -0.007 SA
BRANCH  22  24
HETATM   24  O   UNK N   1      28.893  18.118   6.185  0.00  0.00    -0.319 OA
HETATM   25  C   UNK N   1      27.482  18.238   6.031  0.00  0.00     0.212 C 
ENDBRANCH  22  24
BRANCH  22  26
HETATM   26  O   UNK N   1      30.488  18.172   8.759  0.00  0.00    -0.319 OA
HETATM   27  C   UNK N   1      29.640  18.650   9.775  0.00  0.00     0.212 C 
ENDBRANCH  22  26
ENDBRANCH  21  22
ENDBRANCH  18  21
ENDBRANCH   1  15
TORSDOF 10
ENDMDL
MODEL 7
REMARK VINA RESULT:      -5.4     14.659     17.593
REMARK  10 active torsions:
REMARK  status: ('A' for Active; 'I' for Inactive)
REMARK    1  A    between atoms: O_21  and  C_13 
REMARK    2  A    between atoms: O_22  and  C_14 
REMARK    3  A    between atoms: S_27  and  C_15 
REMARK    4  A    between atoms: S_27  and  C_16 
REMARK    5  A    between atoms: P_23  and  O_17 
REMARK    6  A    between atoms: P_23  and  O_18 
REMARK    7  A    between atoms: P_24  and  O_19 
REMARK    8  A    between atoms: P_24  and  O_20 
REMARK    9  A    between atoms: P_23  and  O_21 
REMARK   10  A    between atoms: P_24  and  O_22 
ROOT
HETATM    1  S   UNK N   1      27.428  21.633  -9.579  0.00  0.00    -0.091 SA
ENDROOT
BRANCH   1   2
HETATM    2  C   UNK N   1      26.727  22.783  -8.408  0.00  0.00     0.005 A 
HETATM    3  C   UNK N   1      26.659  24.145  -8.716  0.00  0.00     0.021 A 
HETATM    4  C   UNK N   1      26.124  25.044  -7.795  0.00  0.00     0.038 A 
HETATM    5  C   UNK N   1      25.681  24.589  -6.551  0.00  0.00     0.079 A 
HETATM    6  C   UNK N   1      25.738  23.220  -6.247  0.00  0.00     0.038 A 
HETATM    7  C   UNK N   1      26.252  22.318  -7.179  0.00  0.00     0.021 A 
BRANCH   5   8
HETATM    8  O   UNK N   1      25.253  25.487  -5.643  0.00  0.00    -0.272 OA
BRANCH   8   9
HETATM    9  P   UNK N   1      26.301  26.124  -4.427  0.00  0.00     0.333 P 
HETATM   10  S   UNK N   1      25.766  27.729  -3.886  0.00  0.00    -0.007 SA
BRANCH   9  11
HETATM   11  O   UNK N   1      26.368  25.050  -3.050  0.00  0.00    -0.319 OA
HETATM   12  C   UNK N   1      27.463  24.202  -3.243  0.00  0.00     0.212 C 
ENDBRANCH   9  11
BRANCH   9  13
HETATM   13  O   UNK N   1      27.916  26.290  -5.056  0.00  0.00    -0.319 OA
HETATM   14  C   UNK N   1      28.058  27.637  -5.392  0.00  0.00     0.212 C 
ENDBRANCH   9  13
ENDBRANCH   8   9
ENDBRANCH   5   8
ENDBRANCH   1   2
BRANCH   1  15
HETATM   15  C   UNK N   1      28.703  21.127  -8.438  0.00  0.00     0.005 A 
HETATM   16  C   UNK N   1      29.609  22.071  -7.952  0.00  0.00     0.021 A 
HETATM   17  C   UNK N   1      30.593  21.687  -7.041  0.00  0.00     0.038 A 
HETATM   18  C   UNK N   1      30.676  20.350  -6.611  0.00  0.00     0.079 A 
HETATM   19  C   UNK N   1      29.780  19.406  -7.125  0.00  0.00     0.038 A 
HETATM   20  C   UNK N   1      28.796  19.791  -8.037  0.00  0.00     0.021 A 
BRANCH  18  21
HETATM   21  O   UNK N   1      31.552  19.967  -5.654  0.00  0.00    -0.272 OA
BRANCH  21  22
HETATM   22  P   UNK N   1      32.898  20.931  -5.133  0.00  0.00     0.333 P 
HETATM   23  S   UNK N   1      33.845  20.517  -3.678  0.00  0.00    -0.007 SA
BRANCH  22  24
HETATM   24  O   UNK N   1      33.776  19.496  -5.762  0.00  0.00    -0.319 OA
HETATM   25  C   UNK N   1      34.304  19.607  -7.081  0.00  0.00     0.212 C 
ENDBRANCH  22  24
BRANCH  22  26
HETATM   26  O   UNK N   1      31.773  20.671  -3.819  0.00  0.00    -0.319 OA
HETATM   27  C   UNK N   1      31.608  21.923  -3.198  0.00  0.00     0.212 C 
ENDBRANCH  22  26
ENDBRANCH  21  22
ENDBRANCH  18  21
ENDBRANCH   1  15
TORSDOF 10
ENDMDL
MODEL 8
REMARK VINA RESULT:      -5.4      5.179      9.804
REMARK  10 active torsions:
REMARK  status: ('A' for Active; 'I' for Inactive)
REMARK    1  A    between atoms: O_21  and  C_13 
REMARK    2  A    between atoms: O_22  and  C_14 
REMARK    3  A    between atoms: S_27  and  C_15 
REMARK    4  A    between atoms: S_27  and  C_16 
REMARK    5  A    between atoms: P_23  and  O_17 
REMARK    6  A    between atoms: P_23  and  O_18 
REMARK    7  A    between atoms: P_24  and  O_19 
REMARK    8  A    between atoms: P_24  and  O_20 
REMARK    9  A    between atoms: P_23  and  O_21 
REMARK   10  A    between atoms: P_24  and  O_22 
ROOT
HETATM    1  S   UNK N   1      37.459   9.692  15.461  0.00  0.00    -0.091 SA
ENDROOT
BRANCH   1   2
HETATM    2  C   UNK N   1      36.580  10.989  14.605  0.00  0.00     0.005 A 
HETATM    3  C   UNK N   1      35.350  10.720  13.997  0.00  0.00     0.021 A 
HETATM    4  C   UNK N   1      34.671  11.729  13.317  0.00  0.00     0.038 A 
HETATM    5  C   UNK N   1      35.232  13.004  13.217  0.00  0.00     0.079 A 
HETATM    6  C   UNK N   1      36.461  13.276  13.838  0.00  0.00     0.038 A 
HETATM    7  C   UNK N   1      37.129  12.271  14.538  0.00  0.00     0.021 A 
BRANCH   5   8
HETATM    8  O   UNK N   1      34.603  13.938  12.479  0.00  0.00    -0.272 OA
BRANCH   8   9
HETATM    9  P   UNK N   1      35.053  14.261  10.843  0.00  0.00     0.333 P 
HETATM   10  S   UNK N   1      34.635  12.905   9.775  0.00  0.00    -0.007 SA
BRANCH   9  11
HETATM   11  O   UNK N   1      34.262  15.709  10.264  0.00  0.00    -0.319 OA
HETATM   12  C   UNK N   1      34.816  16.008   9.016  0.00  0.00     0.212 C 
ENDBRANCH   9  11
BRANCH   9  13
HETATM   13  O   UNK N   1      36.773  14.510  10.733  0.00  0.00    -0.319 OA
HETATM   14  C   UNK N   1      37.284  13.367  10.115  0.00  0.00     0.212 C 
ENDBRANCH   9  13
ENDBRANCH   8   9
ENDBRANCH   5   8
ENDBRANCH   1   2
BRANCH   1  15
HETATM   15  C   UNK N   1      36.294   9.688  16.813  0.00  0.00     0.005 A 
HETATM   16  C   UNK N   1      35.595   8.518  17.118  0.00  0.00     0.021 A 
HETATM   17  C   UNK N   1      34.701   8.502  18.188  0.00  0.00     0.038 A 
HETATM   18  C   UNK N   1      34.500   9.660  18.961  0.00  0.00     0.079 A 
HETATM   19  C   UNK N   1      35.185  10.834  18.630  0.00  0.00     0.038 A 
HETATM   20  C   UNK N   1      36.080  10.850  17.559  0.00  0.00     0.021 A 
BRANCH  18  21
HETATM   21  O   UNK N   1      33.719   9.647  20.065  0.00  0.00    -0.272 OA
BRANCH  21  22
HETATM   22  P   UNK N   1      33.162   8.198  20.840  0.00  0.00     0.333 P 
HETATM   23  S   UNK N   1      32.000   8.242  22.195  0.00  0.00    -0.007 SA
BRANCH  22  24
HETATM   24  O   UNK N   1      31.679   8.645  19.932  0.00  0.00    -0.319 OA
HETATM   25  C   UNK N   1      30.558   7.780  20.087  0.00  0.00     0.212 C 
ENDBRANCH  22  24
BRANCH  22  26
HETATM   26  O   UNK N   1      33.758   9.345  22.019  0.00  0.00    -0.319 OA
HETATM   27  C   UNK N   1      32.723  10.279  22.208  0.00  0.00     0.212 C 
ENDBRANCH  22  26
ENDBRANCH  21  22
ENDBRANCH  18  21
ENDBRANCH   1  15
TORSDOF 10
ENDMDL
MODEL 9
REMARK VINA RESULT:      -5.4      1.510      2.116
REMARK  10 active torsions:
REMARK  status: ('A' for Active; 'I' for Inactive)
REMARK    1  A    between atoms: O_21  and  C_13 
REMARK    2  A    between atoms: O_22  and  C_14 
REMARK    3  A    between atoms: S_27  and  C_15 
REMARK    4  A    between atoms: S_27  and  C_16 
REMARK    5  A    between atoms: P_23  and  O_17 
REMARK    6  A    between atoms: P_23  and  O_18 
REMARK    7  A    between atoms: P_24  and  O_19 
REMARK    8  A    between atoms: P_24  and  O_20 
REMARK    9  A    between atoms: P_23  and  O_21 
REMARK   10  A    between atoms: P_24  and  O_22 
ROOT
HETATM    1  S   UNK N   1      34.557  18.293   8.253  0.00  0.00    -0.091 SA
ENDROOT
BRANCH   1   2
HETATM    2  C   UNK N   1      32.971  17.663   7.728  0.00  0.00     0.005 A 
HETATM    3  C   UNK N   1      32.730  17.408   6.374  0.00  0.00     0.021 A 
HETATM    4  C   UNK N   1      31.487  16.929   5.964  0.00  0.00     0.038 A 
HETATM    5  C   UNK N   1      30.470  16.731   6.901  0.00  0.00     0.079 A 
HETATM    6  C   UNK N   1      30.717  16.977   8.261  0.00  0.00     0.038 A 
HETATM    7  C   UNK N   1      31.969  17.433   8.674  0.00  0.00     0.021 A 
BRANCH   5   8
HETATM    8  O   UNK N   1      29.251  16.357   6.471  0.00  0.00    -0.272 OA
BRANCH   8   9
HETATM    9  P   UNK N   1      28.064  17.510   5.979  0.00  0.00     0.333 P 
HETATM   10  S   UNK N   1      28.042  18.920   7.059  0.00  0.00    -0.007 SA
BRANCH   9  11
HETATM   11  O   UNK N   1      28.371  18.048   4.344  0.00  0.00    -0.319 OA
HETATM   12  C   UNK N   1      27.149  18.473   3.815  0.00  0.00     0.212 C 
ENDBRANCH   9  11
BRANCH   9  13
HETATM   13  O   UNK N   1      26.478  16.791   6.016  0.00  0.00    -0.319 OA
HETATM   14  C   UNK N   1      26.686  15.422   6.195  0.00  0.00     0.212 C 
ENDBRANCH   9  13
ENDBRANCH   8   9
ENDBRANCH   5   8
ENDBRANCH   1   2
BRANCH   1  15
HETATM   15  C   UNK N   1      34.923  16.815   9.184  0.00  0.00     0.005 A 
HETATM   16  C   UNK N   1      34.892  15.573   8.548  0.00  0.00     0.021 A 
HETATM   17  C   UNK N   1      35.199  14.416   9.265  0.00  0.00     0.038 A 
HETATM   18  C   UNK N   1      35.541  14.498  10.627  0.00  0.00     0.079 A 
HETATM   19  C   UNK N   1      35.542  15.744  11.262  0.00  0.00     0.038 A 
HETATM   20  C   UNK N   1      35.233  16.901  10.544  0.00  0.00     0.021 A 
BRANCH  18  21
HETATM   21  O   UNK N   1      35.942  13.409  11.323  0.00  0.00    -0.272 OA
BRANCH  21  22
HETATM   22  P   UNK N   1      35.155  12.833  12.758  0.00  0.00     0.333 P 
HETATM   23  S   UNK N   1      35.642  11.310  13.552  0.00  0.00    -0.007 SA
BRANCH  22  24
HETATM   24  O   UNK N   1      36.719  13.365  13.462  0.00  0.00    -0.319 OA
HETATM   25  C   UNK N   1      36.654  14.007  14.732  0.00  0.00     0.212 C 
ENDBRANCH  22  24
BRANCH  22  26
HETATM   26  O   UNK N   1      35.209  11.585  11.533  0.00  0.00    -0.319 OA
HETATM   27  C   UNK N   1      36.474  10.980  11.653  0.00  0.00     0.212 C 
ENDBRANCH  22  26
ENDBRANCH  21  22
ENDBRANCH  18  21
ENDBRANCH   1  15
TORSDOF 10
ENDMDL
