MODEL 1
REMARK VINA RESULT:      -9.4      0.000      0.000
REMARK  6 active torsions:
REMARK  status: ('A' for Active; 'I' for Inactive)
REMARK    1  A    between atoms: C_3  and  C_15 
REMARK    2  A    between atoms: C_5  and  C_8 
REMARK       I    between atoms: C_15  and  N_17 
REMARK    3  A    between atoms: N_17  and  C_18 
REMARK    4  A    between atoms: C_23  and  C_24 
REMARK    5  A    between atoms: C_27  and  C_33 
REMARK    6  A    between atoms: C_33  and  N_34 
ROOT
HETATM    1  C   UNK N   1      25.491  18.504   4.513  0.00  0.00     0.047 A 
HETATM    2  C   UNK N   1      24.635  19.066   3.563  0.00  0.00     0.030 A 
HETATM    3  C   UNK N   1      25.033  20.212   2.868  0.00  0.00     0.002 A 
HETATM    4  C   UNK N   1      26.287  20.785   3.113  0.00  0.00     0.001 A 
HETATM    5  C   UNK N   1      27.143  20.231   4.070  0.00  0.00     0.016 A 
HETATM    6  C   UNK N   1      26.750  19.096   4.788  0.00  0.00     0.019 A 
ENDROOT
BRANCH   1   7
HETATM    7  N   UNK N   1      25.175  17.318   5.204  0.00  0.00    -0.322 N 
HETATM    8  C   UNK N   1      25.495  16.018   5.044  0.00  0.00     0.265 C 
HETATM    9  O   UNK N   1      26.207  15.637   4.127  0.00  0.00    -0.267 OA
HETATM   10  H   UNK N   1      24.587  17.473   5.978  0.00  0.00     0.169 HD
BRANCH   8  11
HETATM   11  C   UNK N   1      24.734  15.097   5.902  0.00  0.00     0.097 A 
HETATM   12  C   UNK N   1      23.382  14.709   5.906  0.00  0.00     0.029 A 
HETATM   13  C   UNK N   1      22.400  15.137   4.872  0.00  0.00     0.070 C 
HETATM   14  N   UNK N   1      22.993  13.996   7.031  0.00  0.00    -0.352 N 
HETATM   15  C   UNK N   1      24.030  13.789   7.892  0.00  0.00     0.086 A 
ATOM     16  HN  UNK N   1      22.041  13.666   7.194  1.00  0.00     0.166 HD
HETATM   17  S   UNK N   1      25.384  14.468   7.280  0.00  0.00    -0.064 SA
BRANCH  15  18
HETATM   18  C   UNK N   1      23.949  13.225   9.249  0.00  0.00     0.013 A 
HETATM   19  C   UNK N   1      22.708  12.811   9.756  0.00  0.00     0.017 A 
HETATM   20  C   UNK N   1      22.629  12.196  11.003  0.00  0.00     0.018 A 
HETATM   21  C   UNK N   1      23.800  11.985  11.729  0.00  0.00     0.087 A 
HETATM   22  N   UNK N   1      24.999  12.387  11.225  0.00  0.00    -0.374 N 
HETATM   23  C   UNK N   1      25.097  12.997  10.011  0.00  0.00     0.101 A 
ATOM     24  HN  UNK N   1      25.846  12.227  11.771  1.00  0.00     0.164 HD
ENDBRANCH  15  18
ENDBRANCH   8  11
ENDBRANCH   1   7
BRANCH   6  25
HETATM   25  C   UNK N   1      27.625  18.543   5.871  0.00  0.00     0.062 A 
HETATM   26  C   UNK N   1      28.874  17.911   5.735  0.00  0.00     0.129 A 
HETATM   27  N   UNK N   1      29.283  17.636   6.989  0.00  0.00    -0.302 N 
HETATM   28  C   UNK N   1      30.342  17.045   7.635  0.00  0.00     0.053 A 
HETATM   29  C   UNK N   1      28.356  18.087   7.809  0.00  0.00     0.155 A 
HETATM   30  C   UNK N   1      30.232  17.051   9.053  0.00  0.00     0.080 A 
HETATM   31  S   UNK N   1      28.767  17.813   9.372  0.00  0.00    -0.063 SA
HETATM   32  N   UNK N   1      27.317  18.648   7.194  0.00  0.00    -0.334 N 
ATOM     33  HN  UNK N   1      26.485  19.061   7.615  1.00  0.00     0.168 HD
BRANCH  28  34
HETATM   34  C   UNK N   1      31.487  16.412   6.924  0.00  0.00     0.330 C 
BRANCH  34  35
HETATM   35  N   UNK N   1      32.396  17.434   6.403  0.00  0.00     0.098 N 
HETATM   36  C   UNK N   1      33.523  17.584   7.332  0.00  0.00     0.299 C 
HETATM   37  C   UNK N   1      34.481  16.387   7.235  0.00  0.00     0.198 C 
HETATM   38  O   UNK N   1      34.967  16.281   5.921  0.00  0.00    -0.388 OA
HETATM   39  C   UNK N   1      33.874  15.905   5.126  0.00  0.00     0.198 C 
HETATM   40  C   UNK N   1      32.878  17.068   5.057  0.00  0.00     0.299 C 
ENDBRANCH  34  35
ENDBRANCH  28  34
ENDBRANCH   6  25
TORSDOF 6
ENDMDL
MODEL 2
REMARK VINA RESULT:      -8.4      2.560      7.931
REMARK  6 active torsions:
REMARK  status: ('A' for Active; 'I' for Inactive)
REMARK    1  A    between atoms: C_3  and  C_15 
REMARK    2  A    between atoms: C_5  and  C_8 
REMARK       I    between atoms: C_15  and  N_17 
REMARK    3  A    between atoms: N_17  and  C_18 
REMARK    4  A    between atoms: C_23  and  C_24 
REMARK    5  A    between atoms: C_27  and  C_33 
REMARK    6  A    between atoms: C_33  and  N_34 
ROOT
HETATM    1  C   UNK N   1      23.006  18.631   4.038  0.00  0.00     0.047 A 
HETATM    2  C   UNK N   1      22.343  19.640   3.335  0.00  0.00     0.030 A 
HETATM    3  C   UNK N   1      21.116  19.363   2.725  0.00  0.00     0.002 A 
HETATM    4  C   UNK N   1      20.549  18.087   2.828  0.00  0.00     0.001 A 
HETATM    5  C   UNK N   1      21.215  17.071   3.522  0.00  0.00     0.016 A 
HETATM    6  C   UNK N   1      22.453  17.328   4.122  0.00  0.00     0.019 A 
ENDROOT
BRANCH   1   7
HETATM    7  N   UNK N   1      24.215  18.862   4.724  0.00  0.00    -0.322 N 
HETATM    8  C   UNK N   1      25.494  19.047   4.346  0.00  0.00     0.265 C 
HETATM    9  O   UNK N   1      25.830  19.027   3.171  0.00  0.00    -0.267 OA
HETATM   10  H   UNK N   1      24.097  18.895   5.701  0.00  0.00     0.169 HD
BRANCH   8  11
HETATM   11  C   UNK N   1      26.462  19.032   5.454  0.00  0.00     0.097 A 
HETATM   12  C   UNK N   1      26.999  20.058   6.253  0.00  0.00     0.029 A 
HETATM   13  C   UNK N   1      26.562  21.479   6.170  0.00  0.00     0.070 C 
HETATM   14  N   UNK N   1      28.071  19.668   7.043  0.00  0.00    -0.352 N 
HETATM   15  C   UNK N   1      28.360  18.343   6.900  0.00  0.00     0.086 A 
ATOM     16  HN  UNK N   1      28.584  20.301   7.658  1.00  0.00     0.166 HD
HETATM   17  S   UNK N   1      27.321  17.676   5.830  0.00  0.00    -0.064 SA
BRANCH  15  18
HETATM   18  C   UNK N   1      29.526  17.631   7.448  0.00  0.00     0.013 A 
HETATM   19  C   UNK N   1      30.166  16.651   6.676  0.00  0.00     0.017 A 
HETATM   20  C   UNK N   1      31.321  16.031   7.145  0.00  0.00     0.018 A 
HETATM   21  C   UNK N   1      31.837  16.410   8.384  0.00  0.00     0.087 A 
HETATM   22  N   UNK N   1      31.210  17.366   9.123  0.00  0.00    -0.374 N 
HETATM   23  C   UNK N   1      30.075  17.979   8.684  0.00  0.00     0.101 A 
ATOM     24  HN  UNK N   1      31.600  17.629  10.028  1.00  0.00     0.164 HD
ENDBRANCH  15  18
ENDBRANCH   8  11
ENDBRANCH   1   7
BRANCH   6  25
HETATM   25  C   UNK N   1      23.211  16.228   4.799  0.00  0.00     0.062 A 
HETATM   26  C   UNK N   1      22.964  15.656   6.059  0.00  0.00     0.129 A 
HETATM   27  N   UNK N   1      23.880  14.679   6.203  0.00  0.00    -0.302 N 
HETATM   28  C   UNK N   1      24.263  13.735   7.127  0.00  0.00     0.053 A 
HETATM   29  C   UNK N   1      24.606  14.659   5.104  0.00  0.00     0.155 A 
HETATM   30  C   UNK N   1      25.352  12.923   6.707  0.00  0.00     0.080 A 
HETATM   31  S   UNK N   1      25.749  13.487   5.173  0.00  0.00    -0.063 SA
HETATM   32  N   UNK N   1      24.254  15.579   4.208  0.00  0.00    -0.334 N 
ATOM     33  HN  UNK N   1      24.668  15.757   3.293  1.00  0.00     0.168 HD
BRANCH  28  34
HETATM   34  C   UNK N   1      23.632  13.596   8.468  0.00  0.00     0.330 C 
BRANCH  34  35
HETATM   35  N   UNK N   1      22.700  12.467   8.482  0.00  0.00     0.098 N 
HETATM   36  C   UNK N   1      22.976  11.641   9.664  0.00  0.00     0.299 C 
HETATM   37  C   UNK N   1      22.485  12.330  10.946  0.00  0.00     0.198 C 
HETATM   38  O   UNK N   1      21.103  12.566  10.851  0.00  0.00    -0.388 OA
HETATM   39  C   UNK N   1      20.939  13.543   9.857  0.00  0.00     0.198 C 
HETATM   40  C   UNK N   1      21.303  12.942   8.495  0.00  0.00     0.299 C 
ENDBRANCH  34  35
ENDBRANCH  28  34
ENDBRANCH   6  25
TORSDOF 6
ENDMDL
MODEL 3
REMARK VINA RESULT:      -8.3      3.366      7.566
REMARK  6 active torsions:
REMARK  status: ('A' for Active; 'I' for Inactive)
REMARK    1  A    between atoms: C_3  and  C_15 
REMARK    2  A    between atoms: C_5  and  C_8 
REMARK       I    between atoms: C_15  and  N_17 
REMARK    3  A    between atoms: N_17  and  C_18 
REMARK    4  A    between atoms: C_23  and  C_24 
REMARK    5  A    between atoms: C_27  and  C_33 
REMARK    6  A    between atoms: C_33  and  N_34 
ROOT
HETATM    1  C   UNK N   1      22.719  13.306   9.407  0.00  0.00     0.047 A 
HETATM    2  C   UNK N   1      22.094  12.840  10.567  0.00  0.00     0.030 A 
HETATM    3  C   UNK N   1      22.848  12.163  11.531  0.00  0.00     0.002 A 
HETATM    4  C   UNK N   1      24.221  11.963  11.341  0.00  0.00     0.001 A 
HETATM    5  C   UNK N   1      24.846  12.419  10.176  0.00  0.00     0.016 A 
HETATM    6  C   UNK N   1      24.103  13.081   9.194  0.00  0.00     0.019 A 
ENDROOT
BRANCH   1   7
HETATM    7  N   UNK N   1      22.029  14.047   8.427  0.00  0.00    -0.322 N 
HETATM    8  C   UNK N   1      21.108  13.746   7.491  0.00  0.00     0.265 C 
HETATM    9  O   UNK N   1      20.691  12.608   7.338  0.00  0.00    -0.267 OA
HETATM   10  H   UNK N   1      22.277  15.000   8.426  0.00  0.00     0.169 HD
BRANCH   8  11
HETATM   11  C   UNK N   1      20.840  14.832   6.534  0.00  0.00     0.097 A 
HETATM   12  C   UNK N   1      20.080  16.011   6.634  0.00  0.00     0.029 A 
HETATM   13  C   UNK N   1      19.422  16.462   7.890  0.00  0.00     0.070 C 
HETATM   14  N   UNK N   1      19.876  16.666   5.427  0.00  0.00    -0.352 N 
HETATM   15  C   UNK N   1      20.495  16.034   4.389  0.00  0.00     0.086 A 
ATOM     16  HN  UNK N   1      19.326  17.519   5.329  1.00  0.00     0.166 HD
HETATM   17  S   UNK N   1      21.269  14.708   4.948  0.00  0.00    -0.064 SA
BRANCH  15  18
HETATM   18  C   UNK N   1      20.356  16.346   2.957  0.00  0.00     0.013 A 
HETATM   19  C   UNK N   1      20.325  15.304   2.019  0.00  0.00     0.017 A 
HETATM   20  C   UNK N   1      20.107  15.579   0.672  0.00  0.00     0.018 A 
HETATM   21  C   UNK N   1      19.904  16.900   0.274  0.00  0.00     0.087 A 
HETATM   22  N   UNK N   1      19.931  17.903   1.194  0.00  0.00    -0.374 N 
HETATM   23  C   UNK N   1      20.151  17.655   2.516  0.00  0.00     0.101 A 
ATOM     24  HN  UNK N   1      19.784  18.864   0.886  1.00  0.00     0.164 HD
ENDBRANCH  15  18
ENDBRANCH   8  11
ENDBRANCH   1   7
BRANCH   6  25
HETATM   25  C   UNK N   1      24.747  13.502   7.909  0.00  0.00     0.062 A 
HETATM   26  C   UNK N   1      25.224  14.778   7.558  0.00  0.00     0.129 A 
HETATM   27  N   UNK N   1      25.755  14.643   6.327  0.00  0.00    -0.302 N 
HETATM   28  C   UNK N   1      26.370  15.411   5.367  0.00  0.00     0.053 A 
HETATM   29  C   UNK N   1      25.620  13.380   5.980  0.00  0.00     0.155 A 
HETATM   30  C   UNK N   1      26.749  14.688   4.203  0.00  0.00     0.080 A 
HETATM   31  S   UNK N   1      26.252  13.107   4.492  0.00  0.00    -0.063 SA
HETATM   32  N   UNK N   1      25.011  12.630   6.896  0.00  0.00    -0.334 N 
ATOM     33  HN  UNK N   1      24.794  11.635   6.851  1.00  0.00     0.168 HD
BRANCH  28  34
HETATM   34  C   UNK N   1      26.587  16.877   5.503  0.00  0.00     0.330 C 
BRANCH  34  35
HETATM   35  N   UNK N   1      28.018  17.185   5.523  0.00  0.00     0.098 N 
HETATM   36  C   UNK N   1      28.195  18.629   5.327  0.00  0.00     0.299 C 
HETATM   37  C   UNK N   1      27.798  19.410   6.589  0.00  0.00     0.198 C 
HETATM   38  O   UNK N   1      28.587  18.983   7.671  0.00  0.00    -0.388 OA
HETATM   39  C   UNK N   1      28.193  17.666   7.950  0.00  0.00     0.198 C 
HETATM   40  C   UNK N   1      28.628  16.755   6.796  0.00  0.00     0.299 C 
ENDBRANCH  34  35
ENDBRANCH  28  34
ENDBRANCH   6  25
TORSDOF 6
ENDMDL
MODEL 4
REMARK VINA RESULT:      -8.1      3.858      7.740
REMARK  6 active torsions:
REMARK  status: ('A' for Active; 'I' for Inactive)
REMARK    1  A    between atoms: C_3  and  C_15 
REMARK    2  A    between atoms: C_5  and  C_8 
REMARK       I    between atoms: C_15  and  N_17 
REMARK    3  A    between atoms: N_17  and  C_18 
REMARK    4  A    between atoms: C_23  and  C_24 
REMARK    5  A    between atoms: C_27  and  C_33 
REMARK    6  A    between atoms: C_33  and  N_34 
ROOT
HETATM    1  C   UNK N   1      22.710  13.229   9.420  0.00  0.00     0.047 A 
HETATM    2  C   UNK N   1      22.052  12.791  10.572  0.00  0.00     0.030 A 
HETATM    3  C   UNK N   1      22.776  12.132  11.570  0.00  0.00     0.002 A 
HETATM    4  C   UNK N   1      24.153  11.922  11.422  0.00  0.00     0.001 A 
HETATM    5  C   UNK N   1      24.812  12.349  10.265  0.00  0.00     0.016 A 
HETATM    6  C   UNK N   1      24.098  12.994   9.249  0.00  0.00     0.019 A 
ENDROOT
BRANCH   1   7
HETATM    7  N   UNK N   1      22.050  13.951   8.406  0.00  0.00    -0.322 N 
HETATM    8  C   UNK N   1      20.786  14.378   8.220  0.00  0.00     0.265 C 
HETATM    9  O   UNK N   1      19.902  14.150   9.032  0.00  0.00    -0.267 OA
HETATM   10  H   UNK N   1      22.649  14.201   7.665  0.00  0.00     0.169 HD
BRANCH   8  11
HETATM   11  C   UNK N   1      20.519  14.915   6.877  0.00  0.00     0.097 A 
HETATM   12  C   UNK N   1      20.253  14.290   5.645  0.00  0.00     0.029 A 
HETATM   13  C   UNK N   1      20.084  12.819   5.489  0.00  0.00     0.070 C 
HETATM   14  N   UNK N   1      20.290  15.141   4.549  0.00  0.00    -0.352 N 
HETATM   15  C   UNK N   1      20.547  16.431   4.910  0.00  0.00     0.086 A 
ATOM     16  HN  UNK N   1      20.143  14.836   3.587  1.00  0.00     0.166 HD
HETATM   17  S   UNK N   1      20.723  16.514   6.532  0.00  0.00    -0.064 SA
BRANCH  15  18
HETATM   18  C   UNK N   1      20.823  17.560   4.007  0.00  0.00     0.013 A 
HETATM   19  C   UNK N   1      20.093  17.691   2.816  0.00  0.00     0.017 A 
HETATM   20  C   UNK N   1      20.282  18.799   1.995  0.00  0.00     0.018 A 
HETATM   21  C   UNK N   1      21.195  19.780   2.382  0.00  0.00     0.087 A 
HETATM   22  N   UNK N   1      21.896  19.644   3.540  0.00  0.00    -0.374 N 
HETATM   23  C   UNK N   1      21.730  18.563   4.354  0.00  0.00     0.101 A 
ATOM     24  HN  UNK N   1      22.562  20.369   3.807  1.00  0.00     0.164 HD
ENDBRANCH  15  18
ENDBRANCH   8  11
ENDBRANCH   1   7
BRANCH   6  25
HETATM   25  C   UNK N   1      24.778  13.384   7.972  0.00  0.00     0.062 A 
HETATM   26  C   UNK N   1      25.332  14.631   7.634  0.00  0.00     0.129 A 
HETATM   27  N   UNK N   1      25.867  14.473   6.408  0.00  0.00    -0.302 N 
HETATM   28  C   UNK N   1      26.535  15.209   5.458  0.00  0.00     0.053 A 
HETATM   29  C   UNK N   1      25.662  13.222   6.051  0.00  0.00     0.155 A 
HETATM   30  C   UNK N   1      26.882  14.472   4.293  0.00  0.00     0.080 A 
HETATM   31  S   UNK N   1      26.292  12.921   4.568  0.00  0.00    -0.063 SA
HETATM   32  N   UNK N   1      25.002  12.504   6.957  0.00  0.00    -0.334 N 
ATOM     33  HN  UNK N   1      24.727  11.522   6.903  1.00  0.00     0.168 HD
BRANCH  28  34
HETATM   34  C   UNK N   1      26.835  16.660   5.606  0.00  0.00     0.330 C 
BRANCH  34  35
HETATM   35  N   UNK N   1      26.846  17.318   4.298  0.00  0.00     0.098 N 
HETATM   36  C   UNK N   1      25.554  17.983   4.092  0.00  0.00     0.299 C 
HETATM   37  C   UNK N   1      25.440  19.247   4.959  0.00  0.00     0.198 C 
HETATM   38  O   UNK N   1      26.481  20.133   4.633  0.00  0.00    -0.388 OA
HETATM   39  C   UNK N   1      27.666  19.525   5.074  0.00  0.00     0.198 C 
HETATM   40  C   UNK N   1      27.951  18.291   4.211  0.00  0.00     0.299 C 
ENDBRANCH  34  35
ENDBRANCH  28  34
ENDBRANCH   6  25
TORSDOF 6
ENDMDL
MODEL 5
REMARK VINA RESULT:      -8.1      6.546      7.946
REMARK  6 active torsions:
REMARK  status: ('A' for Active; 'I' for Inactive)
REMARK    1  A    between atoms: C_3  and  C_15 
REMARK    2  A    between atoms: C_5  and  C_8 
REMARK       I    between atoms: C_15  and  N_17 
REMARK    3  A    between atoms: N_17  and  C_18 
REMARK    4  A    between atoms: C_23  and  C_24 
REMARK    5  A    between atoms: C_27  and  C_33 
REMARK    6  A    between atoms: C_33  and  N_34 
ROOT
HETATM    1  C   UNK N   1      20.539  18.037   4.033  0.00  0.00     0.047 A 
HETATM    2  C   UNK N   1      20.690  19.424   3.952  0.00  0.00     0.030 A 
HETATM    3  C   UNK N   1      20.765  20.037   2.697  0.00  0.00     0.002 A 
HETATM    4  C   UNK N   1      20.678  19.268   1.530  0.00  0.00     0.001 A 
HETATM    5  C   UNK N   1      20.537  17.879   1.608  0.00  0.00     0.016 A 
HETATM    6  C   UNK N   1      20.480  17.249   2.855  0.00  0.00     0.019 A 
ENDROOT
BRANCH   1   7
HETATM    7  N   UNK N   1      20.397  17.366   5.264  0.00  0.00    -0.322 N 
HETATM    8  C   UNK N   1      20.793  17.617   6.527  0.00  0.00     0.265 C 
HETATM    9  O   UNK N   1      21.438  18.614   6.815  0.00  0.00    -0.267 OA
HETATM   10  H   UNK N   1      19.896  16.523   5.182  0.00  0.00     0.169 HD
BRANCH   8  11
HETATM   11  C   UNK N   1      20.596  16.495   7.458  0.00  0.00     0.097 A 
HETATM   12  C   UNK N   1      19.660  16.272   8.484  0.00  0.00     0.029 A 
HETATM   13  C   UNK N   1      18.524  17.190   8.775  0.00  0.00     0.070 C 
HETATM   14  N   UNK N   1      19.952  15.189   9.301  0.00  0.00    -0.352 N 
HETATM   15  C   UNK N   1      21.084  14.539   8.908  0.00  0.00     0.086 A 
ATOM     16  HN  UNK N   1      19.384  14.913  10.103  1.00  0.00     0.166 HD
HETATM   17  S   UNK N   1      21.705  15.283   7.592  0.00  0.00    -0.064 SA
BRANCH  15  18
HETATM   18  C   UNK N   1      21.779  13.463   9.633  0.00  0.00     0.013 A 
HETATM   19  C   UNK N   1      23.154  13.269   9.436  0.00  0.00     0.017 A 
HETATM   20  C   UNK N   1      23.842  12.313  10.179  0.00  0.00     0.018 A 
HETATM   21  C   UNK N   1      23.147  11.564  11.127  0.00  0.00     0.087 A 
HETATM   22  N   UNK N   1      21.813  11.763  11.312  0.00  0.00    -0.374 N 
HETATM   23  C   UNK N   1      21.121  12.689  10.591  0.00  0.00     0.101 A 
ATOM     24  HN  UNK N   1      21.319  11.204  12.009  1.00  0.00     0.164 HD
ENDBRANCH  15  18
ENDBRANCH   8  11
ENDBRANCH   1   7
BRANCH   6  25
HETATM   25  C   UNK N   1      20.410  15.755   2.949  0.00  0.00     0.062 A 
HETATM   26  C   UNK N   1      21.447  14.860   3.268  0.00  0.00     0.129 A 
HETATM   27  N   UNK N   1      20.884  13.636   3.272  0.00  0.00    -0.302 N 
HETATM   28  C   UNK N   1      21.241  12.324   3.471  0.00  0.00     0.053 A 
HETATM   29  C   UNK N   1      19.606  13.793   2.994  0.00  0.00     0.155 A 
HETATM   30  C   UNK N   1      20.162  11.405   3.352  0.00  0.00     0.080 A 
HETATM   31  S   UNK N   1      18.822  12.354   2.988  0.00  0.00    -0.063 SA
HETATM   32  N   UNK N   1      19.251  15.059   2.783  0.00  0.00    -0.334 N 
ATOM     33  HN  UNK N   1      18.327  15.423   2.552  1.00  0.00     0.168 HD
BRANCH  28  34
HETATM   34  C   UNK N   1      22.638  11.886   3.744  0.00  0.00     0.330 C 
BRANCH  34  35
HETATM   35  N   UNK N   1      23.098  12.409   5.032  0.00  0.00     0.098 N 
HETATM   36  C   UNK N   1      22.299  11.800   6.103  0.00  0.00     0.299 C 
HETATM   37  C   UNK N   1      22.697  10.333   6.322  0.00  0.00     0.198 C 
HETATM   38  O   UNK N   1      24.060  10.263   6.655  0.00  0.00    -0.388 OA
HETATM   39  C   UNK N   1      24.767  10.637   5.502  0.00  0.00     0.198 C 
HETATM   40  C   UNK N   1      24.532  12.127   5.229  0.00  0.00     0.299 C 
ENDBRANCH  34  35
ENDBRANCH  28  34
ENDBRANCH   6  25
TORSDOF 6
ENDMDL
MODEL 6
REMARK VINA RESULT:      -7.9      5.563      8.914
REMARK  6 active torsions:
REMARK  status: ('A' for Active; 'I' for Inactive)
REMARK    1  A    between atoms: C_3  and  C_15 
REMARK    2  A    between atoms: C_5  and  C_8 
REMARK       I    between atoms: C_15  and  N_17 
REMARK    3  A    between atoms: N_17  and  C_18 
REMARK    4  A    between atoms: C_23  and  C_24 
REMARK    5  A    between atoms: C_27  and  C_33 
REMARK    6  A    between atoms: C_33  and  N_34 
ROOT
HETATM    1  C   UNK N   1      30.927  17.540   8.522  0.00  0.00     0.047 A 
HETATM    2  C   UNK N   1      30.197  18.381   9.366  0.00  0.00     0.030 A 
HETATM    3  C   UNK N   1      28.896  18.753   9.011  0.00  0.00     0.002 A 
HETATM    4  C   UNK N   1      28.325  18.277   7.824  0.00  0.00     0.001 A 
HETATM    5  C   UNK N   1      29.057  17.443   6.972  0.00  0.00     0.016 A 
HETATM    6  C   UNK N   1      30.366  17.078   7.304  0.00  0.00     0.019 A 
ENDROOT
BRANCH   1   7
HETATM    7  N   UNK N   1      32.218  17.081   8.850  0.00  0.00    -0.322 N 
HETATM    8  C   UNK N   1      33.466  17.433   8.485  0.00  0.00     0.265 C 
HETATM    9  O   UNK N   1      33.675  18.334   7.687  0.00  0.00    -0.267 OA
HETATM   10  H   UNK N   1      32.204  16.334   9.491  0.00  0.00     0.169 HD
BRANCH   8  11
HETATM   11  C   UNK N   1      34.513  16.502   8.933  0.00  0.00     0.097 A 
HETATM   12  C   UNK N   1      35.265  15.528   8.251  0.00  0.00     0.029 A 
HETATM   13  C   UNK N   1      35.190  15.312   6.780  0.00  0.00     0.070 C 
HETATM   14  N   UNK N   1      35.994  14.683   9.077  0.00  0.00    -0.352 N 
HETATM   15  C   UNK N   1      35.850  15.004  10.395  0.00  0.00     0.086 A 
ATOM     16  HN  UNK N   1      36.568  13.912   8.737  1.00  0.00     0.166 HD
HETATM   17  S   UNK N   1      34.853  16.292  10.532  0.00  0.00    -0.064 SA
BRANCH  15  18
HETATM   18  C   UNK N   1      36.336  14.230  11.549  0.00  0.00     0.013 A 
HETATM   19  C   UNK N   1      35.817  14.489  12.826  0.00  0.00     0.017 A 
HETATM   20  C   UNK N   1      36.202  13.707  13.912  0.00  0.00     0.018 A 
HETATM   21  C   UNK N   1      37.095  12.656  13.706  0.00  0.00     0.087 A 
HETATM   22  N   UNK N   1      37.589  12.412  12.462  0.00  0.00    -0.374 N 
HETATM   23  C   UNK N   1      37.231  13.170  11.388  0.00  0.00     0.101 A 
ATOM     24  HN  UNK N   1      38.245  11.641  12.330  1.00  0.00     0.164 HD
ENDBRANCH  15  18
ENDBRANCH   8  11
ENDBRANCH   1   7
BRANCH   6  25
HETATM   25  C   UNK N   1      31.186  16.251   6.361  0.00  0.00     0.062 A 
HETATM   26  C   UNK N   1      31.337  14.853   6.344  0.00  0.00     0.129 A 
HETATM   27  N   UNK N   1      32.128  14.585   5.287  0.00  0.00    -0.302 N 
HETATM   28  C   UNK N   1      32.704  13.504   4.664  0.00  0.00     0.053 A 
HETATM   29  C   UNK N   1      32.412  15.734   4.710  0.00  0.00     0.155 A 
HETATM   30  C   UNK N   1      33.476  13.840   3.517  0.00  0.00     0.080 A 
HETATM   31  S   UNK N   1      33.366  15.514   3.396  0.00  0.00    -0.063 SA
HETATM   32  N   UNK N   1      31.872  16.790   5.315  0.00  0.00    -0.334 N 
ATOM     33  HN  UNK N   1      31.953  17.773   5.055  1.00  0.00     0.168 HD
BRANCH  28  34
HETATM   34  C   UNK N   1      32.576  12.106   5.160  0.00  0.00     0.330 C 
BRANCH  34  35
HETATM   35  N   UNK N   1      33.895  11.541   5.451  0.00  0.00     0.098 N 
HETATM   36  C   UNK N   1      34.205  11.766   6.867  0.00  0.00     0.299 C 
HETATM   37  C   UNK N   1      33.378  10.836   7.768  0.00  0.00     0.198 C 
HETATM   38  O   UNK N   1      33.652   9.499   7.435  0.00  0.00    -0.388 OA
HETATM   39  C   UNK N   1      33.115   9.294   6.155  0.00  0.00     0.198 C 
HETATM   40  C   UNK N   1      33.928  10.100   5.134  0.00  0.00     0.299 C 
ENDBRANCH  34  35
ENDBRANCH  28  34
ENDBRANCH   6  25
TORSDOF 6
ENDMDL
MODEL 7
REMARK VINA RESULT:      -7.9      6.546      8.280
REMARK  6 active torsions:
REMARK  status: ('A' for Active; 'I' for Inactive)
REMARK    1  A    between atoms: C_3  and  C_15 
REMARK    2  A    between atoms: C_5  and  C_8 
REMARK       I    between atoms: C_15  and  N_17 
REMARK    3  A    between atoms: N_17  and  C_18 
REMARK    4  A    between atoms: C_23  and  C_24 
REMARK    5  A    between atoms: C_27  and  C_33 
REMARK    6  A    between atoms: C_33  and  N_34 
ROOT
HETATM    1  C   UNK N   1      20.879  17.364   3.916  0.00  0.00     0.047 A 
HETATM    2  C   UNK N   1      21.082  18.647   4.429  0.00  0.00     0.030 A 
HETATM    3  C   UNK N   1      20.915  19.757   3.595  0.00  0.00     0.002 A 
HETATM    4  C   UNK N   1      20.536  19.584   2.258  0.00  0.00     0.001 A 
HETATM    5  C   UNK N   1      20.343  18.300   1.739  0.00  0.00     0.016 A 
HETATM    6  C   UNK N   1      20.524  17.179   2.556  0.00  0.00     0.019 A 
ENDROOT
BRANCH   1   7
HETATM    7  N   UNK N   1      20.971  16.209   4.719  0.00  0.00    -0.322 N 
HETATM    8  C   UNK N   1      20.157  15.611   5.610  0.00  0.00     0.265 C 
HETATM    9  O   UNK N   1      19.060  16.070   5.891  0.00  0.00    -0.267 OA
HETATM   10  H   UNK N   1      21.825  15.732   4.602  0.00  0.00     0.169 HD
BRANCH   8  11
HETATM   11  C   UNK N   1      20.788  14.523   6.373  0.00  0.00     0.097 A 
HETATM   12  C   UNK N   1      20.700  13.123   6.271  0.00  0.00     0.029 A 
HETATM   13  C   UNK N   1      19.945  12.423   5.195  0.00  0.00     0.070 C 
HETATM   14  N   UNK N   1      21.266  12.433   7.334  0.00  0.00    -0.352 N 
HETATM   15  C   UNK N   1      21.827  13.273   8.251  0.00  0.00     0.086 A 
ATOM     16  HN  UNK N   1      21.261  11.417   7.419  1.00  0.00     0.166 HD
HETATM   17  S   UNK N   1      21.628  14.819   7.760  0.00  0.00    -0.064 SA
BRANCH  15  18
HETATM   18  C   UNK N   1      22.361  12.905   9.572  0.00  0.00     0.013 A 
HETATM   19  C   UNK N   1      21.492  12.420  10.561  0.00  0.00     0.017 A 
HETATM   20  C   UNK N   1      21.994  11.986  11.785  0.00  0.00     0.018 A 
HETATM   21  C   UNK N   1      23.370  12.028  12.005  0.00  0.00     0.087 A 
HETATM   22  N   UNK N   1      24.204  12.497  11.037  0.00  0.00    -0.374 N 
HETATM   23  C   UNK N   1      23.732  12.933   9.835  0.00  0.00     0.101 A 
ATOM     24  HN  UNK N   1      25.208  12.523  11.216  1.00  0.00     0.164 HD
ENDBRANCH  15  18
ENDBRANCH   8  11
ENDBRANCH   1   7
BRANCH   6  25
HETATM   25  C   UNK N   1      20.397  15.798   1.989  0.00  0.00     0.062 A 
HETATM   26  C   UNK N   1      21.428  14.929   1.590  0.00  0.00     0.129 A 
HETATM   27  N   UNK N   1      20.817  13.795   1.196  0.00  0.00    -0.302 N 
HETATM   28  C   UNK N   1      21.140  12.559   0.688  0.00  0.00     0.053 A 
HETATM   29  C   UNK N   1      19.523  13.969   1.365  0.00  0.00     0.155 A 
HETATM   30  C   UNK N   1      20.018  11.715   0.461  0.00  0.00     0.080 A 
HETATM   31  S   UNK N   1      18.685  12.631   0.925  0.00  0.00    -0.063 SA
HETATM   32  N   UNK N   1      19.197  15.169   1.842  0.00  0.00    -0.334 N 
ATOM     33  HN  UNK N   1      18.267  15.531   2.050  1.00  0.00     0.168 HD
BRANCH  28  34
HETATM   34  C   UNK N   1      22.531  12.145   0.358  0.00  0.00     0.330 C 
BRANCH  34  35
HETATM   35  N   UNK N   1      22.879  10.908   1.061  0.00  0.00     0.098 N 
HETATM   36  C   UNK N   1      24.139  10.391   0.513  0.00  0.00     0.299 C 
HETATM   37  C   UNK N   1      25.333  11.238   0.981  0.00  0.00     0.198 C 
HETATM   38  O   UNK N   1      25.392  11.227   2.384  0.00  0.00    -0.388 OA
HETATM   39  C   UNK N   1      24.272  11.945   2.831  0.00  0.00     0.198 C 
HETATM   40  C   UNK N   1      23.003  11.148   2.511  0.00  0.00     0.299 C 
ENDBRANCH  34  35
ENDBRANCH  28  34
ENDBRANCH   6  25
TORSDOF 6
ENDMDL
MODEL 8
REMARK VINA RESULT:      -7.8      8.254     13.321
REMARK  6 active torsions:
REMARK  status: ('A' for Active; 'I' for Inactive)
REMARK    1  A    between atoms: C_3  and  C_15 
REMARK    2  A    between atoms: C_5  and  C_8 
REMARK       I    between atoms: C_15  and  N_17 
REMARK    3  A    between atoms: N_17  and  C_18 
REMARK    4  A    between atoms: C_23  and  C_24 
REMARK    5  A    between atoms: C_27  and  C_33 
REMARK    6  A    between atoms: C_33  and  N_34 
ROOT
HETATM    1  C   UNK N   1      35.523  12.512  15.299  0.00  0.00     0.047 A 
HETATM    2  C   UNK N   1      35.232  13.381  16.353  0.00  0.00     0.030 A 
HETATM    3  C   UNK N   1      35.093  12.871  17.648  0.00  0.00     0.002 A 
HETATM    4  C   UNK N   1      35.256  11.501  17.888  0.00  0.00     0.001 A 
HETATM    5  C   UNK N   1      35.537  10.627  16.832  0.00  0.00     0.016 A 
HETATM    6  C   UNK N   1      35.660  11.119  15.529  0.00  0.00     0.019 A 
ENDROOT
BRANCH   1   7
HETATM    7  N   UNK N   1      35.735  12.970  13.983  0.00  0.00    -0.322 N 
HETATM    8  C   UNK N   1      36.257  14.089  13.446  0.00  0.00     0.265 C 
HETATM    9  O   UNK N   1      36.674  15.005  14.139  0.00  0.00    -0.267 OA
HETATM   10  H   UNK N   1      35.433  12.326  13.302  0.00  0.00     0.169 HD
BRANCH   8  11
HETATM   11  C   UNK N   1      36.063  14.212  11.993  0.00  0.00     0.097 A 
HETATM   12  C   UNK N   1      36.816  13.752  10.897  0.00  0.00     0.029 A 
HETATM   13  C   UNK N   1      38.019  12.886  11.031  0.00  0.00     0.070 C 
HETATM   14  N   UNK N   1      36.428  14.278   9.672  0.00  0.00    -0.352 N 
HETATM   15  C   UNK N   1      35.359  15.117   9.790  0.00  0.00     0.086 A 
ATOM     16  HN  UNK N   1      36.889  14.062   8.789  1.00  0.00     0.166 HD
HETATM   17  S   UNK N   1      34.910  15.205  11.358  0.00  0.00    -0.064 SA
BRANCH  15  18
HETATM   18  C   UNK N   1      34.793  15.975   8.736  0.00  0.00     0.013 A 
HETATM   19  C   UNK N   1      34.457  17.305   9.031  0.00  0.00     0.017 A 
HETATM   20  C   UNK N   1      34.003  18.154   8.025  0.00  0.00     0.018 A 
HETATM   21  C   UNK N   1      33.902  17.666   6.722  0.00  0.00     0.087 A 
HETATM   22  N   UNK N   1      34.235  16.375   6.448  0.00  0.00    -0.374 N 
HETATM   23  C   UNK N   1      34.674  15.527   7.419  0.00  0.00     0.101 A 
ATOM     24  HN  UNK N   1      34.152  16.034   5.489  1.00  0.00     0.164 HD
ENDBRANCH  15  18
ENDBRANCH   8  11
ENDBRANCH   1   7
BRANCH   6  25
HETATM   25  C   UNK N   1      35.882  10.182  14.381  0.00  0.00     0.062 A 
HETATM   26  C   UNK N   1      34.922   9.650  13.502  0.00  0.00     0.129 A 
HETATM   27  N   UNK N   1      35.612   8.904  12.617  0.00  0.00    -0.302 N 
HETATM   28  C   UNK N   1      35.380   8.103  11.524  0.00  0.00     0.053 A 
HETATM   29  C   UNK N   1      36.886   9.000  12.935  0.00  0.00     0.155 A 
HETATM   30  C   UNK N   1      36.559   7.553  10.950  0.00  0.00     0.080 A 
HETATM   31  S   UNK N   1      37.818   8.133  11.903  0.00  0.00    -0.063 SA
HETATM   32  N   UNK N   1      37.121   9.760  14.002  0.00  0.00    -0.334 N 
ATOM     33  HN  UNK N   1      38.019   9.977  14.435  1.00  0.00     0.168 HD
BRANCH  28  34
HETATM   34  C   UNK N   1      34.019   7.797  11.004  0.00  0.00     0.330 C 
BRANCH  34  35
HETATM   35  N   UNK N   1      33.930   8.115   9.578  0.00  0.00     0.098 N 
HETATM   36  C   UNK N   1      32.704   7.518   9.035  0.00  0.00     0.299 C 
HETATM   37  C   UNK N   1      31.461   8.293   9.498  0.00  0.00     0.198 C 
HETATM   38  O   UNK N   1      31.559   9.629   9.075  0.00  0.00    -0.388 OA
HETATM   39  C   UNK N   1      32.607  10.199   9.813  0.00  0.00     0.198 C 
HETATM   40  C   UNK N   1      33.935   9.575   9.367  0.00  0.00     0.299 C 
ENDBRANCH  34  35
ENDBRANCH  28  34
ENDBRANCH   6  25
TORSDOF 6
ENDMDL
MODEL 9
REMARK VINA RESULT:      -7.8      4.543      9.385
REMARK  6 active torsions:
REMARK  status: ('A' for Active; 'I' for Inactive)
REMARK    1  A    between atoms: C_3  and  C_15 
REMARK    2  A    between atoms: C_5  and  C_8 
REMARK       I    between atoms: C_15  and  N_17 
REMARK    3  A    between atoms: N_17  and  C_18 
REMARK    4  A    between atoms: C_23  and  C_24 
REMARK    5  A    between atoms: C_27  and  C_33 
REMARK    6  A    between atoms: C_33  and  N_34 
ROOT
HETATM    1  C   UNK N   1      20.046  15.579   1.436  0.00  0.00     0.047 A 
HETATM    2  C   UNK N   1      19.248  16.009   0.372  0.00  0.00     0.030 A 
HETATM    3  C   UNK N   1      18.410  15.095  -0.274  0.00  0.00     0.002 A 
HETATM    4  C   UNK N   1      18.361  13.761   0.149  0.00  0.00     0.001 A 
HETATM    5  C   UNK N   1      19.166  13.325   1.207  0.00  0.00     0.016 A 
HETATM    6  C   UNK N   1      20.023  14.223   1.851  0.00  0.00     0.019 A 
ENDROOT
BRANCH   1   7
HETATM    7  N   UNK N   1      20.866  16.462   2.167  0.00  0.00    -0.322 N 
HETATM    8  C   UNK N   1      20.652  17.338   3.167  0.00  0.00     0.265 C 
HETATM    9  O   UNK N   1      19.541  17.519   3.642  0.00  0.00    -0.267 OA
HETATM   10  H   UNK N   1      21.808  16.431   1.881  0.00  0.00     0.169 HD
BRANCH   8  11
HETATM   11  C   UNK N   1      21.799  18.211   3.463  0.00  0.00     0.097 A 
HETATM   12  C   UNK N   1      22.060  19.561   3.166  0.00  0.00     0.029 A 
HETATM   13  C   UNK N   1      21.074  20.464   2.512  0.00  0.00     0.070 C 
HETATM   14  N   UNK N   1      23.367  19.960   3.410  0.00  0.00    -0.352 N 
HETATM   15  C   UNK N   1      24.124  18.951   3.927  0.00  0.00     0.086 A 
ATOM     16  HN  UNK N   1      23.719  20.899   3.223  1.00  0.00     0.166 HD
HETATM   17  S   UNK N   1      23.205  17.608   4.076  0.00  0.00    -0.064 SA
BRANCH  15  18
HETATM   18  C   UNK N   1      25.579  18.965   4.146  0.00  0.00     0.013 A 
HETATM   19  C   UNK N   1      26.242  20.187   4.327  0.00  0.00     0.017 A 
HETATM   20  C   UNK N   1      27.603  20.212   4.622  0.00  0.00     0.018 A 
HETATM   21  C   UNK N   1      28.289  19.005   4.749  0.00  0.00     0.087 A 
HETATM   22  N   UNK N   1      27.635  17.824   4.574  0.00  0.00    -0.374 N 
HETATM   23  C   UNK N   1      26.306  17.779   4.278  0.00  0.00     0.101 A 
ATOM     24  HN  UNK N   1      28.153  16.950   4.668  1.00  0.00     0.164 HD
ENDBRANCH  15  18
ENDBRANCH   8  11
ENDBRANCH   1   7
BRANCH   6  25
HETATM   25  C   UNK N   1      20.947  13.749   2.932  0.00  0.00     0.062 A 
HETATM   26  C   UNK N   1      20.681  13.634   4.308  0.00  0.00     0.129 A 
HETATM   27  N   UNK N   1      21.800  13.122   4.854  0.00  0.00    -0.302 N 
HETATM   28  C   UNK N   1      22.287  12.757   6.087  0.00  0.00     0.053 A 
HETATM   29  C   UNK N   1      22.660  12.929   3.876  0.00  0.00     0.155 A 
HETATM   30  C   UNK N   1      23.609  12.235   6.057  0.00  0.00     0.080 A 
HETATM   31  S   UNK N   1      24.061  12.290   4.438  0.00  0.00    -0.063 SA
HETATM   32  N   UNK N   1      22.206  13.293   2.678  0.00  0.00    -0.334 N 
ATOM     33  HN  UNK N   1      22.687  13.243   1.780  1.00  0.00     0.168 HD
BRANCH  28  34
HETATM   34  C   UNK N   1      21.524  12.930   7.354  0.00  0.00     0.330 C 
BRANCH  34  35
HETATM   35  N   UNK N   1      22.078  14.033   8.141  0.00  0.00     0.098 N 
HETATM   36  C   UNK N   1      21.722  15.301   7.495  0.00  0.00     0.299 C 
HETATM   37  C   UNK N   1      20.234  15.627   7.700  0.00  0.00     0.198 C 
HETATM   38  O   UNK N   1      19.959  15.709   9.075  0.00  0.00    -0.388 OA
HETATM   39  C   UNK N   1      20.093  14.406   9.581  0.00  0.00     0.198 C 
HETATM   40  C   UNK N   1      21.569  13.994   9.526  0.00  0.00     0.299 C 
ENDBRANCH  34  35
ENDBRANCH  28  34
ENDBRANCH   6  25
TORSDOF 6
ENDMDL
