REMARK  7 active torsions:
REMARK  status: ('A' for Active; 'I' for Inactive)
REMARK    1  A    between atoms: O_2  and  C_3 
REMARK    2  A    between atoms: C_8  and  O_13 
REMARK    3  A    between atoms: O_13  and  C_14 
REMARK    4  A    between atoms: C_14  and  C_15 
REMARK    5  A    between atoms: C_15  and  C_28 
REMARK       I    between atoms: N_17  and  C_19 
REMARK    6  A    between atoms: C_19  and  C_21 
REMARK    7  A    between atoms: C_28  and  O_30 
ROOT
HETATM    1  C   UNK N   1       6.330   1.397   0.059  0.00  0.00     0.099 C 
HETATM    2  C   UNK N   1       7.711   1.737   0.721  0.00  0.00     0.150 C 
HETATM    3  N   UNK N   1       8.236   0.703  -0.092  0.00  0.00    -0.345 N 
HETATM    4  C   UNK N   1       7.094   0.422  -0.874  0.00  0.00     0.150 C 
HETATM    5  C   UNK N   1       9.255  -0.123   0.296  0.00  0.00     0.253 C 
HETATM    6  O   UNK N   1      10.119   0.305   1.042  0.00  0.00    -0.267 OA
ENDROOT
BRANCH   1   7
HETATM    7  C   UNK N   1       5.374   0.619   0.977  0.00  0.00     0.199 C 
BRANCH   7   8
HETATM    8  O   UNK N   1       5.023  -0.617   0.452  0.00  0.00    -0.350 OA
BRANCH   8   9
HETATM    9  C   UNK N   1       3.752  -1.050   0.263  0.00  0.00     0.069 A 
HETATM   10  C   UNK N   1       2.656  -0.165   0.199  0.00  0.00     0.049 A 
HETATM   11  C   UNK N   1       1.351  -0.672   0.089  0.00  0.00    -0.023 A 
HETATM   12  C   UNK N   1       0.253   0.192   0.039  0.00  0.00     0.015 A 
HETATM   13  C   UNK N   1       1.140  -2.070   0.061  0.00  0.00    -0.023 A 
HETATM   14  C   UNK N   1      -1.048  -0.328  -0.009  0.00  0.00     0.037 A 
HETATM   15  C   UNK N   1      -1.264  -1.712   0.000  0.00  0.00     0.069 A 
HETATM   16  C   UNK N   1      -0.159  -2.581   0.022  0.00  0.00     0.049 A 
HETATM   17  C   UNK N   1       2.230  -2.938   0.090  0.00  0.00     0.015 A 
HETATM   18  C   UNK N   1       3.527  -2.429   0.180  0.00  0.00     0.037 A 
BRANCH  15  19
HETATM   19  O   UNK N   1      -2.535  -2.183   0.003  0.00  0.00    -0.356 OA
HETATM   20  C   UNK N   1      -2.843  -3.522   0.097  0.00  0.00     0.210 C 
ENDBRANCH  15  19
ENDBRANCH   8   9
ENDBRANCH   7   8
ENDBRANCH   1   7
BRANCH   1  21
HETATM   21  C   UNK N   1       5.656   2.574  -0.579  0.00  0.00     0.154 C 
HETATM   22  O   UNK N   1       6.027   3.709  -0.323  0.00  0.00    -0.649 OA
BRANCH  21  23
HETATM   23  O   UNK N   1       4.593   2.385  -1.381  0.00  0.00    -0.776 OA
HETATM   24  H   UNK N   1       4.109   2.961  -1.940  0.00  0.00     0.167 HD
ENDBRANCH  21  23
ENDBRANCH   1  21
BRANCH   5  25
HETATM   25  C   UNK N   1       9.257  -1.577  -0.046  0.00  0.00     0.032 A 
HETATM   26  C   UNK N   1      10.332  -2.385   0.362  0.00  0.00     0.020 A 
HETATM   27  C   UNK N   1      10.260  -3.776   0.234  0.00  0.00     0.043 A 
HETATM   28  C   UNK N   1       9.103  -4.373  -0.276  0.00  0.00     0.116 A 
HETATM   29  C   UNK N   1       8.035  -3.580  -0.693  0.00  0.00     0.043 A 
HETATM   30  F   UNK N   1       9.011  -5.722  -0.353  0.00  0.00    -0.206 F 
HETATM   31  C   UNK N   1       8.114  -2.193  -0.577  0.00  0.00     0.020 A 
ENDBRANCH   5  25
TORSDOF 7
