MODEL 1
REMARK VINA RESULT:      -6.6      0.000      0.000
REMARK  4 active torsions:
REMARK  status: ('A' for Active; 'I' for Inactive)
REMARK    1  A    between atoms: C_3  and  C_14 
REMARK    2  A    between atoms: C_6  and  C_7 
REMARK    3  A    between atoms: C_7  and  N_8 
REMARK       I    between atoms: C_14  and  N_16 
REMARK    4  A    between atoms: N_19  and  C_22 
ROOT
HETATM    1  C   UNK N   1      31.086  17.492   7.369  0.00  0.00     0.010 A 
HETATM    2  C   UNK N   1      32.097  17.617   8.344  0.00  0.00     0.017 A 
HETATM    3  C   UNK N   1      33.446  17.453   7.979  0.00  0.00     0.032 A 
HETATM    4  C   UNK N   1      33.759  17.265   6.633  0.00  0.00     0.017 A 
HETATM    5  C   UNK N   1      32.775  17.170   5.675  0.00  0.00     0.010 A 
HETATM    6  C   UNK N   1      31.429  17.246   6.029  0.00  0.00    -0.030 A 
ENDROOT
BRANCH   3   7
HETATM    7  C   UNK N   1      34.549  17.469   8.985  0.00  0.00     0.253 C 
HETATM    8  O   UNK N   1      35.234  18.479   9.098  0.00  0.00    -0.267 OA
HETATM    9  N   UNK N   1      34.788  16.389   9.802  0.00  0.00    -0.345 N 
HETATM   10  C   UNK N   1      35.923  16.347  10.698  0.00  0.00     0.156 C 
HETATM   11  C   UNK N   1      33.882  15.259   9.852  0.00  0.00     0.156 C 
HETATM   12  C   UNK N   1      36.642  14.996  10.512  0.00  0.00     0.292 C 
HETATM   13  N   UNK N   1      35.690  13.882  10.646  0.00  0.00     0.096 N 
HETATM   14  C   UNK N   1      34.676  13.999   9.599  0.00  0.00     0.292 C 
BRANCH  13  15
HETATM   15  C   UNK N   1      36.398  12.625  10.439  0.00  0.00     0.223 A 
HETATM   16  C   UNK N   1      37.668  12.629  11.270  0.00  0.00     0.038 A 
HETATM   17  C   UNK N   1      36.469  11.837  11.741  0.00  0.00     0.038 A 
ENDBRANCH  13  15
ENDBRANCH   3   7
BRANCH   6  18
HETATM   18  C   UNK N   1      30.372  16.995   4.981  0.00  0.00     0.311 C 
BRANCH  18  19
HETATM   19  N   UNK N   1      29.031  17.309   5.491  0.00  0.00     0.096 N 
HETATM   20  C   UNK N   1      28.543  18.570   4.919  0.00  0.00     0.299 C 
HETATM   21  C   UNK N   1      27.158  18.853   5.499  0.00  0.00     0.198 C 
HETATM   22  O   UNK N   1      26.275  17.841   5.079  0.00  0.00    -0.388 OA
HETATM   23  C   UNK N   1      26.705  16.632   5.668  0.00  0.00     0.198 C 
HETATM   24  C   UNK N   1      28.093  16.249   5.132  0.00  0.00     0.299 C 
ENDBRANCH  18  19
ENDBRANCH   6  18
TORSDOF 4
ENDMDL
MODEL 2
REMARK VINA RESULT:      -6.4     16.730     18.383
REMARK  4 active torsions:
REMARK  status: ('A' for Active; 'I' for Inactive)
REMARK    1  A    between atoms: C_3  and  C_14 
REMARK    2  A    between atoms: C_6  and  C_7 
REMARK    3  A    between atoms: C_7  and  N_8 
REMARK       I    between atoms: C_14  and  N_16 
REMARK    4  A    between atoms: N_19  and  C_22 
ROOT
HETATM    1  C   UNK N   1      25.678  25.561  -4.571  0.00  0.00     0.010 A 
HETATM    2  C   UNK N   1      25.757  24.464  -5.452  0.00  0.00     0.017 A 
HETATM    3  C   UNK N   1      25.799  24.683  -6.841  0.00  0.00     0.032 A 
HETATM    4  C   UNK N   1      25.860  25.995  -7.313  0.00  0.00     0.017 A 
HETATM    5  C   UNK N   1      25.810  27.068  -6.452  0.00  0.00     0.010 A 
HETATM    6  C   UNK N   1      25.683  26.872  -5.078  0.00  0.00    -0.030 A 
ENDROOT
BRANCH   3   7
HETATM    7  C   UNK N   1      25.776  23.560  -7.824  0.00  0.00     0.253 C 
HETATM    8  O   UNK N   1      24.724  23.290  -8.392  0.00  0.00    -0.267 OA
HETATM    9  N   UNK N   1      26.913  22.847  -8.124  0.00  0.00    -0.345 N 
HETATM   10  C   UNK N   1      26.882  21.685  -8.984  0.00  0.00     0.156 C 
HETATM   11  C   UNK N   1      28.216  23.258  -7.640  0.00  0.00     0.156 C 
HETATM   12  C   UNK N   1      27.649  20.542  -8.290  0.00  0.00     0.292 C 
HETATM   13  N   UNK N   1      28.991  20.992  -7.886  0.00  0.00     0.096 N 
HETATM   14  C   UNK N   1      28.852  22.087  -6.928  0.00  0.00     0.292 C 
BRANCH  13  15
HETATM   15  C   UNK N   1      29.675  19.896  -7.213  0.00  0.00     0.223 A 
HETATM   16  C   UNK N   1      29.448  18.615  -7.992  0.00  0.00     0.038 A 
HETATM   17  C   UNK N   1      30.775  19.331  -8.103  0.00  0.00     0.038 A 
ENDBRANCH  13  15
ENDBRANCH   3   7
BRANCH   6  18
HETATM   18  C   UNK N   1      25.487  28.065  -4.174  0.00  0.00     0.311 C 
BRANCH  18  19
HETATM   19  N   UNK N   1      26.704  28.883  -4.097  0.00  0.00     0.096 N 
HETATM   20  C   UNK N   1      26.383  30.245  -3.653  0.00  0.00     0.299 C 
HETATM   21  C   UNK N   1      27.680  31.051  -3.612  0.00  0.00     0.198 C 
HETATM   22  O   UNK N   1      28.532  30.491  -2.642  0.00  0.00    -0.388 OA
HETATM   23  C   UNK N   1      28.890  29.200  -3.088  0.00  0.00     0.198 C 
HETATM   24  C   UNK N   1      27.646  28.300  -3.147  0.00  0.00     0.299 C 
ENDBRANCH  18  19
ENDBRANCH   6  18
TORSDOF 4
ENDMDL
MODEL 3
REMARK VINA RESULT:      -6.4      3.236     10.360
REMARK  4 active torsions:
REMARK  status: ('A' for Active; 'I' for Inactive)
REMARK    1  A    between atoms: C_3  and  C_14 
REMARK    2  A    between atoms: C_6  and  C_7 
REMARK    3  A    between atoms: C_7  and  N_8 
REMARK       I    between atoms: C_14  and  N_16 
REMARK    4  A    between atoms: N_19  and  C_22 
ROOT
HETATM    1  C   UNK N   1      28.616  18.597   7.930  0.00  0.00     0.010 A 
HETATM    2  C   UNK N   1      27.828  19.191   6.924  0.00  0.00     0.017 A 
HETATM    3  C   UNK N   1      28.022  18.830   5.578  0.00  0.00     0.032 A 
HETATM    4  C   UNK N   1      28.932  17.815   5.279  0.00  0.00     0.017 A 
HETATM    5  C   UNK N   1      29.684  17.215   6.264  0.00  0.00     0.010 A 
HETATM    6  C   UNK N   1      29.566  17.617   7.593  0.00  0.00    -0.030 A 
ENDROOT
BRANCH   3   7
HETATM    7  C   UNK N   1      27.293  19.501   4.462  0.00  0.00     0.253 C 
HETATM    8  O   UNK N   1      27.802  20.476   3.921  0.00  0.00    -0.267 OA
HETATM    9  N   UNK N   1      26.082  19.030   4.012  0.00  0.00    -0.345 N 
HETATM   10  C   UNK N   1      25.310  19.735   3.013  0.00  0.00     0.156 C 
HETATM   11  C   UNK N   1      25.540  17.767   4.474  0.00  0.00     0.156 C 
HETATM   12  C   UNK N   1      23.857  19.856   3.513  0.00  0.00     0.292 C 
HETATM   13  N   UNK N   1      23.333  18.536   3.898  0.00  0.00     0.096 N 
HETATM   14  C   UNK N   1      24.143  18.009   4.995  0.00  0.00     0.292 C 
BRANCH  13  15
HETATM   15  C   UNK N   1      21.969  18.692   4.388  0.00  0.00     0.223 A 
HETATM   16  C   UNK N   1      21.178  19.523   3.396  0.00  0.00     0.038 A 
HETATM   17  C   UNK N   1      20.985  18.023   3.436  0.00  0.00     0.038 A 
ENDBRANCH  13  15
ENDBRANCH   3   7
BRANCH   6  18
HETATM   18  C   UNK N   1      30.503  17.044   8.628  0.00  0.00     0.311 C 
BRANCH  18  19
HETATM   19  N   UNK N   1      31.859  16.884   8.090  0.00  0.00     0.096 N 
HETATM   20  C   UNK N   1      32.648  18.103   8.308  0.00  0.00     0.299 C 
HETATM   21  C   UNK N   1      34.038  17.884   7.711  0.00  0.00     0.198 C 
HETATM   22  O   UNK N   1      34.677  16.847   8.417  0.00  0.00    -0.388 OA
HETATM   23  C   UNK N   1      33.956  15.660   8.170  0.00  0.00     0.198 C 
HETATM   24  C   UNK N   1      32.538  15.774   8.751  0.00  0.00     0.299 C 
ENDBRANCH  18  19
ENDBRANCH   6  18
TORSDOF 4
ENDMDL
MODEL 4
REMARK VINA RESULT:      -6.4      1.313      1.435
REMARK  4 active torsions:
REMARK  status: ('A' for Active; 'I' for Inactive)
REMARK    1  A    between atoms: C_3  and  C_14 
REMARK    2  A    between atoms: C_6  and  C_7 
REMARK    3  A    between atoms: C_7  and  N_8 
REMARK       I    between atoms: C_14  and  N_16 
REMARK    4  A    between atoms: N_19  and  C_22 
ROOT
HETATM    1  C   UNK N   1      31.080  17.222   6.397  0.00  0.00     0.010 A 
HETATM    2  C   UNK N   1      31.914  17.467   7.506  0.00  0.00     0.017 A 
HETATM    3  C   UNK N   1      33.310  17.515   7.336  0.00  0.00     0.032 A 
HETATM    4  C   UNK N   1      33.833  17.414   6.047  0.00  0.00     0.017 A 
HETATM    5  C   UNK N   1      33.018  17.202   4.958  0.00  0.00     0.010 A 
HETATM    6  C   UNK N   1      31.640  17.068   5.117  0.00  0.00    -0.030 A 
ENDROOT
BRANCH   3   7
HETATM    7  C   UNK N   1      34.246  17.665   8.489  0.00  0.00     0.253 C 
HETATM    8  O   UNK N   1      34.843  18.725   8.635  0.00  0.00    -0.267 OA
HETATM    9  N   UNK N   1      34.426  16.653   9.402  0.00  0.00    -0.345 N 
HETATM   10  C   UNK N   1      35.414  16.740  10.455  0.00  0.00     0.156 C 
HETATM   11  C   UNK N   1      33.594  15.466   9.393  0.00  0.00     0.156 C 
HETATM   12  C   UNK N   1      36.234  15.435  10.465  0.00  0.00     0.292 C 
HETATM   13  N   UNK N   1      35.343  14.266  10.532  0.00  0.00     0.096 N 
HETATM   14  C   UNK N   1      34.493  14.253   9.343  0.00  0.00     0.292 C 
BRANCH  13  15
HETATM   15  C   UNK N   1      36.150  13.053  10.514  0.00  0.00     0.223 A 
HETATM   16  C   UNK N   1      37.194  13.136  11.612  0.00  0.00     0.038 A 
HETATM   17  C   UNK N   1      35.966  12.275  11.811  0.00  0.00     0.038 A 
ENDBRANCH  13  15
ENDBRANCH   3   7
BRANCH   6  18
HETATM   18  C   UNK N   1      30.789  16.694   3.928  0.00  0.00     0.311 C 
BRANCH  18  19
HETATM   19  N   UNK N   1      29.462  16.225   4.347  0.00  0.00     0.096 N 
HETATM   20  C   UNK N   1      28.417  16.806   3.495  0.00  0.00     0.299 C 
HETATM   21  C   UNK N   1      27.063  16.299   3.990  0.00  0.00     0.198 C 
HETATM   22  O   UNK N   1      27.009  14.904   3.816  0.00  0.00    -0.388 OA
HETATM   23  C   UNK N   1      27.975  14.332   4.672  0.00  0.00     0.198 C 
HETATM   24  C   UNK N   1      29.384  14.771   4.243  0.00  0.00     0.299 C 
ENDBRANCH  18  19
ENDBRANCH   6  18
TORSDOF 4
ENDMDL
MODEL 5
REMARK VINA RESULT:      -6.2      3.073      8.843
REMARK  4 active torsions:
REMARK  status: ('A' for Active; 'I' for Inactive)
REMARK    1  A    between atoms: C_3  and  C_14 
REMARK    2  A    between atoms: C_6  and  C_7 
REMARK    3  A    between atoms: C_7  and  N_8 
REMARK       I    between atoms: C_14  and  N_16 
REMARK    4  A    between atoms: N_19  and  C_22 
ROOT
HETATM    1  C   UNK N   1      36.210  13.360  10.301  0.00  0.00     0.010 A 
HETATM    2  C   UNK N   1      35.872  14.540   9.610  0.00  0.00     0.017 A 
HETATM    3  C   UNK N   1      35.388  15.654  10.320  0.00  0.00     0.032 A 
HETATM    4  C   UNK N   1      35.345  15.595  11.714  0.00  0.00     0.017 A 
HETATM    5  C   UNK N   1      35.701  14.451  12.393  0.00  0.00     0.010 A 
HETATM    6  C   UNK N   1      36.102  13.310  11.702  0.00  0.00    -0.030 A 
ENDROOT
BRANCH   3   7
HETATM    7  C   UNK N   1      34.916  16.892   9.632  0.00  0.00     0.253 C 
HETATM    8  O   UNK N   1      35.575  17.920   9.742  0.00  0.00    -0.267 OA
HETATM    9  N   UNK N   1      33.780  16.892   8.858  0.00  0.00    -0.345 N 
HETATM   10  C   UNK N   1      33.249  18.108   8.281  0.00  0.00     0.156 C 
HETATM   11  C   UNK N   1      33.086  15.663   8.528  0.00  0.00     0.156 C 
HETATM   12  C   UNK N   1      31.739  18.173   8.587  0.00  0.00     0.292 C 
HETATM   13  N   UNK N   1      31.073  16.931   8.165  0.00  0.00     0.096 N 
HETATM   14  C   UNK N   1      31.636  15.814   8.921  0.00  0.00     0.292 C 
BRANCH  13  15
HETATM   15  C   UNK N   1      29.655  17.019   8.491  0.00  0.00     0.223 A 
HETATM   16  C   UNK N   1      29.127  18.369   8.046  0.00  0.00     0.038 A 
HETATM   17  C   UNK N   1      28.825  17.139   7.219  0.00  0.00     0.038 A 
ENDBRANCH  13  15
ENDBRANCH   3   7
BRANCH   6  18
HETATM   18  C   UNK N   1      36.346  12.030  12.463  0.00  0.00     0.311 C 
BRANCH  18  19
HETATM   19  N   UNK N   1      35.438  11.908  13.610  0.00  0.00     0.096 N 
HETATM   20  C   UNK N   1      34.425  10.876  13.359  0.00  0.00     0.299 C 
HETATM   21  C   UNK N   1      33.500  10.809  14.573  0.00  0.00     0.198 C 
HETATM   22  O   UNK N   1      34.247  10.391  15.690  0.00  0.00    -0.388 OA
HETATM   23  C   UNK N   1      35.189  11.403  15.973  0.00  0.00     0.198 C 
HETATM   24  C   UNK N   1      36.184  11.537  14.808  0.00  0.00     0.299 C 
ENDBRANCH  18  19
ENDBRANCH   6  18
TORSDOF 4
ENDMDL
MODEL 6
REMARK VINA RESULT:      -6.0      3.565     10.374
REMARK  4 active torsions:
REMARK  status: ('A' for Active; 'I' for Inactive)
REMARK    1  A    between atoms: C_3  and  C_14 
REMARK    2  A    between atoms: C_6  and  C_7 
REMARK    3  A    between atoms: C_7  and  N_8 
REMARK       I    between atoms: C_14  and  N_16 
REMARK    4  A    between atoms: N_19  and  C_22 
ROOT
HETATM    1  C   UNK N   1      29.684  17.604   5.157  0.00  0.00     0.010 A 
HETATM    2  C   UNK N   1      28.668  18.323   4.497  0.00  0.00     0.017 A 
HETATM    3  C   UNK N   1      27.641  18.930   5.244  0.00  0.00     0.032 A 
HETATM    4  C   UNK N   1      27.708  18.887   6.637  0.00  0.00     0.017 A 
HETATM    5  C   UNK N   1      28.715  18.207   7.284  0.00  0.00     0.010 A 
HETATM    6  C   UNK N   1      29.694  17.529   6.561  0.00  0.00    -0.030 A 
ENDROOT
BRANCH   3   7
HETATM    7  C   UNK N   1      26.483  19.613   4.595  0.00  0.00     0.253 C 
HETATM    8  O   UNK N   1      26.478  20.836   4.527  0.00  0.00    -0.267 OA
HETATM    9  N   UNK N   1      25.445  18.897   4.047  0.00  0.00    -0.345 N 
HETATM   10  C   UNK N   1      24.264  19.546   3.519  0.00  0.00     0.156 C 
HETATM   11  C   UNK N   1      25.503  17.455   3.915  0.00  0.00     0.156 C 
HETATM   12  C   UNK N   1      23.021  18.842   4.098  0.00  0.00     0.292 C 
HETATM   13  N   UNK N   1      23.097  17.390   3.871  0.00  0.00     0.096 N 
HETATM   14  C   UNK N   1      24.272  16.866   4.564  0.00  0.00     0.292 C 
BRANCH  13  15
HETATM   15  C   UNK N   1      21.920  16.757   4.452  0.00  0.00     0.223 A 
HETATM   16  C   UNK N   1      20.674  17.388   3.859  0.00  0.00     0.038 A 
HETATM   17  C   UNK N   1      21.125  16.028   3.376  0.00  0.00     0.038 A 
ENDBRANCH  13  15
ENDBRANCH   3   7
BRANCH   6  18
HETATM   18  C   UNK N   1      30.700  16.676   7.294  0.00  0.00     0.311 C 
BRANCH  18  19
HETATM   19  N   UNK N   1      32.075  17.110   7.012  0.00  0.00     0.096 N 
HETATM   20  C   UNK N   1      32.689  17.691   8.212  0.00  0.00     0.299 C 
HETATM   21  C   UNK N   1      34.104  18.141   7.854  0.00  0.00     0.198 C 
HETATM   22  O   UNK N   1      34.866  17.009   7.508  0.00  0.00    -0.388 OA
HETATM   23  C   UNK N   1      34.315  16.474   6.323  0.00  0.00     0.198 C 
HETATM   24  C   UNK N   1      32.886  15.974   6.586  0.00  0.00     0.299 C 
ENDBRANCH  18  19
ENDBRANCH   6  18
TORSDOF 4
ENDMDL
MODEL 7
REMARK VINA RESULT:      -6.0      2.377      8.697
REMARK  4 active torsions:
REMARK  status: ('A' for Active; 'I' for Inactive)
REMARK    1  A    between atoms: C_3  and  C_14 
REMARK    2  A    between atoms: C_6  and  C_7 
REMARK    3  A    between atoms: C_7  and  N_8 
REMARK       I    between atoms: C_14  and  N_16 
REMARK    4  A    between atoms: N_19  and  C_22 
ROOT
HETATM    1  C   UNK N   1      33.650  14.947   9.543  0.00  0.00     0.010 A 
HETATM    2  C   UNK N   1      32.406  15.354   9.021  0.00  0.00     0.017 A 
HETATM    3  C   UNK N   1      32.226  16.681   8.590  0.00  0.00     0.032 A 
HETATM    4  C   UNK N   1      33.322  17.544   8.601  0.00  0.00     0.017 A 
HETATM    5  C   UNK N   1      34.546  17.141   9.086  0.00  0.00     0.010 A 
HETATM    6  C   UNK N   1      34.721  15.856   9.595  0.00  0.00    -0.030 A 
ENDROOT
BRANCH   3   7
HETATM    7  C   UNK N   1      30.904  17.195   8.127  0.00  0.00     0.253 C 
HETATM    8  O   UNK N   1      30.180  17.776   8.928  0.00  0.00    -0.267 OA
HETATM    9  N   UNK N   1      30.498  17.056   6.821  0.00  0.00    -0.345 N 
HETATM   10  C   UNK N   1      29.174  17.445   6.386  0.00  0.00     0.156 C 
HETATM   11  C   UNK N   1      31.397  16.567   5.795  0.00  0.00     0.156 C 
HETATM   12  C   UNK N   1      28.571  16.288   5.565  0.00  0.00     0.292 C 
HETATM   13  N   UNK N   1      29.493  15.881   4.492  0.00  0.00     0.096 N 
HETATM   14  C   UNK N   1      30.736  15.403   5.095  0.00  0.00     0.292 C 
BRANCH  13  15
HETATM   15  C   UNK N   1      28.902  14.772   3.754  0.00  0.00     0.223 A 
HETATM   16  C   UNK N   1      27.593  15.228   3.139  0.00  0.00     0.038 A 
HETATM   17  C   UNK N   1      28.824  15.106   2.270  0.00  0.00     0.038 A 
ENDBRANCH  13  15
ENDBRANCH   3   7
BRANCH   6  18
HETATM   18  C   UNK N   1      36.030  15.490  10.250  0.00  0.00     0.311 C 
BRANCH  18  19
HETATM   19  N   UNK N   1      35.844  14.453  11.273  0.00  0.00     0.096 N 
HETATM   20  C   UNK N   1      36.826  13.376  11.101  0.00  0.00     0.299 C 
HETATM   21  C   UNK N   1      36.571  12.321  12.177  0.00  0.00     0.198 C 
HETATM   22  O   UNK N   1      36.805  12.895  13.440  0.00  0.00    -0.388 OA
HETATM   23  C   UNK N   1      35.830  13.897  13.637  0.00  0.00     0.198 C 
HETATM   24  C   UNK N   1      36.014  15.021  12.606  0.00  0.00     0.299 C 
ENDBRANCH  18  19
ENDBRANCH   6  18
TORSDOF 4
ENDMDL
MODEL 8
REMARK VINA RESULT:      -5.9      3.672      6.394
REMARK  4 active torsions:
REMARK  status: ('A' for Active; 'I' for Inactive)
REMARK    1  A    between atoms: C_3  and  C_14 
REMARK    2  A    between atoms: C_6  and  C_7 
REMARK    3  A    between atoms: C_7  and  N_8 
REMARK       I    between atoms: C_14  and  N_16 
REMARK    4  A    between atoms: N_19  and  C_22 
ROOT
HETATM    1  C   UNK N   1      34.619  12.740   9.513  0.00  0.00     0.010 A 
HETATM    2  C   UNK N   1      35.155  12.167  10.684  0.00  0.00     0.017 A 
HETATM    3  C   UNK N   1      36.490  12.428  11.044  0.00  0.00     0.032 A 
HETATM    4  C   UNK N   1      37.227  13.332  10.279  0.00  0.00     0.017 A 
HETATM    5  C   UNK N   1      36.696  13.914   9.150  0.00  0.00     0.010 A 
HETATM    6  C   UNK N   1      35.404  13.603   8.730  0.00  0.00    -0.030 A 
ENDROOT
BRANCH   3   7
HETATM    7  C   UNK N   1      37.142  11.766  12.212  0.00  0.00     0.253 C 
HETATM    8  O   UNK N   1      37.826  10.767  12.022  0.00  0.00    -0.267 OA
HETATM    9  N   UNK N   1      37.015  12.271  13.485  0.00  0.00    -0.345 N 
HETATM   10  C   UNK N   1      37.543  11.577  14.639  0.00  0.00     0.156 C 
HETATM   11  C   UNK N   1      36.395  13.557  13.732  0.00  0.00     0.156 C 
HETATM   12  C   UNK N   1      36.443  11.513  15.716  0.00  0.00     0.292 C 
HETATM   13  N   UNK N   1      35.900  12.855  15.981  0.00  0.00     0.096 N 
HETATM   14  C   UNK N   1      35.297  13.370  14.753  0.00  0.00     0.292 C 
BRANCH  13  15
HETATM   15  C   UNK N   1      34.848  12.751  16.983  0.00  0.00     0.223 A 
HETATM   16  C   UNK N   1      35.411  12.091  18.227  0.00  0.00     0.038 A 
HETATM   17  C   UNK N   1      35.198  13.588  18.207  0.00  0.00     0.038 A 
ENDBRANCH  13  15
ENDBRANCH   3   7
BRANCH   6  18
HETATM   18  C   UNK N   1      34.902  14.144   7.414  0.00  0.00     0.311 C 
BRANCH  18  19
HETATM   19  N   UNK N   1      34.345  15.494   7.568  0.00  0.00     0.096 N 
HETATM   20  C   UNK N   1      34.303  16.186   6.275  0.00  0.00     0.299 C 
HETATM   21  C   UNK N   1      33.736  17.587   6.501  0.00  0.00     0.198 C 
HETATM   22  O   UNK N   1      32.407  17.471   6.951  0.00  0.00    -0.388 OA
HETATM   23  C   UNK N   1      32.441  16.855   8.220  0.00  0.00     0.198 C 
HETATM   24  C   UNK N   1      32.986  15.423   8.095  0.00  0.00     0.299 C 
ENDBRANCH  18  19
ENDBRANCH   6  18
TORSDOF 4
ENDMDL
MODEL 9
REMARK VINA RESULT:      -5.9      3.341      8.962
REMARK  4 active torsions:
REMARK  status: ('A' for Active; 'I' for Inactive)
REMARK    1  A    between atoms: C_3  and  C_14 
REMARK    2  A    between atoms: C_6  and  C_7 
REMARK    3  A    between atoms: C_7  and  N_8 
REMARK       I    between atoms: C_14  and  N_16 
REMARK    4  A    between atoms: N_19  and  C_22 
ROOT
HETATM    1  C   UNK N   1      34.688  12.750  10.522  0.00  0.00     0.010 A 
HETATM    2  C   UNK N   1      34.372  13.936   9.830  0.00  0.00     0.017 A 
HETATM    3  C   UNK N   1      35.211  15.060   9.947  0.00  0.00     0.032 A 
HETATM    4  C   UNK N   1      36.396  14.941  10.674  0.00  0.00     0.017 A 
HETATM    5  C   UNK N   1      36.720  13.773  11.329  0.00  0.00     0.010 A 
HETATM    6  C   UNK N   1      35.860  12.677  11.294  0.00  0.00    -0.030 A 
ENDROOT
BRANCH   3   7
HETATM    7  C   UNK N   1      34.872  16.373   9.324  0.00  0.00     0.253 C 
HETATM    8  O   UNK N   1      34.714  17.350  10.048  0.00  0.00    -0.267 OA
HETATM    9  N   UNK N   1      34.766  16.513   7.960  0.00  0.00    -0.345 N 
HETATM   10  C   UNK N   1      34.325  17.749   7.351  0.00  0.00     0.156 C 
HETATM   11  C   UNK N   1      35.146  15.446   7.056  0.00  0.00     0.156 C 
HETATM   12  C   UNK N   1      33.228  17.421   6.319  0.00  0.00     0.292 C 
HETATM   13  N   UNK N   1      33.694  16.386   5.382  0.00  0.00     0.096 N 
HETATM   14  C   UNK N   1      33.984  15.166   6.133  0.00  0.00     0.292 C 
BRANCH  13  15
HETATM   15  C   UNK N   1      32.625  16.084   4.439  0.00  0.00     0.223 A 
HETATM   16  C   UNK N   1      32.158  17.373   3.789  0.00  0.00     0.038 A 
HETATM   17  C   UNK N   1      33.056  16.431   3.020  0.00  0.00     0.038 A 
ENDBRANCH  13  15
ENDBRANCH   3   7
BRANCH   6  18
HETATM   18  C   UNK N   1      36.171  11.464  12.136  0.00  0.00     0.311 C 
BRANCH  18  19
HETATM   19  N   UNK N   1      36.116  11.780  13.569  0.00  0.00     0.096 N 
HETATM   20  C   UNK N   1      34.729  12.005  13.995  0.00  0.00     0.299 C 
HETATM   21  C   UNK N   1      34.737  12.349  15.484  0.00  0.00     0.198 C 
HETATM   22  O   UNK N   1      35.213  11.237  16.203  0.00  0.00    -0.388 OA
HETATM   23  C   UNK N   1      36.564  11.045  15.840  0.00  0.00     0.198 C 
HETATM   24  C   UNK N   1      36.662  10.676  14.352  0.00  0.00     0.299 C 
ENDBRANCH  18  19
ENDBRANCH   6  18
TORSDOF 4
ENDMDL
