MODEL 1
REMARK VINA RESULT:      -5.6      0.000      0.000
REMARK  5 active torsions:
REMARK  status: ('A' for Active; 'I' for Inactive)
REMARK    1  A    between atoms: C_11  and  C_8 
REMARK    2  A    between atoms: N_14  and  C_8 
REMARK    3  A    between atoms: C_11  and  C_9 
REMARK    4  A    between atoms: O_15  and  C_11 
REMARK    5  A    between atoms: N_14  and  C_12 
ROOT
HETATM    1  C   UNK N   1      27.205  24.239  -3.805  0.00  0.00     0.170 C 
ENDROOT
BRANCH   1   2
HETATM    2  C   UNK N   1      28.714  24.361  -3.922  0.00  0.00     0.151 C 
BRANCH   2   3
HETATM    3  N   UNK N   1      29.239  23.085  -4.404  0.00  0.00    -0.411 N 
HETATM    4  H   UNK N   1      28.842  22.569  -5.189  0.00  0.00     0.154 HD
BRANCH   3   5
HETATM    5  C   UNK N   1      30.398  22.629  -3.633  0.00  0.00     0.014 C 
HETATM    6  C   UNK N   1      30.513  21.127  -3.795  0.00  0.00     0.037 C 
HETATM    7  C   UNK N   1      30.215  22.933  -2.156  0.00  0.00     0.037 C 
HETATM    8  C   UNK N   1      31.692  23.254  -4.136  0.00  0.00     0.037 C 
ENDBRANCH   3   5
ENDBRANCH   2   3
ENDBRANCH   1   2
BRANCH   1   9
HETATM    9  C   UNK N   1      26.471  25.489  -4.232  0.00  0.00    -0.006 A 
HETATM   10  C   UNK N   1      26.397  26.586  -3.354  0.00  0.00     0.011 A 
HETATM   11  C   UNK N   1      25.691  27.737  -3.708  0.00  0.00     0.001 A 
HETATM   12  C   UNK N   1      25.049  27.810  -4.945  0.00  0.00     0.002 A 
HETATM   13  C   UNK N   1      25.112  26.730  -5.828  0.00  0.00     0.024 A 
HETATM   14  C   UNK N   1      25.813  25.572  -5.483  0.00  0.00     0.043 A 
HETATM   15 Cl   UNK N   1      25.826  24.245  -6.637  0.00  0.00    -0.084 Cl
ENDBRANCH   1   9
BRANCH   1  16
HETATM   16  O   UNK N   1      26.877  23.857  -2.501  0.00  0.00    -0.389 OA
HETATM   17  H   UNK N   1      26.084  24.216  -2.073  0.00  0.00     0.210 HD
ENDBRANCH   1  16
TORSDOF 5
ENDMDL
MODEL 2
REMARK VINA RESULT:      -5.3     11.540     13.366
REMARK  5 active torsions:
REMARK  status: ('A' for Active; 'I' for Inactive)
REMARK    1  A    between atoms: C_11  and  C_8 
REMARK    2  A    between atoms: N_14  and  C_8 
REMARK    3  A    between atoms: C_11  and  C_9 
REMARK    4  A    between atoms: O_15  and  C_11 
REMARK    5  A    between atoms: N_14  and  C_12 
ROOT
HETATM    1  C   UNK N   1      28.369  18.010   8.286  0.00  0.00     0.170 C 
ENDROOT
BRANCH   1   2
HETATM    2  C   UNK N   1      29.772  18.319   8.778  0.00  0.00     0.151 C 
BRANCH   2   3
HETATM    3  N   UNK N   1      30.412  17.060   9.152  0.00  0.00    -0.411 N 
HETATM    4  H   UNK N   1      30.058  16.438   9.879  0.00  0.00     0.154 HD
BRANCH   3   5
HETATM    5  C   UNK N   1      31.621  16.790   8.368  0.00  0.00     0.014 C 
HETATM    6  C   UNK N   1      32.344  15.620   9.002  0.00  0.00     0.037 C 
HETATM    7  C   UNK N   1      32.552  17.990   8.387  0.00  0.00     0.037 C 
HETATM    8  C   UNK N   1      31.288  16.412   6.932  0.00  0.00     0.037 C 
ENDBRANCH   3   5
ENDBRANCH   2   3
ENDBRANCH   1   2
BRANCH   1   9
HETATM    9  C   UNK N   1      28.029  18.696   6.983  0.00  0.00    -0.006 A 
HETATM   10  C   UNK N   1      27.863  20.093   6.956  0.00  0.00     0.011 A 
HETATM   11  C   UNK N   1      27.510  20.746   5.774  0.00  0.00     0.001 A 
HETATM   12  C   UNK N   1      27.319  20.014   4.602  0.00  0.00     0.002 A 
HETATM   13  C   UNK N   1      27.480  18.628   4.611  0.00  0.00     0.024 A 
HETATM   14  C   UNK N   1      27.831  17.963   5.789  0.00  0.00     0.043 A 
HETATM   15 Cl   UNK N   1      27.992  16.212   5.728  0.00  0.00    -0.084 Cl
ENDBRANCH   1   9
BRANCH   1  16
HETATM   16  O   UNK N   1      27.453  18.317   9.296  0.00  0.00    -0.389 OA
HETATM   17  H   UNK N   1      26.522  18.058   9.205  0.00  0.00     0.210 HD
ENDBRANCH   1  16
TORSDOF 5
ENDMDL
MODEL 3
REMARK VINA RESULT:      -5.3     13.760     15.822
REMARK  5 active torsions:
REMARK  status: ('A' for Active; 'I' for Inactive)
REMARK    1  A    between atoms: C_11  and  C_8 
REMARK    2  A    between atoms: N_14  and  C_8 
REMARK    3  A    between atoms: C_11  and  C_9 
REMARK    4  A    between atoms: O_15  and  C_11 
REMARK    5  A    between atoms: N_14  and  C_12 
ROOT
HETATM    1  C   UNK N   1      34.001  18.054   8.523  0.00  0.00     0.170 C 
ENDROOT
BRANCH   1   2
HETATM    2  C   UNK N   1      34.802  16.918   9.136  0.00  0.00     0.151 C 
BRANCH   2   3
HETATM    3  N   UNK N   1      33.869  16.005   9.792  0.00  0.00    -0.411 N 
HETATM    4  H   UNK N   1      33.187  16.297  10.492  0.00  0.00     0.154 HD
BRANCH   3   5
HETATM    5  C   UNK N   1      34.024  14.621   9.334  0.00  0.00     0.014 C 
HETATM    6  C   UNK N   1      32.675  14.131   8.849  0.00  0.00     0.037 C 
HETATM    7  C   UNK N   1      34.472  13.724  10.474  0.00  0.00     0.037 C 
HETATM    8  C   UNK N   1      35.004  14.518   8.174  0.00  0.00     0.037 C 
ENDBRANCH   3   5
ENDBRANCH   2   3
ENDBRANCH   1   2
BRANCH   1   9
HETATM    9  C   UNK N   1      33.215  17.636   7.301  0.00  0.00    -0.006 A 
HETATM   10  C   UNK N   1      33.881  17.448   6.076  0.00  0.00     0.011 A 
HETATM   11  C   UNK N   1      33.172  17.102   4.925  0.00  0.00     0.001 A 
HETATM   12  C   UNK N   1      31.788  16.937   4.980  0.00  0.00     0.002 A 
HETATM   13  C   UNK N   1      31.111  17.120   6.187  0.00  0.00     0.024 A 
HETATM   14  C   UNK N   1      31.810  17.470   7.345  0.00  0.00     0.043 A 
HETATM   15 Cl   UNK N   1      30.885  17.708   8.823  0.00  0.00    -0.084 Cl
ENDBRANCH   1   9
BRANCH   1  16
HETATM   16  O   UNK N   1      34.858  19.125   8.255  0.00  0.00    -0.389 OA
HETATM   17  H   UNK N   1      35.551  19.365   8.890  0.00  0.00     0.210 HD
ENDBRANCH   1  16
TORSDOF 5
ENDMDL
MODEL 4
REMARK VINA RESULT:      -5.3     21.336     24.171
REMARK  5 active torsions:
REMARK  status: ('A' for Active; 'I' for Inactive)
REMARK    1  A    between atoms: C_11  and  C_8 
REMARK    2  A    between atoms: N_14  and  C_8 
REMARK    3  A    between atoms: C_11  and  C_9 
REMARK    4  A    between atoms: O_15  and  C_11 
REMARK    5  A    between atoms: N_14  and  C_12 
ROOT
HETATM    1  C   UNK N   1      36.844  13.417  14.923  0.00  0.00     0.170 C 
ENDROOT
BRANCH   1   2
HETATM    2  C   UNK N   1      35.810  13.849  13.897  0.00  0.00     0.151 C 
BRANCH   2   3
HETATM    3  N   UNK N   1      36.403  14.891  13.062  0.00  0.00    -0.411 N 
HETATM    4  H   UNK N   1      36.989  15.643  13.425  0.00  0.00     0.154 HD
BRANCH   3   5
HETATM    5  C   UNK N   1      36.062  14.736  11.645  0.00  0.00     0.014 C 
HETATM    6  C   UNK N   1      34.713  14.054  11.556  0.00  0.00     0.037 C 
HETATM    7  C   UNK N   1      37.085  13.862  10.939  0.00  0.00     0.037 C 
HETATM    8  C   UNK N   1      35.954  16.082  10.941  0.00  0.00     0.037 C 
ENDBRANCH   3   5
ENDBRANCH   2   3
ENDBRANCH   1   2
BRANCH   1   9
HETATM    9  C   UNK N   1      36.246  12.673  16.094  0.00  0.00    -0.006 A 
HETATM   10  C   UNK N   1      35.579  13.388  17.106  0.00  0.00     0.011 A 
HETATM   11  C   UNK N   1      35.054  12.729  18.218  0.00  0.00     0.001 A 
HETATM   12  C   UNK N   1      35.185  11.345  18.336  0.00  0.00     0.002 A 
HETATM   13  C   UNK N   1      35.845  10.619  17.342  0.00  0.00     0.024 A 
HETATM   14  C   UNK N   1      36.377  11.269  16.226  0.00  0.00     0.043 A 
HETATM   15 Cl   UNK N   1      37.215  10.291  15.028  0.00  0.00    -0.084 Cl
ENDBRANCH   1   9
BRANCH   1  16
HETATM   16  O   UNK N   1      37.578  14.535  15.330  0.00  0.00    -0.389 OA
HETATM   17  H   UNK N   1      37.253  15.428  15.136  0.00  0.00     0.210 HD
ENDBRANCH   1  16
TORSDOF 5
ENDMDL
MODEL 5
REMARK VINA RESULT:      -5.2      2.554      5.217
REMARK  5 active torsions:
REMARK  status: ('A' for Active; 'I' for Inactive)
REMARK    1  A    between atoms: C_11  and  C_8 
REMARK    2  A    between atoms: N_14  and  C_8 
REMARK    3  A    between atoms: C_11  and  C_9 
REMARK    4  A    between atoms: O_15  and  C_11 
REMARK    5  A    between atoms: N_14  and  C_12 
ROOT
HETATM    1  C   UNK N   1      27.314  24.688  -3.603  0.00  0.00     0.170 C 
ENDROOT
BRANCH   1   2
HETATM    2  C   UNK N   1      26.472  25.952  -3.584  0.00  0.00     0.151 C 
BRANCH   2   3
HETATM    3  N   UNK N   1      27.290  27.053  -4.087  0.00  0.00    -0.411 N 
HETATM    4  H   UNK N   1      28.289  27.147  -3.904  0.00  0.00     0.154 HD
BRANCH   3   5
HETATM    5  C   UNK N   1      26.515  28.008  -4.885  0.00  0.00     0.014 C 
HETATM    6  C   UNK N   1      26.261  29.236  -4.036  0.00  0.00     0.037 C 
HETATM    7  C   UNK N   1      25.173  27.415  -5.277  0.00  0.00     0.037 C 
HETATM    8  C   UNK N   1      27.273  28.448  -6.129  0.00  0.00     0.037 C 
ENDBRANCH   3   5
ENDBRANCH   2   3
ENDBRANCH   1   2
BRANCH   1   9
HETATM    9  C   UNK N   1      27.221  23.929  -4.907  0.00  0.00    -0.006 A 
HETATM   10  C   UNK N   1      25.971  23.778  -5.535  0.00  0.00     0.011 A 
HETATM   11  C   UNK N   1      25.852  23.048  -6.719  0.00  0.00     0.001 A 
HETATM   12  C   UNK N   1      26.979  22.459  -7.293  0.00  0.00     0.002 A 
HETATM   13  C   UNK N   1      28.227  22.599  -6.683  0.00  0.00     0.024 A 
HETATM   14  C   UNK N   1      28.357  23.325  -5.496  0.00  0.00     0.043 A 
HETATM   15 Cl   UNK N   1      29.957  23.437  -4.773  0.00  0.00    -0.084 Cl
ENDBRANCH   1   9
BRANCH   1  16
HETATM   16  O   UNK N   1      26.969  23.892  -2.507  0.00  0.00    -0.389 OA
HETATM   17  H   UNK N   1      27.488  23.940  -1.688  0.00  0.00     0.210 HD
ENDBRANCH   1  16
TORSDOF 5
ENDMDL
MODEL 6
REMARK VINA RESULT:      -5.1     11.073     13.819
REMARK  5 active torsions:
REMARK  status: ('A' for Active; 'I' for Inactive)
REMARK    1  A    between atoms: C_11  and  C_8 
REMARK    2  A    between atoms: N_14  and  C_8 
REMARK    3  A    between atoms: C_11  and  C_9 
REMARK    4  A    between atoms: O_15  and  C_11 
REMARK    5  A    between atoms: N_14  and  C_12 
ROOT
HETATM    1  C   UNK N   1      28.258  17.752   7.433  0.00  0.00     0.170 C 
ENDROOT
BRANCH   1   2
HETATM    2  C   UNK N   1      27.764  19.179   7.268  0.00  0.00     0.151 C 
BRANCH   2   3
HETATM    3  N   UNK N   1      26.665  19.172   6.304  0.00  0.00    -0.411 N 
HETATM    4  H   UNK N   1      25.873  18.532   6.353  0.00  0.00     0.154 HD
BRANCH   3   5
HETATM    5  C   UNK N   1      26.829  20.188   5.261  0.00  0.00     0.014 C 
HETATM    6  C   UNK N   1      27.047  21.527   5.935  0.00  0.00     0.037 C 
HETATM    7  C   UNK N   1      25.578  20.286   4.405  0.00  0.00     0.037 C 
HETATM    8  C   UNK N   1      28.040  19.904   4.382  0.00  0.00     0.037 C 
ENDBRANCH   3   5
ENDBRANCH   2   3
ENDBRANCH   1   2
BRANCH   1   9
HETATM    9  C   UNK N   1      29.765  17.636   7.398  0.00  0.00    -0.006 A 
HETATM   10  C   UNK N   1      30.395  17.102   6.260  0.00  0.00     0.011 A 
HETATM   11  C   UNK N   1      31.782  16.947   6.219  0.00  0.00     0.001 A 
HETATM   12  C   UNK N   1      32.559  17.324   7.314  0.00  0.00     0.002 A 
HETATM   13  C   UNK N   1      31.950  17.854   8.452  0.00  0.00     0.024 A 
HETATM   14  C   UNK N   1      30.563  18.012   8.505  0.00  0.00     0.043 A 
HETATM   15 Cl   UNK N   1      29.866  18.665   9.983  0.00  0.00    -0.084 Cl
ENDBRANCH   1   9
BRANCH   1  16
HETATM   16  O   UNK N   1      27.647  16.943   6.471  0.00  0.00    -0.389 OA
HETATM   17  H   UNK N   1      26.921  17.292   5.931  0.00  0.00     0.210 HD
ENDBRANCH   1  16
TORSDOF 5
ENDMDL
MODEL 7
REMARK VINA RESULT:      -5.0      2.365      5.901
REMARK  5 active torsions:
REMARK  status: ('A' for Active; 'I' for Inactive)
REMARK    1  A    between atoms: C_11  and  C_8 
REMARK    2  A    between atoms: N_14  and  C_8 
REMARK    3  A    between atoms: C_11  and  C_9 
REMARK    4  A    between atoms: O_15  and  C_11 
REMARK    5  A    between atoms: N_14  and  C_12 
ROOT
HETATM    1  C   UNK N   1      27.879  24.511  -3.705  0.00  0.00     0.170 C 
ENDROOT
BRANCH   1   2
HETATM    2  C   UNK N   1      27.258  25.370  -4.793  0.00  0.00     0.151 C 
BRANCH   2   3
HETATM    3  N   UNK N   1      27.651  26.758  -4.559  0.00  0.00    -0.411 N 
HETATM    4  H   UNK N   1      28.580  27.038  -4.245  0.00  0.00     0.154 HD
BRANCH   3   5
HETATM    5  C   UNK N   1      26.562  27.701  -4.826  0.00  0.00     0.014 C 
HETATM    6  C   UNK N   1      25.689  27.119  -5.919  0.00  0.00     0.037 C 
HETATM    7  C   UNK N   1      27.111  29.031  -5.315  0.00  0.00     0.037 C 
HETATM    8  C   UNK N   1      25.690  27.919  -3.597  0.00  0.00     0.037 C 
ENDBRANCH   3   5
ENDBRANCH   2   3
ENDBRANCH   1   2
BRANCH   1   9
HETATM    9  C   UNK N   1      28.747  23.398  -4.247  0.00  0.00    -0.006 A 
HETATM   10  C   UNK N   1      28.663  23.050  -5.607  0.00  0.00     0.011 A 
HETATM   11  C   UNK N   1      29.424  22.000  -6.124  0.00  0.00     0.001 A 
HETATM   12  C   UNK N   1      30.281  21.283  -5.289  0.00  0.00     0.002 A 
HETATM   13  C   UNK N   1      30.376  21.614  -3.936  0.00  0.00     0.024 A 
HETATM   14  C   UNK N   1      29.617  22.662  -3.408  0.00  0.00     0.043 A 
HETATM   15 Cl   UNK N   1      29.773  23.005  -1.689  0.00  0.00    -0.084 Cl
ENDBRANCH   1   9
BRANCH   1  16
HETATM   16  O   UNK N   1      26.867  24.029  -2.870  0.00  0.00    -0.389 OA
HETATM   17  H   UNK N   1      26.557  23.114  -2.960  0.00  0.00     0.210 HD
ENDBRANCH   1  16
TORSDOF 5
ENDMDL
MODEL 8
REMARK VINA RESULT:      -4.9     15.715     18.215
REMARK  5 active torsions:
REMARK  status: ('A' for Active; 'I' for Inactive)
REMARK    1  A    between atoms: C_11  and  C_8 
REMARK    2  A    between atoms: N_14  and  C_8 
REMARK    3  A    between atoms: C_11  and  C_9 
REMARK    4  A    between atoms: O_15  and  C_11 
REMARK    5  A    between atoms: N_14  and  C_12 
ROOT
HETATM    1  C   UNK N   1      33.339  14.655   9.780  0.00  0.00     0.170 C 
ENDROOT
BRANCH   1   2
HETATM    2  C   UNK N   1      34.619  13.917  10.132  0.00  0.00     0.151 C 
BRANCH   2   3
HETATM    3  N   UNK N   1      34.531  13.492  11.527  0.00  0.00    -0.411 N 
HETATM    4  H   UNK N   1      33.720  13.019  11.925  0.00  0.00     0.154 HD
BRANCH   3   5
HETATM    5  C   UNK N   1      35.738  13.820  12.291  0.00  0.00     0.014 C 
HETATM    6  C   UNK N   1      35.506  13.424  13.734  0.00  0.00     0.037 C 
HETATM    7  C   UNK N   1      36.012  15.313  12.247  0.00  0.00     0.037 C 
HETATM    8  C   UNK N   1      36.952  13.053  11.785  0.00  0.00     0.037 C 
ENDBRANCH   3   5
ENDBRANCH   2   3
ENDBRANCH   1   2
BRANCH   1   9
HETATM    9  C   UNK N   1      33.558  15.807   8.827  0.00  0.00    -0.006 A 
HETATM   10  C   UNK N   1      34.330  16.910   9.235  0.00  0.00     0.011 A 
HETATM   11  C   UNK N   1      34.515  18.005   8.389  0.00  0.00     0.001 A 
HETATM   12  C   UNK N   1      33.932  18.014   7.122  0.00  0.00     0.002 A 
HETATM   13  C   UNK N   1      33.162  16.928   6.700  0.00  0.00     0.024 A 
HETATM   14  C   UNK N   1      32.968  15.828   7.540  0.00  0.00     0.043 A 
HETATM   15 Cl   UNK N   1      31.966  14.509   6.949  0.00  0.00    -0.084 Cl
ENDBRANCH   1   9
BRANCH   1  16
HETATM   16  O   UNK N   1      32.707  15.061  10.958  0.00  0.00    -0.389 OA
HETATM   17  H   UNK N   1      32.724  15.994  11.224  0.00  0.00     0.210 HD
ENDBRANCH   1  16
TORSDOF 5
ENDMDL
MODEL 9
REMARK VINA RESULT:      -4.9     10.172     11.076
REMARK  5 active torsions:
REMARK  status: ('A' for Active; 'I' for Inactive)
REMARK    1  A    between atoms: C_11  and  C_8 
REMARK    2  A    between atoms: N_14  and  C_8 
REMARK    3  A    between atoms: C_11  and  C_9 
REMARK    4  A    between atoms: O_15  and  C_11 
REMARK    5  A    between atoms: N_14  and  C_12 
ROOT
HETATM    1  C   UNK N   1      23.685  18.345   4.373  0.00  0.00     0.170 C 
ENDROOT
BRANCH   1   2
HETATM    2  C   UNK N   1      24.917  19.224   4.240  0.00  0.00     0.151 C 
BRANCH   2   3
HETATM    3  N   UNK N   1      25.512  19.379   5.566  0.00  0.00    -0.411 N 
HETATM    4  H   UNK N   1      25.038  19.127   6.433  0.00  0.00     0.154 HD
BRANCH   3   5
HETATM    5  C   UNK N   1      26.867  19.936   5.511  0.00  0.00     0.014 C 
HETATM    6  C   UNK N   1      26.815  21.355   6.037  0.00  0.00     0.037 C 
HETATM    7  C   UNK N   1      27.372  19.979   4.079  0.00  0.00     0.037 C 
HETATM    8  C   UNK N   1      27.836  19.150   6.382  0.00  0.00     0.037 C 
ENDBRANCH   3   5
ENDBRANCH   2   3
ENDBRANCH   1   2
BRANCH   1   9
HETATM    9  C   UNK N   1      22.511  18.839   3.561  0.00  0.00    -0.006 A 
HETATM   10  C   UNK N   1      22.500  20.163   3.087  0.00  0.00     0.011 A 
HETATM   11  C   UNK N   1      21.410  20.655   2.368  0.00  0.00     0.001 A 
HETATM   12  C   UNK N   1      20.313  19.832   2.112  0.00  0.00     0.002 A 
HETATM   13  C   UNK N   1      20.306  18.515   2.576  0.00  0.00     0.024 A 
HETATM   14  C   UNK N   1      21.391  18.013   3.298  0.00  0.00     0.043 A 
HETATM   15 Cl   UNK N   1      21.299  16.352   3.871  0.00  0.00    -0.084 Cl
ENDBRANCH   1   9
BRANCH   1  16
HETATM   16  O   UNK N   1      23.367  18.207   5.727  0.00  0.00    -0.389 OA
HETATM   17  H   UNK N   1      23.582  17.386   6.197  0.00  0.00     0.210 HD
ENDBRANCH   1  16
TORSDOF 5
ENDMDL
