REMARK  6 active torsions:
REMARK  status: ('A' for Active; 'I' for Inactive)
REMARK    1  A    between atoms: C_9  and  C_23 
REMARK    2  A    between atoms: C_10  and  C_12 
REMARK    3  A    between atoms: C_13  and  C_14 
REMARK    4  A    between atoms: C_17  and  C_20 
REMARK    5  A    between atoms: C_20  and  O_22 
REMARK    6  A    between atoms: C_23  and  N_24 
ROOT
HETATM    1  C   UNK N   1      -1.643   1.312   1.753  0.00  0.00     0.020 C 
HETATM    2  C   UNK N   1      -1.911   0.647   0.412  0.00  0.00    -0.020 C 
HETATM    3  C   UNK N   1      -3.113  -0.272   0.633  0.00  0.00     0.015 C 
HETATM    4  C   UNK N   1      -3.231  -1.320  -0.456  0.00  0.00     0.015 C 
HETATM    5  C   UNK N   1      -2.020  -2.249  -0.441  0.00  0.00    -0.020 C 
HETATM    6  C   UNK N   1      -0.723  -1.463  -0.438  0.00  0.00    -0.042 A 
HETATM    7  C   UNK N   1      -0.676  -0.097  -0.054  0.00  0.00    -0.043 A 
HETATM    8  C   UNK N   1       0.555   0.578  -0.049  0.00  0.00     0.018 A 
HETATM    9  C   UNK N   1       1.734  -0.074  -0.395  0.00  0.00    -0.028 A 
HETATM   10  C   UNK N   1       1.678  -1.443  -0.780  0.00  0.00    -0.028 A 
HETATM   11  C   UNK N   1       0.462  -2.113  -0.785  0.00  0.00     0.020 A 
HETATM   12  C   UNK N   1      -2.126  -3.124  -1.680  0.00  0.00     0.020 C 
HETATM   13  C   UNK N   1      -2.058  -3.155   0.783  0.00  0.00     0.020 C 
HETATM   14  C   UNK N   1      -2.254   1.723  -0.603  0.00  0.00     0.020 C 
ENDROOT
BRANCH  10  15
HETATM   15  C   UNK N   1       2.879  -2.248  -1.015  0.00  0.00     0.013 C 
HETATM   16  C   UNK N   1       4.054  -1.671  -1.223  0.00  0.00     0.012 C 
BRANCH  16  17
HETATM   17  C   UNK N   1       5.279  -2.284  -0.768  0.00  0.00    -0.036 A 
HETATM   18  C   UNK N   1       6.466  -1.563  -0.877  0.00  0.00     0.012 A 
HETATM   19  C   UNK N   1       7.638  -2.079  -0.331  0.00  0.00     0.019 A 
HETATM   20  C   UNK N   1       7.615  -3.308   0.343  0.00  0.00     0.037 A 
HETATM   21  C   UNK N   1       6.410  -4.002   0.490  0.00  0.00     0.019 A 
HETATM   22  C   UNK N   1       5.244  -3.486  -0.052  0.00  0.00     0.012 A 
BRANCH  20  23
HETATM   23  C   UNK N   1       8.856  -3.906   0.841  0.00  0.00     0.176 C 
HETATM   24  O   UNK N   1       9.920  -3.328   0.692  0.00  0.00    -0.646 OA
BRANCH  23  25
HETATM   25  O   UNK N   1       8.832  -5.124   1.415  0.00  0.00    -0.773 OA
HETATM   26  H   UNK N   1       8.090  -5.534   1.814  0.00  0.00     0.167 HD
ENDBRANCH  23  25
ENDBRANCH  20  23
ENDBRANCH  16  17
ENDBRANCH  10  15
BRANCH   9  27
HETATM   27  C   UNK N   1       3.069   0.611  -0.188  0.00  0.00     0.187 C 
BRANCH  27  28
HETATM   28  N   UNK N   1       3.093   2.057  -0.230  0.00  0.00    -0.299 N 
HETATM   29  C   UNK N   1       2.541   2.894   0.657  0.00  0.00     0.112 A 
HETATM   30  C   UNK N   1       2.917   4.181   0.320  0.00  0.00     0.037 A 
HETATM   31  C   UNK N   1       3.730   4.041  -0.796  0.00  0.00     0.108 A 
HETATM   32  N   UNK N   1       3.825   2.737  -1.100  0.00  0.00    -0.310 N 
ATOM     33  HN  UNK N   1       4.368   2.339  -1.866  1.00  0.00     0.186 HD
ENDBRANCH  27  28
ENDBRANCH   9  27
TORSDOF 6
