MODEL 1
REMARK VINA RESULT:      -6.8      0.000      0.000
REMARK  9 active torsions:
REMARK  status: ('A' for Active; 'I' for Inactive)
REMARK    1  A    between atoms: C_7  and  C_5 
REMARK    2  A    between atoms: C_8  and  C_5 
REMARK    3  A    between atoms: C_15  and  C_7 
REMARK    4  A    between atoms: C_16  and  C_8 
REMARK    5  A    between atoms: C_15  and  C_13 
REMARK    6  A    between atoms: C_18  and  C_13 
REMARK    7  A    between atoms: C_16  and  C_14 
REMARK    8  A    between atoms: C_20  and  C_14 
REMARK    9  A    between atoms: O_22  and  C_20 
ROOT
HETATM    1  C   UNK N   1      25.989  24.045  -6.739  0.00  0.00     0.048 C 
HETATM    2  C   UNK N   1      25.723  24.869  -5.517  0.00  0.00    -0.061 C 
ENDROOT
BRANCH   2   3
HETATM    3  C   UNK N   1      25.996  24.305  -4.303  0.00  0.00     0.007 C 
BRANCH   3   4
HETATM    4  C   UNK N   1      27.222  24.540  -3.465  0.00  0.00     0.001 C 
BRANCH   4   5
HETATM    5  C   UNK N   1      28.320  25.184  -3.915  0.00  0.00     0.007 C 
BRANCH   5   6
HETATM    6  C   UNK N   1      29.552  24.504  -4.384  0.00  0.00    -0.056 C 
HETATM    7  C   UNK N   1      29.694  24.097  -5.821  0.00  0.00     0.048 C 
BRANCH   6   8
HETATM    8  C   UNK N   1      30.560  24.351  -3.492  0.00  0.00     0.087 C 
BRANCH   8   9
HETATM    9  C   UNK N   1      30.831  23.135  -2.690  0.00  0.00     0.165 C 
HETATM   10  O   UNK N   1      31.526  22.226  -3.122  0.00  0.00    -0.647 OA
BRANCH   9  11
HETATM   11  O   UNK N   1      30.328  23.045  -1.445  0.00  0.00    -0.773 OA
HETATM   12  H   UNK N   1      29.600  22.482  -1.267  0.00  0.00     0.167 HD
ENDBRANCH   9  11
ENDBRANCH   8   9
ENDBRANCH   6   8
ENDBRANCH   5   6
ENDBRANCH   4   5
ENDBRANCH   3   4
ENDBRANCH   2   3
BRANCH   2  13
HETATM   13  C   UNK N   1      25.234  26.283  -5.647  0.00  0.00     0.014 C 
BRANCH  13  14
HETATM   14  C   UNK N   1      25.839  27.412  -5.207  0.00  0.00    -0.047 C 
HETATM   15  C   UNK N   1      25.552  27.978  -3.833  0.00  0.00     0.040 C 
HETATM   16  C   UNK N   1      26.636  28.944  -3.344  0.00  0.00     0.009 C 
HETATM   17  C   UNK N   1      26.966  29.971  -4.417  0.00  0.00     0.040 C 
HETATM   18  C   UNK N   1      27.473  29.279  -5.640  0.00  0.00    -0.047 A 
HETATM   19  C   UNK N   1      28.522  29.846  -6.374  0.00  0.00     0.008 A 
HETATM   20  C   UNK N   1      26.895  28.065  -6.057  0.00  0.00    -0.024 A 
HETATM   21  C   UNK N   1      29.002  29.214  -7.524  0.00  0.00     0.001 A 
HETATM   22  C   UNK N   1      28.428  28.016  -7.952  0.00  0.00     0.001 A 
HETATM   23  C   UNK N   1      27.385  27.445  -7.223  0.00  0.00     0.012 A 
ENDBRANCH  13  14
ENDBRANCH   2  13
TORSDOF 9
ENDMDL
MODEL 2
REMARK VINA RESULT:      -6.7      1.094      1.496
REMARK  9 active torsions:
REMARK  status: ('A' for Active; 'I' for Inactive)
REMARK    1  A    between atoms: C_7  and  C_5 
REMARK    2  A    between atoms: C_8  and  C_5 
REMARK    3  A    between atoms: C_15  and  C_7 
REMARK    4  A    between atoms: C_16  and  C_8 
REMARK    5  A    between atoms: C_15  and  C_13 
REMARK    6  A    between atoms: C_18  and  C_13 
REMARK    7  A    between atoms: C_16  and  C_14 
REMARK    8  A    between atoms: C_20  and  C_14 
REMARK    9  A    between atoms: O_22  and  C_20 
ROOT
HETATM    1  C   UNK N   1      26.919  24.631  -8.215  0.00  0.00     0.048 C 
HETATM    2  C   UNK N   1      26.015  25.097  -7.116  0.00  0.00    -0.061 C 
ENDROOT
BRANCH   2   3
HETATM    3  C   UNK N   1      25.633  24.178  -6.180  0.00  0.00     0.007 C 
BRANCH   3   4
HETATM    4  C   UNK N   1      26.477  23.642  -5.058  0.00  0.00     0.001 C 
BRANCH   4   5
HETATM    5  C   UNK N   1      27.003  24.416  -4.084  0.00  0.00     0.007 C 
BRANCH   5   6
HETATM    6  C   UNK N   1      28.455  24.647  -3.897  0.00  0.00    -0.056 C 
HETATM    7  C   UNK N   1      29.034  26.021  -4.069  0.00  0.00     0.048 C 
BRANCH   6   8
HETATM    8  C   UNK N   1      29.207  23.599  -3.481  0.00  0.00     0.087 C 
BRANCH   8   9
HETATM    9  C   UNK N   1      29.375  23.156  -2.078  0.00  0.00     0.165 C 
HETATM   10  O   UNK N   1      30.482  23.022  -1.578  0.00  0.00    -0.647 OA
BRANCH   9  11
HETATM   11  O   UNK N   1      28.281  22.927  -1.327  0.00  0.00    -0.773 OA
HETATM   12  H   UNK N   1      27.434  22.880  -1.725  0.00  0.00     0.167 HD
ENDBRANCH   9  11
ENDBRANCH   8   9
ENDBRANCH   6   8
ENDBRANCH   5   6
ENDBRANCH   4   5
ENDBRANCH   3   4
ENDBRANCH   2   3
BRANCH   2  13
HETATM   13  C   UNK N   1      25.609  26.541  -7.028  0.00  0.00     0.014 C 
BRANCH  13  14
HETATM   14  C   UNK N   1      25.927  27.433  -6.060  0.00  0.00    -0.047 C 
HETATM   15  C   UNK N   1      25.189  27.461  -4.739  0.00  0.00     0.040 C 
HETATM   16  C   UNK N   1      25.966  28.183  -3.634  0.00  0.00     0.009 C 
HETATM   17  C   UNK N   1      26.474  29.530  -4.125  0.00  0.00     0.040 C 
HETATM   18  C   UNK N   1      27.392  29.331  -5.287  0.00  0.00    -0.047 A 
HETATM   19  C   UNK N   1      28.537  30.126  -5.412  0.00  0.00     0.008 A 
HETATM   20  C   UNK N   1      27.103  28.351  -6.256  0.00  0.00    -0.024 A 
HETATM   21  C   UNK N   1      29.401  29.955  -6.498  0.00  0.00     0.001 A 
HETATM   22  C   UNK N   1      29.117  28.994  -7.469  0.00  0.00     0.001 A 
HETATM   23  C   UNK N   1      27.979  28.197  -7.348  0.00  0.00     0.012 A 
ENDBRANCH  13  14
ENDBRANCH   2  13
TORSDOF 9
ENDMDL
MODEL 3
REMARK VINA RESULT:      -5.8      3.190      7.442
REMARK  9 active torsions:
REMARK  status: ('A' for Active; 'I' for Inactive)
REMARK    1  A    between atoms: C_7  and  C_5 
REMARK    2  A    between atoms: C_8  and  C_5 
REMARK    3  A    between atoms: C_15  and  C_7 
REMARK    4  A    between atoms: C_16  and  C_8 
REMARK    5  A    between atoms: C_15  and  C_13 
REMARK    6  A    between atoms: C_18  and  C_13 
REMARK    7  A    between atoms: C_16  and  C_14 
REMARK    8  A    between atoms: C_20  and  C_14 
REMARK    9  A    between atoms: O_22  and  C_20 
ROOT
HETATM    1  C   UNK N   1      29.892  25.572  -4.045  0.00  0.00     0.048 C 
HETATM    2  C   UNK N   1      28.932  24.453  -3.781  0.00  0.00    -0.061 C 
ENDROOT
BRANCH   2   3
HETATM    3  C   UNK N   1      27.598  24.738  -3.846  0.00  0.00     0.007 C 
BRANCH   3   4
HETATM    4  C   UNK N   1      26.607  24.158  -4.817  0.00  0.00     0.001 C 
BRANCH   4   5
HETATM    5  C   UNK N   1      25.483  24.798  -5.207  0.00  0.00     0.007 C 
BRANCH   5   6
HETATM    6  C   UNK N   1      25.470  26.086  -5.942  0.00  0.00    -0.056 C 
HETATM    7  C   UNK N   1      25.935  26.153  -7.367  0.00  0.00     0.048 C 
BRANCH   6   8
HETATM    8  C   UNK N   1      24.943  27.162  -5.308  0.00  0.00     0.087 C 
BRANCH   8   9
HETATM    9  C   UNK N   1      25.651  28.030  -4.339  0.00  0.00     0.165 C 
HETATM   10  O   UNK N   1      26.392  28.929  -4.708  0.00  0.00    -0.647 OA
BRANCH   9  11
HETATM   11  O   UNK N   1      25.448  27.843  -3.021  0.00  0.00    -0.773 OA
HETATM   12  H   UNK N   1      26.141  27.989  -2.408  0.00  0.00     0.167 HD
ENDBRANCH   9  11
ENDBRANCH   8   9
ENDBRANCH   6   8
ENDBRANCH   5   6
ENDBRANCH   4   5
ENDBRANCH   3   4
ENDBRANCH   2   3
BRANCH   2  13
HETATM   13  C   UNK N   1      29.439  23.064  -3.519  0.00  0.00     0.014 C 
BRANCH  13  14
HETATM   14  C   UNK N   1      29.957  22.189  -4.414  0.00  0.00    -0.047 C 
HETATM   15  C   UNK N   1      29.347  22.011  -5.788  0.00  0.00     0.040 C 
HETATM   16  C   UNK N   1      30.307  21.363  -6.790  0.00  0.00     0.009 C 
HETATM   17  C   UNK N   1      30.947  20.118  -6.194  0.00  0.00     0.040 C 
HETATM   18  C   UNK N   1      31.725  20.485  -4.973  0.00  0.00    -0.047 A 
HETATM   19  C   UNK N   1      32.952  19.861  -4.717  0.00  0.00     0.008 A 
HETATM   20  C   UNK N   1      31.224  21.450  -4.080  0.00  0.00    -0.024 A 
HETATM   21  C   UNK N   1      33.687  20.189  -3.574  0.00  0.00     0.001 A 
HETATM   22  C   UNK N   1      33.193  21.136  -2.677  0.00  0.00     0.001 A 
HETATM   23  C   UNK N   1      31.973  21.764  -2.928  0.00  0.00     0.012 A 
ENDBRANCH  13  14
ENDBRANCH   2  13
TORSDOF 9
ENDMDL
MODEL 4
REMARK VINA RESULT:      -5.8      4.072      7.573
REMARK  9 active torsions:
REMARK  status: ('A' for Active; 'I' for Inactive)
REMARK    1  A    between atoms: C_7  and  C_5 
REMARK    2  A    between atoms: C_8  and  C_5 
REMARK    3  A    between atoms: C_15  and  C_7 
REMARK    4  A    between atoms: C_16  and  C_8 
REMARK    5  A    between atoms: C_15  and  C_13 
REMARK    6  A    between atoms: C_18  and  C_13 
REMARK    7  A    between atoms: C_16  and  C_14 
REMARK    8  A    between atoms: C_20  and  C_14 
REMARK    9  A    between atoms: O_22  and  C_20 
ROOT
HETATM    1  C   UNK N   1      29.657  25.385  -4.357  0.00  0.00     0.048 C 
HETATM    2  C   UNK N   1      28.828  24.280  -3.777  0.00  0.00    -0.061 C 
ENDROOT
BRANCH   2   3
HETATM    3  C   UNK N   1      27.505  24.535  -3.553  0.00  0.00     0.007 C 
BRANCH   3   4
HETATM    4  C   UNK N   1      26.343  23.949  -4.306  0.00  0.00     0.001 C 
BRANCH   4   5
HETATM    5  C   UNK N   1      25.962  24.367  -5.532  0.00  0.00     0.007 C 
BRANCH   5   6
HETATM    6  C   UNK N   1      26.267  23.644  -6.790  0.00  0.00    -0.056 C 
HETATM    7  C   UNK N   1      27.264  24.201  -7.764  0.00  0.00     0.048 C 
BRANCH   6   8
HETATM    8  C   UNK N   1      25.684  22.434  -6.974  0.00  0.00     0.087 C 
BRANCH   8   9
HETATM    9  C   UNK N   1      24.863  22.036  -8.141  0.00  0.00     0.165 C 
HETATM   10  O   UNK N   1      25.376  21.694  -9.196  0.00  0.00    -0.647 OA
BRANCH   9  11
HETATM   11  O   UNK N   1      23.522  22.020  -8.025  0.00  0.00    -0.773 OA
HETATM   12  H   UNK N   1      23.012  21.391  -8.496  0.00  0.00     0.167 HD
ENDBRANCH   9  11
ENDBRANCH   8   9
ENDBRANCH   6   8
ENDBRANCH   5   6
ENDBRANCH   4   5
ENDBRANCH   3   4
ENDBRANCH   2   3
BRANCH   2  13
HETATM   13  C   UNK N   1      29.435  22.931  -3.520  0.00  0.00     0.014 C 
BRANCH  13  14
HETATM   14  C   UNK N   1      29.981  22.083  -4.423  0.00  0.00    -0.047 C 
HETATM   15  C   UNK N   1      29.376  21.897  -5.799  0.00  0.00     0.040 C 
HETATM   16  C   UNK N   1      30.356  21.291  -6.808  0.00  0.00     0.009 C 
HETATM   17  C   UNK N   1      31.040  20.064  -6.225  0.00  0.00     0.040 C 
HETATM   18  C   UNK N   1      31.807  20.446  -5.000  0.00  0.00    -0.047 A 
HETATM   19  C   UNK N   1      33.054  19.862  -4.752  0.00  0.00     0.008 A 
HETATM   20  C   UNK N   1      31.273  21.385  -4.098  0.00  0.00    -0.024 A 
HETATM   21  C   UNK N   1      33.779  20.204  -3.607  0.00  0.00     0.001 A 
HETATM   22  C   UNK N   1      33.255  21.125  -2.700  0.00  0.00     0.001 A 
HETATM   23  C   UNK N   1      32.013  21.713  -2.944  0.00  0.00     0.012 A 
ENDBRANCH  13  14
ENDBRANCH   2  13
TORSDOF 9
ENDMDL
MODEL 5
REMARK VINA RESULT:      -5.8      1.325      2.577
REMARK  9 active torsions:
REMARK  status: ('A' for Active; 'I' for Inactive)
REMARK    1  A    between atoms: C_7  and  C_5 
REMARK    2  A    between atoms: C_8  and  C_5 
REMARK    3  A    between atoms: C_15  and  C_7 
REMARK    4  A    between atoms: C_16  and  C_8 
REMARK    5  A    between atoms: C_15  and  C_13 
REMARK    6  A    between atoms: C_18  and  C_13 
REMARK    7  A    between atoms: C_16  and  C_14 
REMARK    8  A    between atoms: C_20  and  C_14 
REMARK    9  A    between atoms: O_22  and  C_20 
ROOT
HETATM    1  C   UNK N   1      27.273  23.317  -9.090  0.00  0.00     0.048 C 
HETATM    2  C   UNK N   1      27.042  23.205  -7.615  0.00  0.00    -0.061 C 
ENDROOT
BRANCH   2   3
HETATM    3  C   UNK N   1      27.832  22.336  -6.917  0.00  0.00     0.007 C 
BRANCH   3   4
HETATM    4  C   UNK N   1      29.217  22.605  -6.400  0.00  0.00     0.001 C 
BRANCH   4   5
HETATM    5  C   UNK N   1      29.587  23.773  -5.831  0.00  0.00     0.007 C 
BRANCH   5   6
HETATM    6  C   UNK N   1      29.862  23.944  -4.384  0.00  0.00    -0.056 C 
HETATM    7  C   UNK N   1      30.268  25.283  -3.841  0.00  0.00     0.048 C 
BRANCH   6   8
HETATM    8  C   UNK N   1      29.646  22.879  -3.576  0.00  0.00     0.087 C 
BRANCH   8   9
HETATM    9  C   UNK N   1      30.691  22.004  -2.996  0.00  0.00     0.165 C 
HETATM   10  O   UNK N   1      31.474  22.416  -2.153  0.00  0.00    -0.647 OA
BRANCH   9  11
HETATM   11  O   UNK N   1      30.759  20.717  -3.384  0.00  0.00    -0.773 OA
HETATM   12  H   UNK N   1      29.981  20.198  -3.446  0.00  0.00     0.167 HD
ENDBRANCH   9  11
ENDBRANCH   8   9
ENDBRANCH   6   8
ENDBRANCH   5   6
ENDBRANCH   4   5
ENDBRANCH   3   4
ENDBRANCH   2   3
BRANCH   2  13
HETATM   13  C   UNK N   1      26.019  24.072  -6.939  0.00  0.00     0.014 C 
BRANCH  13  14
HETATM   14  C   UNK N   1      26.195  24.875  -5.862  0.00  0.00    -0.047 C 
HETATM   15  C   UNK N   1      25.976  24.366  -4.454  0.00  0.00     0.040 C 
HETATM   16  C   UNK N   1      26.656  25.234  -3.390  0.00  0.00     0.009 C 
HETATM   17  C   UNK N   1      26.335  26.705  -3.610  0.00  0.00     0.040 C 
HETATM   18  C   UNK N   1      26.832  27.135  -4.952  0.00  0.00    -0.047 A 
HETATM   19  C   UNK N   1      27.405  28.403  -5.106  0.00  0.00     0.008 A 
HETATM   20  C   UNK N   1      26.718  26.272  -6.058  0.00  0.00    -0.024 A 
HETATM   21  C   UNK N   1      27.867  28.821  -6.358  0.00  0.00     0.001 A 
HETATM   22  C   UNK N   1      27.749  27.977  -7.462  0.00  0.00     0.001 A 
HETATM   23  C   UNK N   1      27.181  26.712  -7.314  0.00  0.00     0.012 A 
ENDBRANCH  13  14
ENDBRANCH   2  13
TORSDOF 9
ENDMDL
MODEL 6
REMARK VINA RESULT:      -5.8      1.234      3.292
REMARK  9 active torsions:
REMARK  status: ('A' for Active; 'I' for Inactive)
REMARK    1  A    between atoms: C_7  and  C_5 
REMARK    2  A    between atoms: C_8  and  C_5 
REMARK    3  A    between atoms: C_15  and  C_7 
REMARK    4  A    between atoms: C_16  and  C_8 
REMARK    5  A    between atoms: C_15  and  C_13 
REMARK    6  A    between atoms: C_18  and  C_13 
REMARK    7  A    between atoms: C_16  and  C_14 
REMARK    8  A    between atoms: C_20  and  C_14 
REMARK    9  A    between atoms: O_22  and  C_20 
ROOT
HETATM    1  C   UNK N   1      30.346  26.893  -8.821  0.00  0.00     0.048 C 
HETATM    2  C   UNK N   1      29.149  26.090  -8.413  0.00  0.00    -0.061 C 
ENDROOT
BRANCH   2   3
HETATM    3  C   UNK N   1      29.357  24.795  -8.033  0.00  0.00     0.007 C 
BRANCH   3   4
HETATM    4  C   UNK N   1      29.799  24.322  -6.677  0.00  0.00     0.001 C 
BRANCH   4   5
HETATM    5  C   UNK N   1      28.941  23.975  -5.692  0.00  0.00     0.007 C 
BRANCH   5   6
HETATM    6  C   UNK N   1      28.989  24.521  -4.315  0.00  0.00    -0.056 C 
HETATM    7  C   UNK N   1      29.139  25.997  -4.088  0.00  0.00     0.048 C 
BRANCH   6   8
HETATM    8  C   UNK N   1      28.802  23.654  -3.291  0.00  0.00     0.087 C 
BRANCH   8   9
HETATM    9  C   UNK N   1      29.855  22.837  -2.644  0.00  0.00     0.165 C 
HETATM   10  O   UNK N   1      30.386  23.189  -1.600  0.00  0.00    -0.647 OA
BRANCH   9  11
HETATM   11  O   UNK N   1      30.211  21.665  -3.201  0.00  0.00    -0.773 OA
HETATM   12  H   UNK N   1      30.763  21.066  -2.737  0.00  0.00     0.167 HD
ENDBRANCH   9  11
ENDBRANCH   8   9
ENDBRANCH   6   8
ENDBRANCH   5   6
ENDBRANCH   4   5
ENDBRANCH   3   4
ENDBRANCH   2   3
BRANCH   2  13
HETATM   13  C   UNK N   1      27.789  26.725  -8.370  0.00  0.00     0.014 C 
BRANCH  13  14
HETATM   14  C   UNK N   1      26.896  26.701  -7.353  0.00  0.00    -0.047 C 
HETATM   15  C   UNK N   1      25.969  25.523  -7.142  0.00  0.00     0.040 C 
HETATM   16  C   UNK N   1      25.389  25.462  -5.726  0.00  0.00     0.009 C 
HETATM   17  C   UNK N   1      24.827  26.814  -5.316  0.00  0.00     0.040 C 
HETATM   18  C   UNK N   1      25.914  27.840  -5.331  0.00  0.00    -0.047 A 
HETATM   19  C   UNK N   1      25.956  28.822  -4.335  0.00  0.00     0.008 A 
HETATM   20  C   UNK N   1      26.888  27.820  -6.347  0.00  0.00    -0.024 A 
HETATM   21  C   UNK N   1      26.963  29.792  -4.343  0.00  0.00     0.001 A 
HETATM   22  C   UNK N   1      27.927  29.788  -5.351  0.00  0.00     0.001 A 
HETATM   23  C   UNK N   1      27.892  28.809  -6.344  0.00  0.00     0.012 A 
ENDBRANCH  13  14
ENDBRANCH   2  13
TORSDOF 9
ENDMDL
MODEL 7
REMARK VINA RESULT:      -5.7      1.813      4.236
REMARK  9 active torsions:
REMARK  status: ('A' for Active; 'I' for Inactive)
REMARK    1  A    between atoms: C_7  and  C_5 
REMARK    2  A    between atoms: C_8  and  C_5 
REMARK    3  A    between atoms: C_15  and  C_7 
REMARK    4  A    between atoms: C_16  and  C_8 
REMARK    5  A    between atoms: C_15  and  C_13 
REMARK    6  A    between atoms: C_18  and  C_13 
REMARK    7  A    between atoms: C_16  and  C_14 
REMARK    8  A    between atoms: C_20  and  C_14 
REMARK    9  A    between atoms: O_22  and  C_20 
ROOT
HETATM    1  C   UNK N   1      31.585  28.779  -3.542  0.00  0.00     0.048 C 
HETATM    2  C   UNK N   1      30.610  27.645  -3.628  0.00  0.00    -0.061 C 
ENDROOT
BRANCH   2   3
HETATM    3  C   UNK N   1      31.105  26.377  -3.520  0.00  0.00     0.007 C 
BRANCH   3   4
HETATM    4  C   UNK N   1      31.545  25.491  -4.652  0.00  0.00     0.001 C 
BRANCH   4   5
HETATM    5  C   UNK N   1      30.732  24.602  -5.263  0.00  0.00     0.007 C 
BRANCH   5   6
HETATM    6  C   UNK N   1      30.609  23.178  -4.870  0.00  0.00    -0.056 C 
HETATM    7  C   UNK N   1      29.469  22.345  -5.379  0.00  0.00     0.048 C 
BRANCH   6   8
HETATM    8  C   UNK N   1      31.604  22.649  -4.117  0.00  0.00     0.087 C 
BRANCH   8   9
HETATM    9  C   UNK N   1      31.538  22.374  -2.663  0.00  0.00     0.165 C 
HETATM   10  O   UNK N   1      30.791  23.002  -1.927  0.00  0.00    -0.647 OA
BRANCH   9  11
HETATM   11  O   UNK N   1      32.295  21.388  -2.147  0.00  0.00    -0.773 OA
HETATM   12  H   UNK N   1      33.183  21.552  -1.899  0.00  0.00     0.167 HD
ENDBRANCH   9  11
ENDBRANCH   8   9
ENDBRANCH   6   8
ENDBRANCH   5   6
ENDBRANCH   4   5
ENDBRANCH   3   4
ENDBRANCH   2   3
BRANCH   2  13
HETATM   13  C   UNK N   1      29.139  27.918  -3.764  0.00  0.00     0.014 C 
BRANCH  13  14
HETATM   14  C   UNK N   1      28.339  27.640  -4.821  0.00  0.00    -0.047 C 
HETATM   15  C   UNK N   1      28.396  28.459  -6.092  0.00  0.00     0.040 C 
HETATM   16  C   UNK N   1      27.792  27.736  -7.300  0.00  0.00     0.009 C 
HETATM   17  C   UNK N   1      26.426  27.161  -6.955  0.00  0.00     0.040 C 
HETATM   18  C   UNK N   1      26.559  26.176  -5.839  0.00  0.00    -0.047 A 
HETATM   19  C   UNK N   1      25.794  25.004  -5.852  0.00  0.00     0.008 A 
HETATM   20  C   UNK N   1      27.447  26.429  -4.776  0.00  0.00    -0.024 A 
HETATM   21  C   UNK N   1      25.903  24.078  -4.811  0.00  0.00     0.001 A 
HETATM   22  C   UNK N   1      26.772  24.325  -3.747  0.00  0.00     0.001 A 
HETATM   23  C   UNK N   1      27.539  25.489  -3.731  0.00  0.00     0.012 A 
ENDBRANCH  13  14
ENDBRANCH   2  13
TORSDOF 9
ENDMDL
MODEL 8
REMARK VINA RESULT:      -5.7      2.854      5.569
REMARK  9 active torsions:
REMARK  status: ('A' for Active; 'I' for Inactive)
REMARK    1  A    between atoms: C_7  and  C_5 
REMARK    2  A    between atoms: C_8  and  C_5 
REMARK    3  A    between atoms: C_15  and  C_7 
REMARK    4  A    between atoms: C_16  and  C_8 
REMARK    5  A    between atoms: C_15  and  C_13 
REMARK    6  A    between atoms: C_18  and  C_13 
REMARK    7  A    between atoms: C_16  and  C_14 
REMARK    8  A    between atoms: C_20  and  C_14 
REMARK    9  A    between atoms: O_22  and  C_20 
ROOT
HETATM    1  C   UNK N   1      27.305  27.131  -7.799  0.00  0.00     0.048 C 
HETATM    2  C   UNK N   1      27.538  25.696  -7.441  0.00  0.00    -0.061 C 
ENDROOT
BRANCH   2   3
HETATM    3  C   UNK N   1      26.444  24.884  -7.343  0.00  0.00     0.007 C 
BRANCH   3   4
HETATM    4  C   UNK N   1      26.115  23.961  -6.203  0.00  0.00     0.001 C 
BRANCH   4   5
HETATM    5  C   UNK N   1      25.722  24.392  -4.985  0.00  0.00     0.007 C 
BRANCH   5   6
HETATM    6  C   UNK N   1      26.639  24.952  -3.963  0.00  0.00    -0.056 C 
HETATM    7  C   UNK N   1      27.393  24.042  -3.038  0.00  0.00     0.048 C 
BRANCH   6   8
HETATM    8  C   UNK N   1      26.832  26.293  -3.963  0.00  0.00     0.087 C 
BRANCH   8   9
HETATM    9  C   UNK N   1      25.768  27.321  -3.879  0.00  0.00     0.165 C 
HETATM   10  O   UNK N   1      25.444  27.819  -2.811  0.00  0.00    -0.647 OA
BRANCH   9  11
HETATM   11  O   UNK N   1      25.170  27.740  -5.010  0.00  0.00    -0.773 OA
HETATM   12  H   UNK N   1      24.820  27.121  -5.619  0.00  0.00     0.167 HD
ENDBRANCH   9  11
ENDBRANCH   8   9
ENDBRANCH   6   8
ENDBRANCH   5   6
ENDBRANCH   4   5
ENDBRANCH   3   4
ENDBRANCH   2   3
BRANCH   2  13
HETATM   13  C   UNK N   1      28.936  25.176  -7.261  0.00  0.00     0.014 C 
BRANCH  13  14
HETATM   14  C   UNK N   1      29.685  25.188  -6.134  0.00  0.00    -0.047 C 
HETATM   15  C   UNK N   1      30.055  26.484  -5.445  0.00  0.00     0.040 C 
HETATM   16  C   UNK N   1      30.480  26.287  -3.987  0.00  0.00     0.009 C 
HETATM   17  C   UNK N   1      31.507  25.171  -3.870  0.00  0.00     0.040 C 
HETATM   18  C   UNK N   1      30.918  23.889  -4.362  0.00  0.00    -0.047 A 
HETATM   19  C   UNK N   1      31.211  22.691  -3.699  0.00  0.00     0.008 A 
HETATM   20  C   UNK N   1      30.077  23.885  -5.490  0.00  0.00    -0.024 A 
HETATM   21  C   UNK N   1      30.673  21.483  -4.153  0.00  0.00     0.001 A 
HETATM   22  C   UNK N   1      29.847  21.467  -5.277  0.00  0.00     0.001 A 
HETATM   23  C   UNK N   1      29.549  22.658  -5.939  0.00  0.00     0.012 A 
ENDBRANCH  13  14
ENDBRANCH   2  13
TORSDOF 9
ENDMDL
MODEL 9
REMARK VINA RESULT:      -5.7     13.246     16.011
REMARK  9 active torsions:
REMARK  status: ('A' for Active; 'I' for Inactive)
REMARK    1  A    between atoms: C_7  and  C_5 
REMARK    2  A    between atoms: C_8  and  C_5 
REMARK    3  A    between atoms: C_15  and  C_7 
REMARK    4  A    between atoms: C_16  and  C_8 
REMARK    5  A    between atoms: C_15  and  C_13 
REMARK    6  A    between atoms: C_18  and  C_13 
REMARK    7  A    between atoms: C_16  and  C_14 
REMARK    8  A    between atoms: C_20  and  C_14 
REMARK    9  A    between atoms: O_22  and  C_20 
ROOT
HETATM    1  C   UNK N   1      33.093  17.774   4.943  0.00  0.00     0.048 C 
HETATM    2  C   UNK N   1      32.650  16.351   5.092  0.00  0.00    -0.061 C 
ENDROOT
BRANCH   2   3
HETATM    3  C   UNK N   1      33.609  15.381   5.025  0.00  0.00     0.007 C 
BRANCH   3   4
HETATM    4  C   UNK N   1      34.237  14.663   6.187  0.00  0.00     0.001 C 
BRANCH   4   5
HETATM    5  C   UNK N   1      34.675  15.289   7.301  0.00  0.00     0.007 C 
BRANCH   5   6
HETATM    6  C   UNK N   1      33.785  15.832   8.356  0.00  0.00    -0.056 C 
HETATM    7  C   UNK N   1      33.003  14.906   9.241  0.00  0.00     0.048 C 
BRANCH   6   8
HETATM    8  C   UNK N   1      33.782  17.174   8.542  0.00  0.00     0.087 C 
BRANCH   8   9
HETATM    9  C   UNK N   1      34.894  17.974   9.105  0.00  0.00     0.165 C 
HETATM   10  O   UNK N   1      35.528  17.591  10.078  0.00  0.00    -0.647 OA
BRANCH   9  11
HETATM   11  O   UNK N   1      35.234  19.133   8.512  0.00  0.00    -0.773 OA
HETATM   12  H   UNK N   1      35.592  19.838   9.016  0.00  0.00     0.167 HD
ENDBRANCH   9  11
ENDBRANCH   8   9
ENDBRANCH   6   8
ENDBRANCH   5   6
ENDBRANCH   4   5
ENDBRANCH   3   4
ENDBRANCH   2   3
BRANCH   2  13
HETATM   13  C   UNK N   1      31.209  16.030   5.368  0.00  0.00     0.014 C 
BRANCH  13  14
HETATM   14  C   UNK N   1      30.160  16.886   5.393  0.00  0.00    -0.047 C 
HETATM   15  C   UNK N   1      29.368  17.202   4.143  0.00  0.00     0.040 C 
HETATM   16  C   UNK N   1      27.986  17.789   4.441  0.00  0.00     0.009 C 
HETATM   17  C   UNK N   1      28.088  18.921   5.451  0.00  0.00     0.040 C 
HETATM   18  C   UNK N   1      28.663  18.407   6.731  0.00  0.00    -0.047 A 
HETATM   19  C   UNK N   1      28.166  18.875   7.953  0.00  0.00     0.008 A 
HETATM   20  C   UNK N   1      29.703  17.459   6.707  0.00  0.00    -0.024 A 
HETATM   21  C   UNK N   1      28.700  18.408   9.158  0.00  0.00     0.001 A 
HETATM   22  C   UNK N   1      29.739  17.477   9.145  0.00  0.00     0.001 A 
HETATM   23  C   UNK N   1      30.236  17.004   7.930  0.00  0.00     0.012 A 
ENDBRANCH  13  14
ENDBRANCH   2  13
TORSDOF 9
ENDMDL
