MODEL 1
REMARK VINA RESULT:      -6.7      0.000      0.000
REMARK  9 active torsions:
REMARK  status: ('A' for Active; 'I' for Inactive)
REMARK    1  A    between atoms: C_2  and  C_3 
REMARK    2  A    between atoms: C_3  and  C_4 
REMARK    3  A    between atoms: C_3  and  C_6 
REMARK    4  A    between atoms: C_6  and  C_7 
REMARK    5  A    between atoms: C_7  and  C_13 
REMARK       I    between atoms: C_13  and  N_15 
REMARK    6  A    between atoms: N_15  and  C_16 
REMARK    7  A    between atoms: C_21  and  S_22 
REMARK    8  A    between atoms: S_22  and  C_23 
REMARK    9  A    between atoms: C_23  and  C_25 
ROOT
HETATM    1  C   UNK N   1      36.284  12.069  12.823  0.00  0.00     0.231 C 
HETATM    2  O   UNK N   1      36.115  11.108  12.085  0.00  0.00    -0.272 OA
HETATM    3  N   UNK N   1      36.930  13.178  12.371  0.00  0.00    -0.325 N 
HETATM    4  H   UNK N   1      37.129  13.882  13.031  0.00  0.00     0.169 HD
ENDROOT
BRANCH   1   5
HETATM    5  C   UNK N   1      35.805  11.995  14.265  0.00  0.00     0.042 C 
HETATM    6  C   UNK N   1      36.819  11.216  15.134  0.00  0.00     0.019 C 
HETATM    7  C   UNK N   1      36.619   9.707  15.023  0.00  0.00     0.001 C 
HETATM    8  C   UNK N   1      35.242   9.295  15.560  0.00  0.00     0.000 C 
HETATM    9  C   UNK N   1      34.209  10.431  15.517  0.00  0.00     0.001 C 
HETATM   10  C   UNK N   1      34.429  11.287  14.273  0.00  0.00     0.019 C 
BRANCH   5  11
HETATM   11  C   UNK N   1      35.720  13.393  14.928  0.00  0.00     0.023 C 
BRANCH  11  12
HETATM   12  C   UNK N   1      36.024  13.574  16.430  0.00  0.00    -0.014 C 
BRANCH  12  13
HETATM   13  C   UNK N   1      34.799  13.420  17.326  0.00  0.00     0.000 C 
HETATM   14  C   UNK N   1      35.194  13.550  18.787  0.00  0.00     0.005 C 
ENDBRANCH  12  13
BRANCH  12  15
HETATM   15  C   UNK N   1      36.811  14.852  16.705  0.00  0.00     0.000 C 
HETATM   16  C   UNK N   1      37.290  15.516  15.427  0.00  0.00     0.005 C 
ENDBRANCH  12  15
ENDBRANCH  11  12
ENDBRANCH   5  11
ENDBRANCH   1   5
BRANCH   3  17
HETATM   17  C   UNK N   1      37.346  13.414  11.028  0.00  0.00     0.052 A 
HETATM   18  C   UNK N   1      38.580  12.940  10.548  0.00  0.00     0.031 A 
HETATM   19  C   UNK N   1      38.957  13.158   9.222  0.00  0.00     0.002 A 
HETATM   20  C   UNK N   1      38.107  13.852   8.360  0.00  0.00     0.002 A 
HETATM   21  C   UNK N   1      36.878  14.329   8.825  0.00  0.00     0.021 A 
HETATM   22  C   UNK N   1      36.494  14.111  10.152  0.00  0.00     0.035 A 
BRANCH  22  23
HETATM   23  S   UNK N   1      34.906  14.744  10.718  0.00  0.00    -0.050 SA
BRANCH  23  24
HETATM   24  C   UNK N   1      35.037  16.377   9.940  0.00  0.00     0.194 C 
HETATM   25  O   UNK N   1      35.705  17.262  10.453  0.00  0.00    -0.285 OA
BRANCH  24  26
HETATM   26  C   UNK N   1      34.330  16.659   8.650  0.00  0.00     0.059 C 
HETATM   27  C   UNK N   1      32.875  16.242   8.732  0.00  0.00     0.018 C 
HETATM   28  C   UNK N   1      34.418  18.129   8.292  0.00  0.00     0.018 C 
ENDBRANCH  24  26
ENDBRANCH  23  24
ENDBRANCH  22  23
ENDBRANCH   3  17
TORSDOF 9
ENDMDL
MODEL 2
REMARK VINA RESULT:      -6.6      2.119      3.938
REMARK  9 active torsions:
REMARK  status: ('A' for Active; 'I' for Inactive)
REMARK    1  A    between atoms: C_2  and  C_3 
REMARK    2  A    between atoms: C_3  and  C_4 
REMARK    3  A    between atoms: C_3  and  C_6 
REMARK    4  A    between atoms: C_6  and  C_7 
REMARK    5  A    between atoms: C_7  and  C_13 
REMARK       I    between atoms: C_13  and  N_15 
REMARK    6  A    between atoms: N_15  and  C_16 
REMARK    7  A    between atoms: C_21  and  S_22 
REMARK    8  A    between atoms: S_22  and  C_23 
REMARK    9  A    between atoms: C_23  and  C_25 
ROOT
HETATM    1  C   UNK N   1      35.440  13.322  13.816  0.00  0.00     0.231 C 
HETATM    2  O   UNK N   1      36.243  14.245  13.803  0.00  0.00    -0.272 OA
HETATM    3  N   UNK N   1      34.734  13.009  12.696  0.00  0.00    -0.325 N 
HETATM    4  H   UNK N   1      34.030  12.326  12.785  0.00  0.00     0.169 HD
ENDROOT
BRANCH   1   5
HETATM    5  C   UNK N   1      35.205  12.557  15.109  0.00  0.00     0.042 C 
HETATM    6  C   UNK N   1      36.518  11.904  15.600  0.00  0.00     0.019 C 
HETATM    7  C   UNK N   1      36.788  10.576  14.899  0.00  0.00     0.001 C 
HETATM    8  C   UNK N   1      35.693   9.551  15.225  0.00  0.00     0.000 C 
HETATM    9  C   UNK N   1      34.360  10.196  15.633  0.00  0.00     0.001 C 
HETATM   10  C   UNK N   1      34.134  11.474  14.832  0.00  0.00     0.019 C 
BRANCH   5  11
HETATM   11  C   UNK N   1      34.775  13.486  16.272  0.00  0.00     0.023 C 
BRANCH  11  12
HETATM   12  C   UNK N   1      35.656  13.636  17.529  0.00  0.00    -0.014 C 
BRANCH  12  13
HETATM   13  C   UNK N   1      35.044  13.022  18.784  0.00  0.00     0.000 C 
HETATM   14  C   UNK N   1      35.431  11.558  18.899  0.00  0.00     0.005 C 
ENDBRANCH  12  13
BRANCH  12  15
HETATM   15  C   UNK N   1      36.125  15.074  17.733  0.00  0.00     0.000 C 
HETATM   16  C   UNK N   1      37.177  15.482  16.717  0.00  0.00     0.005 C 
ENDBRANCH  12  15
ENDBRANCH  11  12
ENDBRANCH   5  11
ENDBRANCH   1   5
BRANCH   3  17
HETATM   17  C   UNK N   1      34.921  13.581  11.402  0.00  0.00     0.052 A 
HETATM   18  C   UNK N   1      34.287  14.781  11.033  0.00  0.00     0.031 A 
HETATM   19  C   UNK N   1      34.504  15.338   9.772  0.00  0.00     0.002 A 
HETATM   20  C   UNK N   1      35.356  14.706   8.866  0.00  0.00     0.002 A 
HETATM   21  C   UNK N   1      35.991  13.513   9.222  0.00  0.00     0.021 A 
HETATM   22  C   UNK N   1      35.780  12.950  10.485  0.00  0.00     0.035 A 
BRANCH  22  23
HETATM   23  S   UNK N   1      36.611  11.410  10.907  0.00  0.00    -0.050 SA
BRANCH  23  24
HETATM   24  C   UNK N   1      35.463  10.303  10.043  0.00  0.00     0.194 C 
HETATM   25  O   UNK N   1      35.325  10.368   8.831  0.00  0.00    -0.285 OA
BRANCH  24  26
HETATM   26  C   UNK N   1      34.671   9.288  10.809  0.00  0.00     0.059 C 
HETATM   27  C   UNK N   1      35.560   8.531  11.775  0.00  0.00     0.018 C 
HETATM   28  C   UNK N   1      33.537   9.944  11.569  0.00  0.00     0.018 C 
ENDBRANCH  24  26
ENDBRANCH  23  24
ENDBRANCH  22  23
ENDBRANCH   3  17
TORSDOF 9
ENDMDL
MODEL 3
REMARK VINA RESULT:      -6.5      1.780      3.603
REMARK  9 active torsions:
REMARK  status: ('A' for Active; 'I' for Inactive)
REMARK    1  A    between atoms: C_2  and  C_3 
REMARK    2  A    between atoms: C_3  and  C_4 
REMARK    3  A    between atoms: C_3  and  C_6 
REMARK    4  A    between atoms: C_6  and  C_7 
REMARK    5  A    between atoms: C_7  and  C_13 
REMARK       I    between atoms: C_13  and  N_15 
REMARK    6  A    between atoms: N_15  and  C_16 
REMARK    7  A    between atoms: C_21  and  S_22 
REMARK    8  A    between atoms: S_22  and  C_23 
REMARK    9  A    between atoms: C_23  and  C_25 
ROOT
HETATM    1  C   UNK N   1      35.397  13.390  13.606  0.00  0.00     0.231 C 
HETATM    2  O   UNK N   1      36.216  14.298  13.572  0.00  0.00    -0.272 OA
HETATM    3  N   UNK N   1      34.628  13.117  12.516  0.00  0.00    -0.325 N 
HETATM    4  H   UNK N   1      33.916  12.445  12.626  0.00  0.00     0.169 HD
ENDROOT
BRANCH   1   5
HETATM    5  C   UNK N   1      35.212  12.598  14.891  0.00  0.00     0.042 C 
HETATM    6  C   UNK N   1      36.549  11.955  15.328  0.00  0.00     0.019 C 
HETATM    7  C   UNK N   1      36.814  10.644  14.595  0.00  0.00     0.001 C 
HETATM    8  C   UNK N   1      35.743   9.598  14.937  0.00  0.00     0.000 C 
HETATM    9  C   UNK N   1      34.416  10.217  15.399  0.00  0.00     0.001 C 
HETATM   10  C   UNK N   1      34.147  11.506  14.628  0.00  0.00     0.019 C 
BRANCH   5  11
HETATM   11  C   UNK N   1      34.808  13.500  16.084  0.00  0.00     0.023 C 
BRANCH  11  12
HETATM   12  C   UNK N   1      35.677  13.563  17.357  0.00  0.00    -0.014 C 
BRANCH  12  13
HETATM   13  C   UNK N   1      35.036  12.899  18.571  0.00  0.00     0.000 C 
HETATM   14  C   UNK N   1      35.503  11.459  18.694  0.00  0.00     0.005 C 
ENDBRANCH  12  13
BRANCH  12  15
HETATM   15  C   UNK N   1      36.176  14.977  17.641  0.00  0.00     0.000 C 
HETATM   16  C   UNK N   1      37.208  15.435  16.626  0.00  0.00     0.005 C 
ENDBRANCH  12  15
ENDBRANCH  11  12
ENDBRANCH   5  11
ENDBRANCH   1   5
BRANCH   3  17
HETATM   17  C   UNK N   1      34.760  13.716  11.229  0.00  0.00     0.052 A 
HETATM   18  C   UNK N   1      34.321  15.029  10.983  0.00  0.00     0.031 A 
HETATM   19  C   UNK N   1      34.483  15.607   9.722  0.00  0.00     0.002 A 
HETATM   20  C   UNK N   1      35.086  14.881   8.694  0.00  0.00     0.002 A 
HETATM   21  C   UNK N   1      35.526  13.575   8.926  0.00  0.00     0.021 A 
HETATM   22  C   UNK N   1      35.368  12.991  10.188  0.00  0.00     0.035 A 
BRANCH  22  23
HETATM   23  S   UNK N   1      35.942  11.305  10.449  0.00  0.00    -0.050 SA
BRANCH  23  24
HETATM   24  C   UNK N   1      37.697  11.709  10.671  0.00  0.00     0.194 C 
HETATM   25  O   UNK N   1      38.071  12.363  11.633  0.00  0.00    -0.285 OA
BRANCH  24  26
HETATM   26  C   UNK N   1      38.712  11.239   9.676  0.00  0.00     0.059 C 
HETATM   27  C   UNK N   1      38.064  10.373   8.614  0.00  0.00     0.018 C 
HETATM   28  C   UNK N   1      39.412  12.411   9.018  0.00  0.00     0.018 C 
ENDBRANCH  24  26
ENDBRANCH  23  24
ENDBRANCH  22  23
ENDBRANCH   3  17
TORSDOF 9
ENDMDL
MODEL 4
REMARK VINA RESULT:      -6.5     19.310     22.973
REMARK  9 active torsions:
REMARK  status: ('A' for Active; 'I' for Inactive)
REMARK    1  A    between atoms: C_2  and  C_3 
REMARK    2  A    between atoms: C_3  and  C_4 
REMARK    3  A    between atoms: C_3  and  C_6 
REMARK    4  A    between atoms: C_6  and  C_7 
REMARK    5  A    between atoms: C_7  and  C_13 
REMARK       I    between atoms: C_13  and  N_15 
REMARK    6  A    between atoms: N_15  and  C_16 
REMARK    7  A    between atoms: C_21  and  S_22 
REMARK    8  A    between atoms: S_22  and  C_23 
REMARK    9  A    between atoms: C_23  and  C_25 
ROOT
HETATM    1  C   UNK N   1      29.534  23.875  -5.348  0.00  0.00     0.231 C 
HETATM    2  O   UNK N   1      30.018  24.997  -5.281  0.00  0.00    -0.272 OA
HETATM    3  N   UNK N   1      28.183  23.708  -5.341  0.00  0.00    -0.325 N 
HETATM    4  H   UNK N   1      27.845  22.784  -5.295  0.00  0.00     0.169 HD
ENDROOT
BRANCH   1   5
HETATM    5  C   UNK N   1      30.455  22.666  -5.394  0.00  0.00     0.042 C 
HETATM    6  C   UNK N   1      30.054  21.638  -4.310  0.00  0.00     0.019 C 
HETATM    7  C   UNK N   1      30.640  21.994  -2.947  0.00  0.00     0.001 C 
HETATM    8  C   UNK N   1      32.174  21.953  -2.982  0.00  0.00     0.000 C 
HETATM    9  C   UNK N   1      32.755  22.161  -4.388  0.00  0.00     0.001 C 
HETATM   10  C   UNK N   1      31.902  23.162  -5.160  0.00  0.00     0.019 C 
BRANCH   5  11
HETATM   11  C   UNK N   1      30.338  21.888  -6.729  0.00  0.00     0.023 C 
BRANCH  11  12
HETATM   12  C   UNK N   1      30.392  20.346  -6.751  0.00  0.00    -0.014 C 
BRANCH  12  13
HETATM   13  C   UNK N   1      31.744  19.787  -7.182  0.00  0.00     0.000 C 
HETATM   14  C   UNK N   1      32.507  20.816  -7.997  0.00  0.00     0.005 C 
ENDBRANCH  12  13
BRANCH  12  15
HETATM   15  C   UNK N   1      29.221  19.742  -7.521  0.00  0.00     0.000 C 
HETATM   16  C   UNK N   1      29.623  18.495  -8.288  0.00  0.00     0.005 C 
ENDBRANCH  12  15
ENDBRANCH  11  12
ENDBRANCH   5  11
ENDBRANCH   1   5
BRANCH   3  17
HETATM   17  C   UNK N   1      27.211  24.751  -5.393  0.00  0.00     0.052 A 
HETATM   18  C   UNK N   1      26.832  25.458  -4.239  0.00  0.00     0.031 A 
HETATM   19  C   UNK N   1      25.899  26.494  -4.315  0.00  0.00     0.002 A 
HETATM   20  C   UNK N   1      25.334  26.835  -5.545  0.00  0.00     0.002 A 
HETATM   21  C   UNK N   1      25.703  26.139  -6.700  0.00  0.00     0.021 A 
HETATM   22  C   UNK N   1      26.639  25.102  -6.630  0.00  0.00     0.035 A 
BRANCH  22  23
HETATM   23  S   UNK N   1      27.087  24.224  -8.136  0.00  0.00    -0.050 SA
BRANCH  23  24
HETATM   24  C   UNK N   1      25.643  23.128  -8.183  0.00  0.00     0.194 C 
HETATM   25  O   UNK N   1      24.593  23.498  -8.686  0.00  0.00    -0.285 OA
BRANCH  24  26
HETATM   26  C   UNK N   1      25.723  21.747  -7.608  0.00  0.00     0.059 C 
HETATM   27  C   UNK N   1      24.477  21.425  -6.807  0.00  0.00     0.018 C 
HETATM   28  C   UNK N   1      25.906  20.714  -8.701  0.00  0.00     0.018 C 
ENDBRANCH  24  26
ENDBRANCH  23  24
ENDBRANCH  22  23
ENDBRANCH   3  17
TORSDOF 9
ENDMDL
MODEL 5
REMARK VINA RESULT:      -6.5      8.112     11.201
REMARK  9 active torsions:
REMARK  status: ('A' for Active; 'I' for Inactive)
REMARK    1  A    between atoms: C_2  and  C_3 
REMARK    2  A    between atoms: C_3  and  C_4 
REMARK    3  A    between atoms: C_3  and  C_6 
REMARK    4  A    between atoms: C_6  and  C_7 
REMARK    5  A    between atoms: C_7  and  C_13 
REMARK       I    between atoms: C_13  and  N_15 
REMARK    6  A    between atoms: N_15  and  C_16 
REMARK    7  A    between atoms: C_21  and  S_22 
REMARK    8  A    between atoms: S_22  and  C_23 
REMARK    9  A    between atoms: C_23  and  C_25 
ROOT
HETATM    1  C   UNK N   1      29.194  16.456   3.976  0.00  0.00     0.231 C 
HETATM    2  O   UNK N   1      29.097  16.478   2.756  0.00  0.00    -0.272 OA
HETATM    3  N   UNK N   1      30.230  15.803   4.571  0.00  0.00    -0.325 N 
HETATM    4  H   UNK N   1      30.208  15.730   5.553  0.00  0.00     0.169 HD
ENDROOT
BRANCH   1   5
HETATM    5  C   UNK N   1      28.123  17.126   4.822  0.00  0.00     0.042 C 
HETATM    6  C   UNK N   1      27.619  16.163   5.921  0.00  0.00     0.019 C 
HETATM    7  C   UNK N   1      26.557  15.204   5.391  0.00  0.00     0.001 C 
HETATM    8  C   UNK N   1      25.307  15.969   4.933  0.00  0.00     0.000 C 
HETATM    9  C   UNK N   1      25.594  17.428   4.552  0.00  0.00     0.001 C 
HETATM   10  C   UNK N   1      26.961  17.532   3.883  0.00  0.00     0.019 C 
BRANCH   5  11
HETATM   11  C   UNK N   1      28.668  18.351   5.599  0.00  0.00     0.023 C 
BRANCH  11  12
HETATM   12  C   UNK N   1      28.021  18.795   6.927  0.00  0.00    -0.014 C 
BRANCH  12  13
HETATM   13  C   UNK N   1      27.375  20.175   6.863  0.00  0.00     0.000 C 
HETATM   14  C   UNK N   1      27.560  20.782   5.484  0.00  0.00     0.005 C 
ENDBRANCH  12  13
BRANCH  12  15
HETATM   15  C   UNK N   1      28.972  18.633   8.110  0.00  0.00     0.000 C 
HETATM   16  C   UNK N   1      28.323  17.895   9.268  0.00  0.00     0.005 C 
ENDBRANCH  12  15
ENDBRANCH  11  12
ENDBRANCH   5  11
ENDBRANCH   1   5
BRANCH   3  17
HETATM   17  C   UNK N   1      31.344  15.216   3.902  0.00  0.00     0.052 A 
HETATM   18  C   UNK N   1      31.316  13.879   3.469  0.00  0.00     0.031 A 
HETATM   19  C   UNK N   1      32.407  13.330   2.792  0.00  0.00     0.002 A 
HETATM   20  C   UNK N   1      33.536  14.110   2.539  0.00  0.00     0.002 A 
HETATM   21  C   UNK N   1      33.575  15.440   2.966  0.00  0.00     0.021 A 
HETATM   22  C   UNK N   1      32.485  15.997   3.643  0.00  0.00     0.035 A 
BRANCH  22  23
HETATM   23  S   UNK N   1      32.572  17.712   4.181  0.00  0.00    -0.050 SA
BRANCH  23  24
HETATM   24  C   UNK N   1      33.250  17.384   5.831  0.00  0.00     0.194 C 
HETATM   25  O   UNK N   1      34.455  17.269   6.000  0.00  0.00    -0.285 OA
BRANCH  24  26
HETATM   26  C   UNK N   1      32.338  17.256   7.012  0.00  0.00     0.059 C 
HETATM   27  C   UNK N   1      32.221  15.809   7.447  0.00  0.00     0.018 C 
HETATM   28  C   UNK N   1      32.830  18.098   8.172  0.00  0.00     0.018 C 
ENDBRANCH  24  26
ENDBRANCH  23  24
ENDBRANCH  22  23
ENDBRANCH   3  17
TORSDOF 9
ENDMDL
MODEL 6
REMARK VINA RESULT:      -6.4     19.628     22.897
REMARK  9 active torsions:
REMARK  status: ('A' for Active; 'I' for Inactive)
REMARK    1  A    between atoms: C_2  and  C_3 
REMARK    2  A    between atoms: C_3  and  C_4 
REMARK    3  A    between atoms: C_3  and  C_6 
REMARK    4  A    between atoms: C_6  and  C_7 
REMARK    5  A    between atoms: C_7  and  C_13 
REMARK       I    between atoms: C_13  and  N_15 
REMARK    6  A    between atoms: N_15  and  C_16 
REMARK    7  A    between atoms: C_21  and  S_22 
REMARK    8  A    between atoms: S_22  and  C_23 
REMARK    9  A    between atoms: C_23  and  C_25 
ROOT
HETATM    1  C   UNK N   1      28.978  24.336  -4.697  0.00  0.00     0.231 C 
HETATM    2  O   UNK N   1      28.176  23.787  -3.953  0.00  0.00    -0.272 OA
HETATM    3  N   UNK N   1      28.584  25.369  -5.491  0.00  0.00    -0.325 N 
HETATM    4  H   UNK N   1      29.239  25.709  -6.143  0.00  0.00     0.169 HD
ENDROOT
BRANCH   1   5
HETATM    5  C   UNK N   1      30.408  23.823  -4.761  0.00  0.00     0.042 C 
HETATM    6  C   UNK N   1      30.488  22.548  -5.633  0.00  0.00     0.019 C 
HETATM    7  C   UNK N   1      30.108  21.298  -4.846  0.00  0.00     0.001 C 
HETATM    8  C   UNK N   1      31.095  21.051  -3.697  0.00  0.00     0.000 C 
HETATM    9  C   UNK N   1      31.815  22.325  -3.233  0.00  0.00     0.001 C 
HETATM   10  C   UNK N   1      30.869  23.519  -3.315  0.00  0.00     0.019 C 
BRANCH   5  11
HETATM   11  C   UNK N   1      31.362  24.827  -5.454  0.00  0.00     0.023 C 
BRANCH  11  12
HETATM   12  C   UNK N   1      32.335  25.692  -4.626  0.00  0.00    -0.014 C 
BRANCH  12  13
HETATM   13  C   UNK N   1      31.895  27.145  -4.483  0.00  0.00     0.000 C 
HETATM   14  C   UNK N   1      30.912  27.290  -3.335  0.00  0.00     0.005 C 
ENDBRANCH  12  13
BRANCH  12  15
HETATM   15  C   UNK N   1      33.778  25.547  -5.101  0.00  0.00     0.000 C 
HETATM   16  C   UNK N   1      34.071  24.151  -5.622  0.00  0.00     0.005 C 
ENDBRANCH  12  15
ENDBRANCH  11  12
ENDBRANCH   5  11
ENDBRANCH   1   5
BRANCH   3  17
HETATM   17  C   UNK N   1      27.307  26.004  -5.464  0.00  0.00     0.052 A 
HETATM   18  C   UNK N   1      26.859  26.700  -4.327  0.00  0.00     0.031 A 
HETATM   19  C   UNK N   1      25.617  27.338  -4.331  0.00  0.00     0.002 A 
HETATM   20  C   UNK N   1      24.810  27.289  -5.468  0.00  0.00     0.002 A 
HETATM   21  C   UNK N   1      25.245  26.600  -6.603  0.00  0.00     0.021 A 
HETATM   22  C   UNK N   1      26.489  25.960  -6.607  0.00  0.00     0.035 A 
BRANCH  22  23
HETATM   23  S   UNK N   1      27.015  25.079  -8.086  0.00  0.00    -0.050 SA
BRANCH  23  24
HETATM   24  C   UNK N   1      25.763  23.768  -8.009  0.00  0.00     0.194 C 
HETATM   25  O   UNK N   1      24.761  23.819  -8.706  0.00  0.00    -0.285 OA
BRANCH  24  26
HETATM   26  C   UNK N   1      25.948  22.599  -7.092  0.00  0.00     0.059 C 
HETATM   27  C   UNK N   1      24.862  21.565  -7.314  0.00  0.00     0.018 C 
HETATM   28  C   UNK N   1      27.307  21.959  -7.294  0.00  0.00     0.018 C 
ENDBRANCH  24  26
ENDBRANCH  23  24
ENDBRANCH  22  23
ENDBRANCH   3  17
TORSDOF 9
ENDMDL
MODEL 7
REMARK VINA RESULT:      -6.4      4.312      9.219
REMARK  9 active torsions:
REMARK  status: ('A' for Active; 'I' for Inactive)
REMARK    1  A    between atoms: C_2  and  C_3 
REMARK    2  A    between atoms: C_3  and  C_4 
REMARK    3  A    between atoms: C_3  and  C_6 
REMARK    4  A    between atoms: C_6  and  C_7 
REMARK    5  A    between atoms: C_7  and  C_13 
REMARK       I    between atoms: C_13  and  N_15 
REMARK    6  A    between atoms: N_15  and  C_16 
REMARK    7  A    between atoms: C_21  and  S_22 
REMARK    8  A    between atoms: S_22  and  C_23 
REMARK    9  A    between atoms: C_23  and  C_25 
ROOT
HETATM    1  C   UNK N   1      33.593  16.791   6.675  0.00  0.00     0.231 C 
HETATM    2  O   UNK N   1      34.564  17.523   6.538  0.00  0.00    -0.272 OA
HETATM    3  N   UNK N   1      33.538  15.909   7.711  0.00  0.00    -0.325 N 
HETATM    4  H   UNK N   1      32.785  15.274   7.720  0.00  0.00     0.169 HD
ENDROOT
BRANCH   1   5
HETATM    5  C   UNK N   1      32.469  16.841   5.652  0.00  0.00     0.042 C 
HETATM    6  C   UNK N   1      31.984  15.414   5.307  0.00  0.00     0.019 C 
HETATM    7  C   UNK N   1      32.870  14.753   4.255  0.00  0.00     0.001 C 
HETATM    8  C   UNK N   1      32.812  15.520   2.927  0.00  0.00     0.000 C 
HETATM    9  C   UNK N   1      32.416  16.994   3.095  0.00  0.00     0.001 C 
HETATM   10  C   UNK N   1      33.011  17.549   4.386  0.00  0.00     0.019 C 
BRANCH   5  11
HETATM   11  C   UNK N   1      31.209  17.558   6.198  0.00  0.00     0.023 C 
BRANCH  11  12
HETATM   12  C   UNK N   1      30.096  16.763   6.912  0.00  0.00    -0.014 C 
BRANCH  12  13
HETATM   13  C   UNK N   1      28.721  16.923   6.273  0.00  0.00     0.000 C 
HETATM   14  C   UNK N   1      28.848  17.540   4.892  0.00  0.00     0.005 C 
ENDBRANCH  12  13
BRANCH  12  15
HETATM   15  C   UNK N   1      30.090  17.012   8.418  0.00  0.00     0.000 C 
HETATM   16  C   UNK N   1      30.848  18.273   8.792  0.00  0.00     0.005 C 
ENDBRANCH  12  15
ENDBRANCH  11  12
ENDBRANCH   5  11
ENDBRANCH   1   5
BRANCH   3  17
HETATM   17  C   UNK N   1      34.472  15.822   8.785  0.00  0.00     0.052 A 
HETATM   18  C   UNK N   1      34.632  16.874   9.705  0.00  0.00     0.031 A 
HETATM   19  C   UNK N   1      35.532  16.758  10.765  0.00  0.00     0.002 A 
HETATM   20  C   UNK N   1      36.283  15.592  10.919  0.00  0.00     0.002 A 
HETATM   21  C   UNK N   1      36.133  14.540  10.011  0.00  0.00     0.021 A 
HETATM   22  C   UNK N   1      35.231  14.649   8.948  0.00  0.00     0.035 A 
BRANCH  22  23
HETATM   23  S   UNK N   1      35.068  13.276   7.795  0.00  0.00    -0.050 SA
BRANCH  23  24
HETATM   24  C   UNK N   1      33.706  12.438   8.652  0.00  0.00     0.194 C 
HETATM   25  O   UNK N   1      32.593  12.938   8.695  0.00  0.00    -0.285 OA
BRANCH  24  26
HETATM   26  C   UNK N   1      33.932  11.114   9.315  0.00  0.00     0.059 C 
HETATM   27  C   UNK N   1      34.646  11.291  10.640  0.00  0.00     0.018 C 
HETATM   28  C   UNK N   1      32.621  10.387   9.537  0.00  0.00     0.018 C 
ENDBRANCH  24  26
ENDBRANCH  23  24
ENDBRANCH  22  23
ENDBRANCH   3  17
TORSDOF 9
ENDMDL
MODEL 8
REMARK VINA RESULT:      -6.3     20.813     23.550
REMARK  9 active torsions:
REMARK  status: ('A' for Active; 'I' for Inactive)
REMARK    1  A    between atoms: C_2  and  C_3 
REMARK    2  A    between atoms: C_3  and  C_4 
REMARK    3  A    between atoms: C_3  and  C_6 
REMARK    4  A    between atoms: C_6  and  C_7 
REMARK    5  A    between atoms: C_7  and  C_13 
REMARK       I    between atoms: C_13  and  N_15 
REMARK    6  A    between atoms: N_15  and  C_16 
REMARK    7  A    between atoms: C_21  and  S_22 
REMARK    8  A    between atoms: S_22  and  C_23 
REMARK    9  A    between atoms: C_23  and  C_25 
ROOT
HETATM    1  C   UNK N   1      26.955  25.417  -6.234  0.00  0.00     0.231 C 
HETATM    2  O   UNK N   1      26.252  25.739  -7.183  0.00  0.00    -0.272 OA
HETATM    3  N   UNK N   1      27.100  24.106  -5.900  0.00  0.00    -0.325 N 
HETATM    4  H   UNK N   1      27.593  23.907  -5.071  0.00  0.00     0.169 HD
ENDROOT
BRANCH   1   5
HETATM    5  C   UNK N   1      27.628  26.499  -5.404  0.00  0.00     0.042 C 
HETATM    6  C   UNK N   1      27.128  26.450  -3.941  0.00  0.00     0.019 C 
HETATM    7  C   UNK N   1      25.803  27.187  -3.770  0.00  0.00     0.001 C 
HETATM    8  C   UNK N   1      25.962  28.681  -4.083  0.00  0.00     0.000 C 
HETATM    9  C   UNK N   1      27.143  28.984  -5.016  0.00  0.00     0.001 C 
HETATM   10  C   UNK N   1      27.292  27.867  -6.045  0.00  0.00     0.019 C 
BRANCH   5  11
HETATM   11  C   UNK N   1      29.160  26.291  -5.298  0.00  0.00     0.023 C 
BRANCH  11  12
HETATM   12  C   UNK N   1      29.904  26.563  -3.974  0.00  0.00    -0.014 C 
BRANCH  12  13
HETATM   13  C   UNK N   1      30.604  27.918  -3.932  0.00  0.00     0.000 C 
HETATM   14  C   UNK N   1      30.096  28.739  -2.761  0.00  0.00     0.005 C 
ENDBRANCH  12  13
BRANCH  12  15
HETATM   15  C   UNK N   1      30.815  25.404  -3.579  0.00  0.00     0.000 C 
HETATM   16  C   UNK N   1      30.053  24.098  -3.447  0.00  0.00     0.005 C 
ENDBRANCH  12  15
ENDBRANCH  11  12
ENDBRANCH   5  11
ENDBRANCH   1   5
BRANCH   3  17
HETATM   17  C   UNK N   1      26.604  22.994  -6.642  0.00  0.00     0.052 A 
HETATM   18  C   UNK N   1      25.260  22.591  -6.546  0.00  0.00     0.031 A 
HETATM   19  C   UNK N   1      24.786  21.516  -7.301  0.00  0.00     0.002 A 
HETATM   20  C   UNK N   1      25.648  20.832  -8.159  0.00  0.00     0.002 A 
HETATM   21  C   UNK N   1      26.986  21.223  -8.262  0.00  0.00     0.021 A 
HETATM   22  C   UNK N   1      27.466  22.301  -7.510  0.00  0.00     0.035 A 
BRANCH  22  23
HETATM   23  S   UNK N   1      29.196  22.774  -7.665  0.00  0.00    -0.050 SA
BRANCH  23  24
HETATM   24  C   UNK N   1      29.888  21.344  -6.789  0.00  0.00     0.194 C 
HETATM   25  O   UNK N   1      29.780  21.242  -5.576  0.00  0.00    -0.285 OA
BRANCH  24  26
HETATM   26  C   UNK N   1      30.596  20.264  -7.546  0.00  0.00     0.059 C 
HETATM   27  C   UNK N   1      31.923  19.930  -6.893  0.00  0.00     0.018 C 
HETATM   28  C   UNK N   1      29.744  19.014  -7.634  0.00  0.00     0.018 C 
ENDBRANCH  24  26
ENDBRANCH  23  24
ENDBRANCH  22  23
ENDBRANCH   3  17
TORSDOF 9
ENDMDL
MODEL 9
REMARK VINA RESULT:      -6.3      2.079      7.216
REMARK  9 active torsions:
REMARK  status: ('A' for Active; 'I' for Inactive)
REMARK    1  A    between atoms: C_2  and  C_3 
REMARK    2  A    between atoms: C_3  and  C_4 
REMARK    3  A    between atoms: C_3  and  C_6 
REMARK    4  A    between atoms: C_6  and  C_7 
REMARK    5  A    between atoms: C_7  and  C_13 
REMARK       I    between atoms: C_13  and  N_15 
REMARK    6  A    between atoms: N_15  and  C_16 
REMARK    7  A    between atoms: C_21  and  S_22 
REMARK    8  A    between atoms: S_22  and  C_23 
REMARK    9  A    between atoms: C_23  and  C_25 
ROOT
HETATM    1  C   UNK N   1      36.201  13.778  12.783  0.00  0.00     0.231 C 
HETATM    2  O   UNK N   1      35.309  14.614  12.832  0.00  0.00    -0.272 OA
HETATM    3  N   UNK N   1      36.915  13.469  13.900  0.00  0.00    -0.325 N 
HETATM    4  H   UNK N   1      37.686  12.867  13.788  0.00  0.00     0.169 HD
ENDROOT
BRANCH   1   5
HETATM    5  C   UNK N   1      36.537  13.122  11.454  0.00  0.00     0.042 C 
HETATM    6  C   UNK N   1      35.373  12.218  10.985  0.00  0.00     0.019 C 
HETATM    7  C   UNK N   1      35.423  10.842  11.642  0.00  0.00     0.001 C 
HETATM    8  C   UNK N   1      36.696  10.086  11.236  0.00  0.00     0.000 C 
HETATM    9  C   UNK N   1      37.841  11.014  10.806  0.00  0.00     0.001 C 
HETATM   10  C   UNK N   1      37.825  12.286  11.648  0.00  0.00     0.019 C 
BRANCH   5  11
HETATM   11  C   UNK N   1      36.707  14.157  10.313  0.00  0.00     0.023 C 
BRANCH  11  12
HETATM   12  C   UNK N   1      35.681  14.242   9.165  0.00  0.00    -0.014 C 
BRANCH  12  13
HETATM   13  C   UNK N   1      36.298  14.097   7.778  0.00  0.00     0.000 C 
HETATM   14  C   UNK N   1      37.501  13.172   7.829  0.00  0.00     0.005 C 
ENDBRANCH  12  13
BRANCH  12  15
HETATM   15  C   UNK N   1      34.777  15.466   9.294  0.00  0.00     0.000 C 
HETATM   16  C   UNK N   1      33.376  15.096   9.746  0.00  0.00     0.005 C 
ENDBRANCH  12  15
ENDBRANCH  11  12
ENDBRANCH   5  11
ENDBRANCH   1   5
BRANCH   3  17
HETATM   17  C   UNK N   1      36.647  13.939  15.220  0.00  0.00     0.052 A 
HETATM   18  C   UNK N   1      37.247  15.109  15.718  0.00  0.00     0.031 A 
HETATM   19  C   UNK N   1      36.951  15.566  17.003  0.00  0.00     0.002 A 
HETATM   20  C   UNK N   1      36.053  14.862  17.805  0.00  0.00     0.002 A 
HETATM   21  C   UNK N   1      35.450  13.698  17.322  0.00  0.00     0.021 A 
HETATM   22  C   UNK N   1      35.741  13.235  16.034  0.00  0.00     0.035 A 
BRANCH  22  23
HETATM   23  S   UNK N   1      34.949  11.729  15.446  0.00  0.00    -0.050 SA
BRANCH  23  24
HETATM   24  C   UNK N   1      36.291  10.593  15.892  0.00  0.00     0.194 C 
HETATM   25  O   UNK N   1      36.629  10.453  17.058  0.00  0.00    -0.285 OA
BRANCH  24  26
HETATM   26  C   UNK N   1      36.999   9.806  14.834  0.00  0.00     0.059 C 
HETATM   27  C   UNK N   1      38.425  10.291  14.666  0.00  0.00     0.018 C 
HETATM   28  C   UNK N   1      37.000   8.327  15.165  0.00  0.00     0.018 C 
ENDBRANCH  24  26
ENDBRANCH  23  24
ENDBRANCH  22  23
ENDBRANCH   3  17
TORSDOF 9
ENDMDL
