MODEL 1
REMARK VINA RESULT:      -7.4      0.000      0.000
REMARK  11 active torsions:
REMARK  status: ('A' for Active; 'I' for Inactive)
REMARK    1  A    between atoms: C_2  and  C_5 
REMARK    2  A    between atoms: C_8  and  C_11 
REMARK    3  A    between atoms: C_11  and  N_12 
REMARK    4  A    between atoms: N_12  and  C_13 
REMARK    5  A    between atoms: N_12  and  S_25 
REMARK    6  A    between atoms: C_13  and  C_14 
REMARK    7  A    between atoms: C_18  and  O_20 
REMARK    8  A    between atoms: O_20  and  C_21 
REMARK    9  A    between atoms: C_21  and  C_22 
REMARK   10  A    between atoms: C_22  and  O_24 
REMARK   11  A    between atoms: S_25  and  C_28 
ROOT
HETATM    1  N   UNK N   1      26.498  24.808  -7.815  0.00  0.00    -0.198 NA
ENDROOT
BRANCH   1   2
HETATM    2  C   UNK N   1      25.484  25.834  -7.605  0.00  0.00     0.146 C 
BRANCH   2   3
HETATM    3  C   UNK N   1      25.927  26.946  -6.724  0.00  0.00    -0.044 A 
HETATM    4  C   UNK N   1      25.177  27.261  -5.587  0.00  0.00     0.009 A 
HETATM    5  C   UNK N   1      25.639  28.224  -4.689  0.00  0.00     0.008 A 
HETATM    6  C   UNK N   1      26.870  28.868  -4.905  0.00  0.00    -0.051 A 
HETATM    7  C   UNK N   1      27.617  28.540  -6.051  0.00  0.00     0.008 A 
HETATM    8  C   UNK N   1      27.148  27.582  -6.953  0.00  0.00     0.009 A 
BRANCH   6   9
HETATM    9  C   UNK N   1      27.413  29.885  -3.921  0.00  0.00    -0.024 C 
HETATM   10  C   UNK N   1      28.707  30.535  -4.396  0.00  0.00     0.019 C 
HETATM   11  C   UNK N   1      27.690  29.218  -2.585  0.00  0.00     0.019 C 
HETATM   12  C   UNK N   1      26.392  30.990  -3.714  0.00  0.00     0.019 C 
ENDBRANCH   6   9
ENDBRANCH   2   3
ENDBRANCH   1   2
BRANCH   1  13
HETATM   13  C   UNK N   1      26.159  23.693  -6.925  0.00  0.00     0.146 C 
BRANCH  13  14
HETATM   14  C   UNK N   1      26.935  23.689  -5.638  0.00  0.00    -0.041 A 
HETATM   15  C   UNK N   1      26.344  24.160  -4.459  0.00  0.00     0.008 A 
HETATM   16  C   UNK N   1      27.089  24.277  -3.287  0.00  0.00     0.003 A 
HETATM   17  C   UNK N   1      28.441  23.954  -3.291  0.00  0.00     0.037 A 
HETATM   18  C   UNK N   1      29.049  23.474  -4.451  0.00  0.00     0.070 A 
HETATM   19  C   UNK N   1      28.295  23.333  -5.633  0.00  0.00     0.045 A 
BRANCH  18  20
HETATM   20  O   UNK N   1      30.360  23.173  -4.402  0.00  0.00    -0.341 OA
BRANCH  20  21
HETATM   21  C   UNK N   1      31.069  23.197  -3.230  0.00  0.00     0.285 C 
BRANCH  21  22
HETATM   22  C   UNK N   1      31.504  21.794  -2.943  0.00  0.00     0.164 C 
HETATM   23  O   UNK N   1      32.425  21.585  -2.165  0.00  0.00    -0.648 OA
BRANCH  22  24
HETATM   24  O   UNK N   1      30.842  20.759  -3.487  0.00  0.00    -0.775 OA
HETATM   25  H   UNK N   1      30.362  19.954  -3.498  0.00  0.00     0.167 HD
ENDBRANCH  22  24
ENDBRANCH  21  22
ENDBRANCH  20  21
ENDBRANCH  18  20
ENDBRANCH  13  14
ENDBRANCH   1  13
BRANCH   1  26
HETATM   26  S   UNK N   1      26.272  24.348  -9.528  0.00  0.00     0.245 S 
HETATM   27  O   UNK N   1      27.537  23.572  -9.926  0.00  0.00    -0.206 OA
HETATM   28  O   UNK N   1      25.186  23.258  -9.570  0.00  0.00    -0.206 OA
BRANCH  26  29
HETATM   29  C   UNK N   1      25.905  25.676 -10.676  0.00  0.00     0.090 A 
HETATM   30  C   UNK N   1      24.608  25.849 -11.159  0.00  0.00     0.027 A 
HETATM   31  C   UNK N   1      24.346  26.846 -12.099  0.00  0.00     0.018 A 
HETATM   32  C   UNK N   1      25.393  27.655 -12.546  0.00  0.00     0.087 A 
HETATM   33  N   UNK N   1      26.654  27.470 -12.067  0.00  0.00    -0.374 N 
HETATM   34  C   UNK N   1      26.928  26.501 -11.152  0.00  0.00     0.112 A 
ATOM     35  HN  UNK N   1      27.407  28.070 -12.401  1.00  0.00     0.164 HD
ENDBRANCH  26  29
ENDBRANCH   1  26
TORSDOF 11
ENDMDL
MODEL 2
REMARK VINA RESULT:      -7.4      1.981      2.906
REMARK  11 active torsions:
REMARK  status: ('A' for Active; 'I' for Inactive)
REMARK    1  A    between atoms: C_2  and  C_5 
REMARK    2  A    between atoms: C_8  and  C_11 
REMARK    3  A    between atoms: C_11  and  N_12 
REMARK    4  A    between atoms: N_12  and  C_13 
REMARK    5  A    between atoms: N_12  and  S_25 
REMARK    6  A    between atoms: C_13  and  C_14 
REMARK    7  A    between atoms: C_18  and  O_20 
REMARK    8  A    between atoms: O_20  and  C_21 
REMARK    9  A    between atoms: C_21  and  C_22 
REMARK   10  A    between atoms: C_22  and  O_24 
REMARK   11  A    between atoms: S_25  and  C_28 
ROOT
HETATM    1  N   UNK N   1      26.196  24.294  -7.552  0.00  0.00    -0.198 NA
ENDROOT
BRANCH   1   2
HETATM    2  C   UNK N   1      25.453  25.532  -7.753  0.00  0.00     0.146 C 
BRANCH   2   3
HETATM    3  C   UNK N   1      25.899  26.650  -6.880  0.00  0.00    -0.044 A 
HETATM    4  C   UNK N   1      25.085  27.057  -5.819  0.00  0.00     0.009 A 
HETATM    5  C   UNK N   1      25.538  28.025  -4.921  0.00  0.00     0.008 A 
HETATM    6  C   UNK N   1      26.822  28.580  -5.060  0.00  0.00    -0.051 A 
HETATM    7  C   UNK N   1      27.634  28.159  -6.129  0.00  0.00     0.008 A 
HETATM    8  C   UNK N   1      27.174  27.197  -7.032  0.00  0.00     0.009 A 
BRANCH   6   9
HETATM    9  C   UNK N   1      27.353  29.600  -4.072  0.00  0.00    -0.024 C 
HETATM   10  C   UNK N   1      28.662  30.235  -4.523  0.00  0.00     0.019 C 
HETATM   11  C   UNK N   1      27.596  28.941  -2.726  0.00  0.00     0.019 C 
HETATM   12  C   UNK N   1      26.337  30.715  -3.894  0.00  0.00     0.019 C 
ENDBRANCH   6   9
ENDBRANCH   2   3
ENDBRANCH   1   2
BRANCH   1  13
HETATM   13  C   UNK N   1      25.737  23.731  -6.278  0.00  0.00     0.146 C 
BRANCH  13  14
HETATM   14  C   UNK N   1      26.786  23.737  -5.201  0.00  0.00    -0.041 A 
HETATM   15  C   UNK N   1      26.535  24.373  -3.979  0.00  0.00     0.008 A 
HETATM   16  C   UNK N   1      27.539  24.493  -3.020  0.00  0.00     0.003 A 
HETATM   17  C   UNK N   1      28.814  24.008  -3.288  0.00  0.00     0.037 A 
HETATM   18  C   UNK N   1      29.085  23.364  -4.496  0.00  0.00     0.070 A 
HETATM   19  C   UNK N   1      28.067  23.220  -5.460  0.00  0.00     0.045 A 
BRANCH  18  20
HETATM   20  O   UNK N   1      30.335  22.910  -4.705  0.00  0.00    -0.341 OA
BRANCH  20  21
HETATM   21  C   UNK N   1      31.315  23.011  -3.754  0.00  0.00     0.285 C 
BRANCH  21  22
HETATM   22  C   UNK N   1      31.628  21.624  -3.286  0.00  0.00     0.164 C 
HETATM   23  O   UNK N   1      31.305  20.660  -3.966  0.00  0.00    -0.648 OA
BRANCH  22  24
HETATM   24  O   UNK N   1      32.323  21.438  -2.152  0.00  0.00    -0.775 OA
HETATM   25  H   UNK N   1      32.860  21.677  -1.422  0.00  0.00     0.167 HD
ENDBRANCH  22  24
ENDBRANCH  21  22
ENDBRANCH  20  21
ENDBRANCH  18  20
ENDBRANCH  13  14
ENDBRANCH   1  13
BRANCH   1  26
HETATM   26  S   UNK N   1      25.676  23.272  -8.925  0.00  0.00     0.245 S 
HETATM   27  O   UNK N   1      24.386  22.576  -8.467  0.00  0.00    -0.206 OA
HETATM   28  O   UNK N   1      25.171  24.216 -10.031  0.00  0.00    -0.206 OA
BRANCH  26  29
HETATM   29  C   UNK N   1      26.882  22.108  -9.564  0.00  0.00     0.090 A 
HETATM   30  C   UNK N   1      27.696  21.389  -8.688  0.00  0.00     0.027 A 
HETATM   31  C   UNK N   1      28.672  20.532  -9.197  0.00  0.00     0.018 A 
HETATM   32  C   UNK N   1      28.822  20.412 -10.580  0.00  0.00     0.087 A 
HETATM   33  N   UNK N   1      28.022  21.124 -11.420  0.00  0.00    -0.374 N 
HETATM   34  C   UNK N   1      27.066  21.966 -10.941  0.00  0.00     0.112 A 
ATOM     35  HN  UNK N   1      28.140  21.024 -12.427  1.00  0.00     0.164 HD
ENDBRANCH  26  29
ENDBRANCH   1  26
TORSDOF 11
ENDMDL
MODEL 3
REMARK VINA RESULT:      -7.4     14.209     18.193
REMARK  11 active torsions:
REMARK  status: ('A' for Active; 'I' for Inactive)
REMARK    1  A    between atoms: C_2  and  C_5 
REMARK    2  A    between atoms: C_8  and  C_11 
REMARK    3  A    between atoms: C_11  and  N_12 
REMARK    4  A    between atoms: N_12  and  C_13 
REMARK    5  A    between atoms: N_12  and  S_25 
REMARK    6  A    between atoms: C_13  and  C_14 
REMARK    7  A    between atoms: C_18  and  O_20 
REMARK    8  A    between atoms: O_20  and  C_21 
REMARK    9  A    between atoms: C_21  and  C_22 
REMARK   10  A    between atoms: C_22  and  O_24 
REMARK   11  A    between atoms: S_25  and  C_28 
ROOT
HETATM    1  N   UNK N   1      22.752  14.177   6.599  0.00  0.00    -0.198 NA
ENDROOT
BRANCH   1   2
HETATM    2  C   UNK N   1      23.971  13.898   5.848  0.00  0.00     0.146 C 
BRANCH   2   3
HETATM    3  C   UNK N   1      24.990  14.977   5.936  0.00  0.00    -0.044 A 
HETATM    4  C   UNK N   1      25.777  15.085   7.086  0.00  0.00     0.009 A 
HETATM    5  C   UNK N   1      26.815  16.017   7.139  0.00  0.00     0.008 A 
HETATM    6  C   UNK N   1      27.093  16.837   6.031  0.00  0.00    -0.051 A 
HETATM    7  C   UNK N   1      26.296  16.716   4.878  0.00  0.00     0.008 A 
HETATM    8  C   UNK N   1      25.253  15.789   4.831  0.00  0.00     0.009 A 
BRANCH   6   9
HETATM    9  C   UNK N   1      28.243  17.825   6.049  0.00  0.00    -0.024 C 
HETATM   10  C   UNK N   1      28.124  18.850   7.170  0.00  0.00     0.019 C 
HETATM   11  C   UNK N   1      28.299  18.580   4.732  0.00  0.00     0.019 C 
HETATM   12  C   UNK N   1      29.553  17.081   6.242  0.00  0.00     0.019 C 
ENDBRANCH   6   9
ENDBRANCH   2   3
ENDBRANCH   1   2
BRANCH   1  13
HETATM   13  C   UNK N   1      21.728  14.547   5.617  0.00  0.00     0.146 C 
BRANCH  13  14
HETATM   14  C   UNK N   1      21.652  16.025   5.351  0.00  0.00    -0.041 A 
HETATM   15  C   UNK N   1      21.650  16.932   6.417  0.00  0.00     0.008 A 
HETATM   16  C   UNK N   1      21.457  18.293   6.193  0.00  0.00     0.003 A 
HETATM   17  C   UNK N   1      21.231  18.757   4.902  0.00  0.00     0.037 A 
HETATM   18  C   UNK N   1      21.238  17.873   3.823  0.00  0.00     0.070 A 
HETATM   19  C   UNK N   1      21.455  16.498   4.042  0.00  0.00     0.045 A 
BRANCH  18  20
HETATM   20  O   UNK N   1      21.017  18.372   2.593  0.00  0.00    -0.341 OA
BRANCH  20  21
HETATM   21  C   UNK N   1      20.228  19.472   2.384  0.00  0.00     0.285 C 
BRANCH  21  22
HETATM   22  C   UNK N   1      21.099  20.546   1.811  0.00  0.00     0.164 C 
HETATM   23  O   UNK N   1      21.342  20.564   0.613  0.00  0.00    -0.648 OA
BRANCH  22  24
HETATM   24  O   UNK N   1      21.562  21.529   2.601  0.00  0.00    -0.775 OA
HETATM   25  H   UNK N   1      21.871  21.924   3.393  0.00  0.00     0.167 HD
ENDBRANCH  22  24
ENDBRANCH  21  22
ENDBRANCH  20  21
ENDBRANCH  18  20
ENDBRANCH  13  14
ENDBRANCH   1  13
BRANCH   1  26
HETATM   26  S   UNK N   1      22.368  12.604   7.359  0.00  0.00     0.245 S 
HETATM   27  O   UNK N   1      20.856  12.406   7.174  0.00  0.00    -0.206 OA
HETATM   28  O   UNK N   1      22.961  11.504   6.460  0.00  0.00    -0.206 OA
BRANCH  26  29
HETATM   29  C   UNK N   1      22.873  12.390   9.067  0.00  0.00     0.090 A 
HETATM   30  C   UNK N   1      24.223  12.464   9.414  0.00  0.00     0.027 A 
HETATM   31  C   UNK N   1      24.610  12.235  10.735  0.00  0.00     0.018 A 
HETATM   32  C   UNK N   1      23.638  11.930  11.689  0.00  0.00     0.087 A 
HETATM   33  N   UNK N   1      22.326  11.859  11.332  0.00  0.00    -0.374 N 
HETATM   34  C   UNK N   1      21.930  12.077  10.049  0.00  0.00     0.112 A 
ATOM     35  HN  UNK N   1      21.627  11.638  12.041  1.00  0.00     0.164 HD
ENDBRANCH  26  29
ENDBRANCH   1  26
TORSDOF 11
ENDMDL
MODEL 4
REMARK VINA RESULT:      -7.2     13.219     16.767
REMARK  11 active torsions:
REMARK  status: ('A' for Active; 'I' for Inactive)
REMARK    1  A    between atoms: C_2  and  C_5 
REMARK    2  A    between atoms: C_8  and  C_11 
REMARK    3  A    between atoms: C_11  and  N_12 
REMARK    4  A    between atoms: N_12  and  C_13 
REMARK    5  A    between atoms: N_12  and  S_25 
REMARK    6  A    between atoms: C_13  and  C_14 
REMARK    7  A    between atoms: C_18  and  O_20 
REMARK    8  A    between atoms: O_20  and  C_21 
REMARK    9  A    between atoms: C_21  and  C_22 
REMARK   10  A    between atoms: C_22  and  O_24 
REMARK   11  A    between atoms: S_25  and  C_28 
ROOT
HETATM    1  N   UNK N   1      21.658  15.566   5.256  0.00  0.00    -0.198 NA
ENDROOT
BRANCH   1   2
HETATM    2  C   UNK N   1      23.076  15.266   5.097  0.00  0.00     0.146 C 
BRANCH   2   3
HETATM    3  C   UNK N   1      23.945  16.472   5.063  0.00  0.00    -0.044 A 
HETATM    4  C   UNK N   1      25.322  16.329   5.249  0.00  0.00     0.009 A 
HETATM    5  C   UNK N   1      26.166  17.432   5.106  0.00  0.00     0.008 A 
HETATM    6  C   UNK N   1      25.642  18.688   4.751  0.00  0.00    -0.051 A 
HETATM    7  C   UNK N   1      24.254  18.818   4.563  0.00  0.00     0.008 A 
HETATM    8  C   UNK N   1      23.411  17.714   4.716  0.00  0.00     0.009 A 
BRANCH   6   9
HETATM    9  C   UNK N   1      26.543  19.891   4.547  0.00  0.00    -0.024 C 
HETATM   10  C   UNK N   1      28.023  19.530   4.565  0.00  0.00     0.019 C 
HETATM   11  C   UNK N   1      26.300  20.913   5.643  0.00  0.00     0.019 C 
HETATM   12  C   UNK N   1      26.240  20.533   3.204  0.00  0.00     0.019 C 
ENDBRANCH   6   9
ENDBRANCH   2   3
ENDBRANCH   1   2
BRANCH   1  13
HETATM   13  C   UNK N   1      20.943  14.755   4.264  0.00  0.00     0.146 C 
BRANCH  13  14
HETATM   14  C   UNK N   1      20.502  15.531   3.055  0.00  0.00    -0.041 A 
HETATM   15  C   UNK N   1      20.426  14.903   1.806  0.00  0.00     0.008 A 
HETATM   16  C   UNK N   1      20.138  15.636   0.656  0.00  0.00     0.003 A 
HETATM   17  C   UNK N   1      19.955  17.012   0.741  0.00  0.00     0.037 A 
HETATM   18  C   UNK N   1      20.017  17.658   1.976  0.00  0.00     0.070 A 
HETATM   19  C   UNK N   1      20.286  16.917   3.144  0.00  0.00     0.045 A 
BRANCH  18  20
HETATM   20  O   UNK N   1      19.830  18.991   2.004  0.00  0.00    -0.341 OA
BRANCH  20  21
HETATM   21  C   UNK N   1      20.822  19.872   1.665  0.00  0.00     0.285 C 
BRANCH  21  22
HETATM   22  C   UNK N   1      21.069  20.747   2.854  0.00  0.00     0.164 C 
HETATM   23  O   UNK N   1      20.446  20.563   3.890  0.00  0.00    -0.648 OA
BRANCH  22  24
HETATM   24  O   UNK N   1      22.021  21.693   2.807  0.00  0.00    -0.775 OA
HETATM   25  H   UNK N   1      22.642  22.271   2.407  0.00  0.00     0.167 HD
ENDBRANCH  22  24
ENDBRANCH  21  22
ENDBRANCH  20  21
ENDBRANCH  18  20
ENDBRANCH  13  14
ENDBRANCH   1  13
BRANCH   1  26
HETATM   26  S   UNK N   1      21.300  15.003   6.916  0.00  0.00     0.245 S 
HETATM   27  O   UNK N   1      21.495  16.225   7.826  0.00  0.00    -0.206 OA
HETATM   28  O   UNK N   1      19.782  14.764   7.000  0.00  0.00    -0.206 OA
BRANCH  26  29
HETATM   29  C   UNK N   1      22.217  13.575   7.496  0.00  0.00     0.090 A 
HETATM   30  C   UNK N   1      23.261  13.735   8.408  0.00  0.00     0.027 A 
HETATM   31  C   UNK N   1      24.008  12.625   8.806  0.00  0.00     0.018 A 
HETATM   32  C   UNK N   1      23.700  11.369   8.278  0.00  0.00     0.087 A 
HETATM   33  N   UNK N   1      22.680  11.233   7.387  0.00  0.00    -0.374 N 
HETATM   34  C   UNK N   1      21.942  12.304   6.986  0.00  0.00     0.112 A 
ATOM     35  HN  UNK N   1      22.464  10.309   7.013  1.00  0.00     0.164 HD
ENDBRANCH  26  29
ENDBRANCH   1  26
TORSDOF 11
ENDMDL
MODEL 5
REMARK VINA RESULT:      -7.2     15.872     19.543
REMARK  11 active torsions:
REMARK  status: ('A' for Active; 'I' for Inactive)
REMARK    1  A    between atoms: C_2  and  C_5 
REMARK    2  A    between atoms: C_8  and  C_11 
REMARK    3  A    between atoms: C_11  and  N_12 
REMARK    4  A    between atoms: N_12  and  C_13 
REMARK    5  A    between atoms: N_12  and  S_25 
REMARK    6  A    between atoms: C_13  and  C_14 
REMARK    7  A    between atoms: C_18  and  O_20 
REMARK    8  A    between atoms: O_20  and  C_21 
REMARK    9  A    between atoms: C_21  and  C_22 
REMARK   10  A    between atoms: C_22  and  O_24 
REMARK   11  A    between atoms: S_25  and  C_28 
ROOT
HETATM    1  N   UNK N   1      23.474  13.635   7.290  0.00  0.00    -0.198 NA
ENDROOT
BRANCH   1   2
HETATM    2  C   UNK N   1      24.763  13.062   6.921  0.00  0.00     0.146 C 
BRANCH   2   3
HETATM    3  C   UNK N   1      25.753  14.065   6.447  0.00  0.00    -0.044 A 
HETATM    4  C   UNK N   1      25.957  15.231   7.191  0.00  0.00     0.009 A 
HETATM    5  C   UNK N   1      26.962  16.128   6.824  0.00  0.00     0.008 A 
HETATM    6  C   UNK N   1      27.791  15.857   5.721  0.00  0.00    -0.051 A 
HETATM    7  C   UNK N   1      27.577  14.679   4.982  0.00  0.00     0.008 A 
HETATM    8  C   UNK N   1      26.565  13.787   5.347  0.00  0.00     0.009 A 
BRANCH   6   9
HETATM    9  C   UNK N   1      28.917  16.794   5.330  0.00  0.00    -0.024 C 
HETATM   10  C   UNK N   1      29.556  16.426   3.997  0.00  0.00     0.019 C 
HETATM   11  C   UNK N   1      30.003  16.770   6.390  0.00  0.00     0.019 C 
HETATM   12  C   UNK N   1      28.382  18.211   5.209  0.00  0.00     0.019 C 
ENDBRANCH   6   9
ENDBRANCH   2   3
ENDBRANCH   1   2
BRANCH   1  13
HETATM   13  C   UNK N   1      22.799  13.992   6.038  0.00  0.00     0.146 C 
BRANCH  13  14
HETATM   14  C   UNK N   1      22.366  15.431   5.974  0.00  0.00    -0.041 A 
HETATM   15  C   UNK N   1      22.990  16.314   5.085  0.00  0.00     0.008 A 
HETATM   16  C   UNK N   1      22.686  17.673   5.101  0.00  0.00     0.003 A 
HETATM   17  C   UNK N   1      21.778  18.169   6.030  0.00  0.00     0.037 A 
HETATM   18  C   UNK N   1      21.137  17.306   6.920  0.00  0.00     0.070 A 
HETATM   19  C   UNK N   1      21.425  15.927   6.893  0.00  0.00     0.045 A 
BRANCH  18  20
HETATM   20  O   UNK N   1      20.264  17.835   7.798  0.00  0.00    -0.341 OA
BRANCH  20  21
HETATM   21  C   UNK N   1      19.802  17.131   8.878  0.00  0.00     0.285 C 
BRANCH  21  22
HETATM   22  C   UNK N   1      18.323  17.350   8.954  0.00  0.00     0.164 C 
HETATM   23  O   UNK N   1      17.569  16.690   8.254  0.00  0.00    -0.648 OA
BRANCH  22  24
HETATM   24  O   UNK N   1      17.817  18.225   9.840  0.00  0.00    -0.775 OA
HETATM   25  H   UNK N   1      17.334  18.974  10.130  0.00  0.00     0.167 HD
ENDBRANCH  22  24
ENDBRANCH  21  22
ENDBRANCH  20  21
ENDBRANCH  18  20
ENDBRANCH  13  14
ENDBRANCH   1  13
BRANCH   1  26
HETATM   26  S   UNK N   1      22.636  12.278   8.100  0.00  0.00     0.245 S 
HETATM   27  O   UNK N   1      21.163  12.379   7.677  0.00  0.00    -0.206 OA
HETATM   28  O   UNK N   1      23.093  10.980   7.409  0.00  0.00    -0.206 OA
BRANCH  26  29
HETATM   29  C   UNK N   1      22.821  12.167   9.881  0.00  0.00     0.090 A 
HETATM   30  C   UNK N   1      24.093  12.146  10.455  0.00  0.00     0.027 A 
HETATM   31  C   UNK N   1      24.226  11.997  11.836  0.00  0.00     0.018 A 
HETATM   32  C   UNK N   1      23.080  11.865  12.623  0.00  0.00     0.087 A 
HETATM   33  N   UNK N   1      21.848  11.885  12.046  0.00  0.00    -0.374 N 
HETATM   34  C   UNK N   1      21.698  12.027  10.700  0.00  0.00     0.112 A 
ATOM     35  HN  UNK N   1      21.020  11.791  12.633  1.00  0.00     0.164 HD
ENDBRANCH  26  29
ENDBRANCH   1  26
TORSDOF 11
ENDMDL
MODEL 6
REMARK VINA RESULT:      -7.1     12.731     16.889
REMARK  11 active torsions:
REMARK  status: ('A' for Active; 'I' for Inactive)
REMARK    1  A    between atoms: C_2  and  C_5 
REMARK    2  A    between atoms: C_8  and  C_11 
REMARK    3  A    between atoms: C_11  and  N_12 
REMARK    4  A    between atoms: N_12  and  C_13 
REMARK    5  A    between atoms: N_12  and  S_25 
REMARK    6  A    between atoms: C_13  and  C_14 
REMARK    7  A    between atoms: C_18  and  O_20 
REMARK    8  A    between atoms: O_20  and  C_21 
REMARK    9  A    between atoms: C_21  and  C_22 
REMARK   10  A    between atoms: C_22  and  O_24 
REMARK   11  A    between atoms: S_25  and  C_28 
ROOT
HETATM    1  N   UNK N   1      27.860  15.820   5.399  0.00  0.00    -0.198 NA
ENDROOT
BRANCH   1   2
HETATM    2  C   UNK N   1      27.540  14.417   5.164  0.00  0.00     0.146 C 
BRANCH   2   3
HETATM    3  C   UNK N   1      26.337  13.944   5.897  0.00  0.00    -0.044 A 
HETATM    4  C   UNK N   1      25.829  12.669   5.630  0.00  0.00     0.009 A 
HETATM    5  C   UNK N   1      24.772  12.164   6.389  0.00  0.00     0.008 A 
HETATM    6  C   UNK N   1      24.224  12.921   7.440  0.00  0.00    -0.051 A 
HETATM    7  C   UNK N   1      24.746  14.201   7.701  0.00  0.00     0.008 A 
HETATM    8  C   UNK N   1      25.799  14.707   6.934  0.00  0.00     0.009 A 
BRANCH   6   9
HETATM    9  C   UNK N   1      23.105  12.376   8.306  0.00  0.00    -0.024 C 
HETATM   10  C   UNK N   1      22.841  13.232   9.539  0.00  0.00     0.019 C 
HETATM   11  C   UNK N   1      23.449  10.975   8.777  0.00  0.00     0.019 C 
HETATM   12  C   UNK N   1      21.819  12.320   7.500  0.00  0.00     0.019 C 
ENDBRANCH   6   9
ENDBRANCH   2   3
ENDBRANCH   1   2
BRANCH   1  13
HETATM   13  C   UNK N   1      29.270  15.869   5.798  0.00  0.00     0.146 C 
BRANCH  13  14
HETATM   14  C   UNK N   1      29.534  16.763   6.978  0.00  0.00    -0.041 A 
HETATM   15  C   UNK N   1      28.494  17.518   7.534  0.00  0.00     0.008 A 
HETATM   16  C   UNK N   1      28.747  18.441   8.547  0.00  0.00     0.003 A 
HETATM   17  C   UNK N   1      30.050  18.642   8.990  0.00  0.00     0.037 A 
HETATM   18  C   UNK N   1      31.101  17.895   8.457  0.00  0.00     0.070 A 
HETATM   19  C   UNK N   1      30.846  16.944   7.448  0.00  0.00     0.045 A 
BRANCH  18  20
HETATM   20  O   UNK N   1      32.343  18.126   8.922  0.00  0.00    -0.341 OA
BRANCH  20  21
HETATM   21  C   UNK N   1      33.404  17.327   8.590  0.00  0.00     0.285 C 
BRANCH  21  22
HETATM   22  C   UNK N   1      34.363  18.163   7.801  0.00  0.00     0.164 C 
HETATM   23  O   UNK N   1      34.459  18.009   6.591  0.00  0.00    -0.648 OA
BRANCH  22  24
HETATM   24  O   UNK N   1      35.071  19.129   8.409  0.00  0.00    -0.775 OA
HETATM   25  H   UNK N   1      35.831  19.543   8.767  0.00  0.00     0.167 HD
ENDBRANCH  22  24
ENDBRANCH  21  22
ENDBRANCH  20  21
ENDBRANCH  18  20
ENDBRANCH  13  14
ENDBRANCH   1  13
BRANCH   1  26
HETATM   26  S   UNK N   1      27.626  16.572   3.793  0.00  0.00     0.245 S 
HETATM   27  O   UNK N   1      29.034  16.771   3.212  0.00  0.00    -0.206 OA
HETATM   28  O   UNK N   1      27.033  15.495   2.866  0.00  0.00    -0.206 OA
BRANCH  26  29
HETATM   29  C   UNK N   1      26.655  18.080   3.744  0.00  0.00     0.090 A 
HETATM   30  C   UNK N   1      27.275  19.319   3.904  0.00  0.00     0.027 A 
HETATM   31  C   UNK N   1      26.503  20.481   3.926  0.00  0.00     0.018 A 
HETATM   32  C   UNK N   1      25.116  20.382   3.792  0.00  0.00     0.087 A 
HETATM   33  N   UNK N   1      24.528  19.164   3.640  0.00  0.00    -0.374 N 
HETATM   34  C   UNK N   1      25.265  18.020   3.618  0.00  0.00     0.112 A 
ATOM     35  HN  UNK N   1      23.515  19.108   3.539  1.00  0.00     0.164 HD
ENDBRANCH  26  29
ENDBRANCH   1  26
TORSDOF 11
ENDMDL
MODEL 7
REMARK VINA RESULT:      -7.1     14.762     18.760
REMARK  11 active torsions:
REMARK  status: ('A' for Active; 'I' for Inactive)
REMARK    1  A    between atoms: C_2  and  C_5 
REMARK    2  A    between atoms: C_8  and  C_11 
REMARK    3  A    between atoms: C_11  and  N_12 
REMARK    4  A    between atoms: N_12  and  C_13 
REMARK    5  A    between atoms: N_12  and  S_25 
REMARK    6  A    between atoms: C_13  and  C_14 
REMARK    7  A    between atoms: C_18  and  O_20 
REMARK    8  A    between atoms: O_20  and  C_21 
REMARK    9  A    between atoms: C_21  and  C_22 
REMARK   10  A    between atoms: C_22  and  O_24 
REMARK   11  A    between atoms: S_25  and  C_28 
ROOT
HETATM    1  N   UNK N   1      22.022  14.388   6.765  0.00  0.00    -0.198 NA
ENDROOT
BRANCH   1   2
HETATM    2  C   UNK N   1      21.187  14.097   5.606  0.00  0.00     0.146 C 
BRANCH   2   3
HETATM    3  C   UNK N   1      21.950  13.621   4.421  0.00  0.00    -0.044 A 
HETATM    4  C   UNK N   1      22.700  12.446   4.516  0.00  0.00     0.009 A 
HETATM    5  C   UNK N   1      23.328  11.923   3.384  0.00  0.00     0.008 A 
HETATM    6  C   UNK N   1      23.192  12.559   2.136  0.00  0.00    -0.051 A 
HETATM    7  C   UNK N   1      22.431  13.740   2.054  0.00  0.00     0.008 A 
HETATM    8  C   UNK N   1      21.812  14.265   3.191  0.00  0.00     0.009 A 
BRANCH   6   9
HETATM    9  C   UNK N   1      23.828  11.987   0.885  0.00  0.00    -0.024 C 
HETATM   10  C   UNK N   1      23.301  10.601   0.535  0.00  0.00     0.019 C 
HETATM   11  C   UNK N   1      25.331  11.881   1.069  0.00  0.00     0.019 C 
HETATM   12  C   UNK N   1      23.542  12.900  -0.296  0.00  0.00     0.019 C 
ENDBRANCH   6   9
ENDBRANCH   2   3
ENDBRANCH   1   2
BRANCH   1  13
HETATM   13  C   UNK N   1      21.810  15.802   7.091  0.00  0.00     0.146 C 
BRANCH  13  14
HETATM   14  C   UNK N   1      22.245  16.744   6.004  0.00  0.00    -0.041 A 
HETATM   15  C   UNK N   1      23.563  16.713   5.531  0.00  0.00     0.008 A 
HETATM   16  C   UNK N   1      24.013  17.659   4.613  0.00  0.00     0.003 A 
HETATM   17  C   UNK N   1      23.158  18.668   4.183  0.00  0.00     0.037 A 
HETATM   18  C   UNK N   1      21.838  18.714   4.633  0.00  0.00     0.070 A 
HETATM   19  C   UNK N   1      21.372  17.746   5.545  0.00  0.00     0.045 A 
BRANCH  18  20
HETATM   20  O   UNK N   1      21.050  19.709   4.185  0.00  0.00    -0.341 OA
BRANCH  20  21
HETATM   21  C   UNK N   1      20.509  19.698   2.926  0.00  0.00     0.285 C 
BRANCH  21  22
HETATM   22  C   UNK N   1      21.071  20.873   2.189  0.00  0.00     0.164 C 
HETATM   23  O   UNK N   1      20.762  21.069   1.021  0.00  0.00    -0.648 OA
BRANCH  22  24
HETATM   24  O   UNK N   1      21.861  21.753   2.827  0.00  0.00    -0.775 OA
HETATM   25  H   UNK N   1      22.642  22.243   2.996  0.00  0.00     0.167 HD
ENDBRANCH  22  24
ENDBRANCH  21  22
ENDBRANCH  20  21
ENDBRANCH  18  20
ENDBRANCH  13  14
ENDBRANCH   1  13
BRANCH   1  26
HETATM   26  S   UNK N   1      21.342  13.332   8.039  0.00  0.00     0.245 S 
HETATM   27  O   UNK N   1      20.095  14.057   8.566  0.00  0.00    -0.206 OA
HETATM   28  O   UNK N   1      20.741  12.100   7.339  0.00  0.00    -0.206 OA
BRANCH  26  29
HETATM   29  C   UNK N   1      22.454  12.850   9.362  0.00  0.00     0.090 A 
HETATM   30  C   UNK N   1      23.829  13.048   9.232  0.00  0.00     0.027 A 
HETATM   31  C   UNK N   1      24.689  12.613  10.240  0.00  0.00     0.018 A 
HETATM   32  C   UNK N   1      24.158  11.979  11.365  0.00  0.00     0.087 A 
HETATM   33  N   UNK N   1      22.814  11.791  11.475  0.00  0.00    -0.374 N 
HETATM   34  C   UNK N   1      21.960  12.207  10.500  0.00  0.00     0.112 A 
ATOM     35  HN  UNK N   1      22.440  11.330  12.303  1.00  0.00     0.164 HD
ENDBRANCH  26  29
ENDBRANCH   1  26
TORSDOF 11
ENDMDL
MODEL 8
REMARK VINA RESULT:      -7.1      1.364      2.012
REMARK  11 active torsions:
REMARK  status: ('A' for Active; 'I' for Inactive)
REMARK    1  A    between atoms: C_2  and  C_5 
REMARK    2  A    between atoms: C_8  and  C_11 
REMARK    3  A    between atoms: C_11  and  N_12 
REMARK    4  A    between atoms: N_12  and  C_13 
REMARK    5  A    between atoms: N_12  and  S_25 
REMARK    6  A    between atoms: C_13  and  C_14 
REMARK    7  A    between atoms: C_18  and  O_20 
REMARK    8  A    between atoms: O_20  and  C_21 
REMARK    9  A    between atoms: C_21  and  C_22 
REMARK   10  A    between atoms: C_22  and  O_24 
REMARK   11  A    between atoms: S_25  and  C_28 
ROOT
HETATM    1  N   UNK N   1      26.721  24.364  -8.186  0.00  0.00    -0.198 NA
ENDROOT
BRANCH   1   2
HETATM    2  C   UNK N   1      25.619  25.229  -7.783  0.00  0.00     0.146 C 
BRANCH   2   3
HETATM    3  C   UNK N   1      26.047  26.433  -7.023  0.00  0.00    -0.044 A 
HETATM    4  C   UNK N   1      25.370  26.781  -5.851  0.00  0.00     0.009 A 
HETATM    5  C   UNK N   1      25.829  27.840  -5.065  0.00  0.00     0.008 A 
HETATM    6  C   UNK N   1      26.988  28.548  -5.431  0.00  0.00    -0.051 A 
HETATM    7  C   UNK N   1      27.663  28.185  -6.611  0.00  0.00     0.008 A 
HETATM    8  C   UNK N   1      27.195  27.132  -7.400  0.00  0.00     0.009 A 
BRANCH   6   9
HETATM    9  C   UNK N   1      27.531  29.672  -4.570  0.00  0.00    -0.024 C 
HETATM   10  C   UNK N   1      28.558  29.193  -3.552  0.00  0.00     0.019 C 
HETATM   11  C   UNK N   1      26.398  30.337  -3.811  0.00  0.00     0.019 C 
HETATM   12  C   UNK N   1      28.205  30.709  -5.452  0.00  0.00     0.019 C 
ENDBRANCH   6   9
ENDBRANCH   2   3
ENDBRANCH   1   2
BRANCH   1  13
HETATM   13  C   UNK N   1      26.551  23.101  -7.461  0.00  0.00     0.146 C 
BRANCH  13  14
HETATM   14  C   UNK N   1      27.846  22.481  -7.016  0.00  0.00    -0.041 A 
HETATM   15  C   UNK N   1      28.244  21.240  -7.530  0.00  0.00     0.008 A 
HETATM   16  C   UNK N   1      29.378  20.597  -7.038  0.00  0.00     0.003 A 
HETATM   17  C   UNK N   1      30.107  21.173  -6.003  0.00  0.00     0.037 A 
HETATM   18  C   UNK N   1      29.735  22.412  -5.482  0.00  0.00     0.070 A 
HETATM   19  C   UNK N   1      28.601  23.077  -5.992  0.00  0.00     0.045 A 
BRANCH  18  20
HETATM   20  O   UNK N   1      30.475  22.928  -4.483  0.00  0.00    -0.341 OA
BRANCH  20  21
HETATM   21  C   UNK N   1      30.000  23.914  -3.659  0.00  0.00     0.285 C 
BRANCH  21  22
HETATM   22  C   UNK N   1      29.634  23.271  -2.359  0.00  0.00     0.164 C 
HETATM   23  O   UNK N   1      28.464  23.019  -2.107  0.00  0.00    -0.648 OA
BRANCH  22  24
HETATM   24  O   UNK N   1      30.595  22.909  -1.493  0.00  0.00    -0.775 OA
HETATM   25  H   UNK N   1      30.953  22.587  -0.689  0.00  0.00     0.167 HD
ENDBRANCH  22  24
ENDBRANCH  21  22
ENDBRANCH  20  21
ENDBRANCH  18  20
ENDBRANCH  13  14
ENDBRANCH   1  13
BRANCH   1  26
HETATM   26  S   UNK N   1      26.445  24.134  -9.938  0.00  0.00     0.245 S 
HETATM   27  O   UNK N   1      27.767  23.596 -10.506  0.00  0.00    -0.206 OA
HETATM   28  O   UNK N   1      25.499  22.930 -10.098  0.00  0.00    -0.206 OA
BRANCH  26  29
HETATM   29  C   UNK N   1      25.846  25.557 -10.852  0.00  0.00     0.090 A 
HETATM   30  C   UNK N   1      24.476  25.795 -10.961  0.00  0.00     0.027 A 
HETATM   31  C   UNK N   1      24.020  26.870 -11.726  0.00  0.00     0.018 A 
HETATM   32  C   UNK N   1      24.946  27.688 -12.376  0.00  0.00     0.087 A 
HETATM   33  N   UNK N   1      26.279  27.439 -12.261  0.00  0.00    -0.374 N 
HETATM   34  C   UNK N   1      26.743  26.394 -11.521  0.00  0.00     0.112 A 
ATOM     35  HN  UNK N   1      26.944  28.047 -12.738  1.00  0.00     0.164 HD
ENDBRANCH  26  29
ENDBRANCH   1  26
TORSDOF 11
ENDMDL
MODEL 9
REMARK VINA RESULT:      -7.1     13.632     16.904
REMARK  11 active torsions:
REMARK  status: ('A' for Active; 'I' for Inactive)
REMARK    1  A    between atoms: C_2  and  C_5 
REMARK    2  A    between atoms: C_8  and  C_11 
REMARK    3  A    between atoms: C_11  and  N_12 
REMARK    4  A    between atoms: N_12  and  C_13 
REMARK    5  A    between atoms: N_12  and  S_25 
REMARK    6  A    between atoms: C_13  and  C_14 
REMARK    7  A    between atoms: C_18  and  O_20 
REMARK    8  A    between atoms: O_20  and  C_21 
REMARK    9  A    between atoms: C_21  and  C_22 
REMARK   10  A    between atoms: C_22  and  O_24 
REMARK   11  A    between atoms: S_25  and  C_28 
ROOT
HETATM    1  N   UNK N   1      26.718  17.121   5.385  0.00  0.00    -0.198 NA
ENDROOT
BRANCH   1   2
HETATM    2  C   UNK N   1      26.880  15.708   5.061  0.00  0.00     0.146 C 
BRANCH   2   3
HETATM    3  C   UNK N   1      26.015  14.805   5.865  0.00  0.00    -0.044 A 
HETATM    4  C   UNK N   1      25.993  14.936   7.256  0.00  0.00     0.009 A 
HETATM    5  C   UNK N   1      25.104  14.176   8.017  0.00  0.00     0.008 A 
HETATM    6  C   UNK N   1      24.208  13.290   7.392  0.00  0.00    -0.051 A 
HETATM    7  C   UNK N   1      24.238  13.169   5.991  0.00  0.00     0.008 A 
HETATM    8  C   UNK N   1      25.135  13.925   5.233  0.00  0.00     0.009 A 
BRANCH   6   9
HETATM    9  C   UNK N   1      23.203  12.487   8.193  0.00  0.00    -0.024 C 
HETATM   10  C   UNK N   1      21.827  12.440   7.540  0.00  0.00     0.019 C 
HETATM   11  C   UNK N   1      23.041  13.090   9.577  0.00  0.00     0.019 C 
HETATM   12  C   UNK N   1      23.693  11.056   8.338  0.00  0.00     0.019 C 
ENDBRANCH   6   9
ENDBRANCH   2   3
ENDBRANCH   1   2
BRANCH   1  13
HETATM   13  C   UNK N   1      28.046  17.733   5.271  0.00  0.00     0.146 C 
BRANCH  13  14
HETATM   14  C   UNK N   1      28.850  17.671   6.539  0.00  0.00    -0.041 A 
HETATM   15  C   UNK N   1      28.284  18.085   7.751  0.00  0.00     0.008 A 
HETATM   16  C   UNK N   1      29.054  18.149   8.911  0.00  0.00     0.003 A 
HETATM   17  C   UNK N   1      30.407  17.832   8.862  0.00  0.00     0.037 A 
HETATM   18  C   UNK N   1      30.990  17.409   7.668  0.00  0.00     0.070 A 
HETATM   19  C   UNK N   1      30.210  17.321   6.497  0.00  0.00     0.045 A 
BRANCH  18  20
HETATM   20  O   UNK N   1      32.303  17.111   7.674  0.00  0.00    -0.341 OA
BRANCH  20  21
HETATM   21  C   UNK N   1      33.167  17.647   8.592  0.00  0.00     0.285 C 
BRANCH  21  22
HETATM   22  C   UNK N   1      34.319  18.229   7.835  0.00  0.00     0.164 C 
HETATM   23  O   UNK N   1      34.442  18.005   6.639  0.00  0.00    -0.648 OA
BRANCH  22  24
HETATM   24  O   UNK N   1      35.182  19.052   8.452  0.00  0.00    -0.775 OA
HETATM   25  H   UNK N   1      36.013  19.440   8.646  0.00  0.00     0.167 HD
ENDBRANCH  22  24
ENDBRANCH  21  22
ENDBRANCH  20  21
ENDBRANCH  18  20
ENDBRANCH  13  14
ENDBRANCH   1  13
BRANCH   1  26
HETATM   26  S   UNK N   1      25.629  17.717   4.097  0.00  0.00     0.245 S 
HETATM   27  O   UNK N   1      26.268  19.011   3.571  0.00  0.00    -0.206 OA
HETATM   28  O   UNK N   1      25.774  16.763   2.897  0.00  0.00    -0.206 OA
BRANCH  26  29
HETATM   29  C   UNK N   1      23.906  17.946   4.542  0.00  0.00     0.090 A 
HETATM   30  C   UNK N   1      23.316  17.130   5.508  0.00  0.00     0.027 A 
HETATM   31  C   UNK N   1      21.960  17.275   5.802  0.00  0.00     0.018 A 
HETATM   32  C   UNK N   1      21.212  18.236   5.118  0.00  0.00     0.087 A 
HETATM   33  N   UNK N   1      21.803  19.021   4.176  0.00  0.00    -0.374 N 
HETATM   34  C   UNK N   1      23.124  18.892   3.875  0.00  0.00     0.112 A 
ATOM     35  HN  UNK N   1      21.245  19.720   3.687  1.00  0.00     0.164 HD
ENDBRANCH  26  29
ENDBRANCH   1  26
TORSDOF 11
ENDMDL
