REMARK  3 active torsions:
REMARK  status: ('A' for Active; 'I' for Inactive)
REMARK    1  A    between atoms: C_5  and  C_37 
REMARK    2  A    between atoms: C_13  and  C_27 
REMARK    3  A    between atoms: C_27  and  C_28 
ROOT
HETATM    1  C   UNK N   1       5.485  -0.306   2.303  0.00  0.00     0.042 C 
HETATM    2  C   UNK N   1       6.272  -0.760   1.081  0.00  0.00     0.142 C 
HETATM    3  C   UNK N   1       6.685   0.406   0.189  0.00  0.00     0.146 C 
HETATM    4  N   UNK N   1       7.719  -0.006  -0.765  0.00  0.00    -0.406 N 
HETATM    5  C   UNK N   1       8.882   0.906  -0.820  0.00  0.00     0.173 C 
HETATM    6  C   UNK N   1      10.132   0.289  -0.218  0.00  0.00     0.243 C 
HETATM    7  O   UNK N   1      10.131  -0.004   0.974  0.00  0.00    -0.271 OA
HETATM    8  N   UNK N   1      11.249   0.056  -0.986  0.00  0.00    -0.342 N 
HETATM    9  C   UNK N   1      12.447  -0.580  -0.415  0.00  0.00     0.174 C 
HETATM   10  C   UNK N   1      12.146  -1.965   0.119  0.00  0.00     0.241 C 
HETATM   11  O   UNK N   1      12.994  -2.586   0.740  0.00  0.00    -0.271 OA
HETATM   12  N   UNK N   1      10.893  -2.454  -0.023  0.00  0.00    -0.346 N 
HETATM   13  C   UNK N   1      10.345  -3.630   0.607  0.00  0.00     0.180 C 
HETATM   14  C   UNK N   1       8.851  -3.594   0.378  0.00  0.00     0.240 C 
HETATM   15  O   UNK N   1       8.384  -2.833  -0.461  0.00  0.00    -0.271 OA
HETATM   16  N   UNK N   1       8.027  -4.365   1.135  0.00  0.00    -0.359 N 
HETATM   17  C   UNK N   1       6.581  -4.320   1.037  0.00  0.00     0.123 C 
HETATM   18  C   UNK N   1       6.116  -4.441  -0.410  0.00  0.00     0.024 C 
HETATM   19  C   UNK N   1       4.600  -4.456  -0.531  0.00  0.00     0.043 C 
HETATM   20  C   UNK N   1       3.830  -3.155  -0.441  0.00  0.00    -0.025 A 
HETATM   21  C   UNK N   1       2.480  -3.229  -0.805  0.00  0.00     0.010 A 
HETATM   22  C   UNK N   1       1.654  -2.109  -0.747  0.00  0.00     0.001 A 
HETATM   23  C   UNK N   1       2.168  -0.888  -0.318  0.00  0.00     0.003 A 
HETATM   24  C   UNK N   1       3.510  -0.787   0.057  0.00  0.00     0.037 A 
HETATM   25  C   UNK N   1       4.360  -1.908   0.005  0.00  0.00     0.075 A 
HETATM   26  O   UNK N   1       5.658  -1.814   0.411  0.00  0.00    -0.344 OA
HETATM   27  C   UNK N   1      13.623  -0.642  -1.390  0.00  0.00     0.042 C 
HETATM   28  C   UNK N   1      11.238   0.461  -2.380  0.00  0.00     0.153 C 
HETATM   29  H   UNK N   1       7.643  -0.846  -1.339  0.00  0.00     0.154 HD
HETATM   30  H   UNK N   1      10.291  -1.953  -0.620  0.00  0.00     0.163 HD
HETATM   31  H   UNK N   1       8.432  -4.986   1.783  0.00  0.00     0.162 HD
ENDROOT
BRANCH  13  32
HETATM   32  C   UNK N   1      11.078  -4.888   0.105  0.00  0.00     0.073 C 
BRANCH  32  33
HETATM   33  C   UNK N   1      10.347  -6.195   0.163  0.00  0.00    -0.056 A 
HETATM   34  C   UNK N   1      10.866  -7.269   0.899  0.00  0.00     0.010 A 
HETATM   35  C   UNK N   1      10.236  -8.520   0.847  0.00  0.00     0.043 A 
HETATM   36  C   UNK N   1       9.093  -8.697   0.059  0.00  0.00     0.116 A 
HETATM   37  C   UNK N   1       8.576  -7.627  -0.671  0.00  0.00     0.043 A 
HETATM   38  F   UNK N   1       8.496  -9.910  -0.017  0.00  0.00    -0.206 F 
HETATM   39  C   UNK N   1       9.210  -6.387  -0.630  0.00  0.00     0.010 A 
ENDBRANCH  32  33
ENDBRANCH  13  32
BRANCH   5  40
HETATM   40  C   UNK N   1       8.576   2.386  -0.481  0.00  0.00     0.017 A 
HETATM   41  C   UNK N   1       8.987   2.776   0.925  0.00  0.00     0.007 A 
HETATM   42  C   UNK N   1       9.841   3.195  -0.263  0.00  0.00     0.007 A 
ENDBRANCH   5  40
TORSDOF 3
