REMARK  2 active torsions:
REMARK  status: ('A' for Active; 'I' for Inactive)
REMARK    1  A    between atoms: C_9  and  C_13 
REMARK    2  A    between atoms: O_21  and  C_14 
ROOT
HETATM    1  C   UNK N   1       5.688   1.399   0.096  0.00  0.00     0.026 A 
HETATM    2  C   UNK N   1       4.672   2.373   0.005  0.00  0.00     0.040 A 
HETATM    3  C   UNK N   1       4.025  -0.400   0.100  0.00  0.00     0.040 A 
HETATM    4  C   UNK N   1       5.366   0.020   0.141  0.00  0.00     0.035 A 
HETATM    5  C   UNK N   1       3.049   0.584   0.012  0.00  0.00     0.029 A 
HETATM    6  C   UNK N   1       3.355   1.926  -0.037  0.00  0.00     0.089 A 
HETATM    7  C   UNK N   1       1.690   0.517  -0.028  0.00  0.00     0.085 A 
HETATM    8  C   UNK N   1       1.231   1.798  -0.100  0.00  0.00     0.154 A 
HETATM    9  C   UNK N   1      -0.485  -0.332  -0.015  0.00  0.00     0.106 A 
HETATM   10  C   UNK N   1      -0.134   2.034  -0.130  0.00  0.00     0.178 A 
HETATM   11 Cl   UNK N   1       6.640  -1.174   0.252  0.00  0.00    -0.084 Cl
HETATM   12  N   UNK N   1       0.865  -0.551   0.021  0.00  0.00    -0.341 N 
ATOM     13  HN  UNK N   1       1.240  -1.497   0.084  1.00  0.00     0.167 HD
HETATM   14  N   UNK N   1      -0.975   0.955  -0.073  0.00  0.00    -0.323 N 
ATOM     15  HN  UNK N   1      -1.983   1.107  -0.074  1.00  0.00     0.169 HD
HETATM   16  O   UNK N   1       2.245   2.645  -0.108  0.00  0.00    -0.303 OA
ENDROOT
BRANCH   9  17
HETATM   17  C   UNK N   1      -1.421  -1.487   0.191  0.00  0.00     0.144 C 
HETATM   18  C   UNK N   1      -0.876  -2.785  -0.354  0.00  0.00     0.034 C 
HETATM   19  C   UNK N   1      -2.114  -3.636  -0.480  0.00  0.00     0.022 C 
HETATM   20  C   UNK N   1      -3.255  -2.636  -0.603  0.00  0.00     0.114 C 
HETATM   21  N   UNK N   1      -2.696  -1.291  -0.480  0.00  0.00    -0.411 N 
HETATM   22  H   UNK N   1      -3.107  -0.412  -0.794  0.00  0.00     0.154 HD
ENDBRANCH   9  17
BRANCH  10  23
HETATM   23  O   UNK N   1      -0.623   3.284  -0.190  0.00  0.00    -0.344 OA
HETATM   24  H   UNK N   1      -0.039   4.015  -0.231  0.00  0.00     0.219 HD
ENDBRANCH  10  23
TORSDOF 2
