REMARK  5 active torsions:
REMARK  status: ('A' for Active; 'I' for Inactive)
REMARK    1  A    between atoms: C_4  and  C_8 
REMARK    2  A    between atoms: C_4  and  C_12 
REMARK    3  A    between atoms: C_8  and  C_9 
REMARK    4  A    between atoms: C_9  and  O_11 
REMARK    5  A    between atoms: C_12  and  N_13 
ROOT
HETATM    1  C   UNK N   1      -1.495  -2.140  -0.551  0.00  0.00     0.010 C 
HETATM    2  C   UNK N   1      -0.265  -1.254  -0.559  0.00  0.00    -0.014 C 
HETATM    3  C   UNK N   1      -0.622   0.201  -0.331  0.00  0.00     0.016 C 
HETATM    4  C   UNK N   1       0.666   0.796   0.211  0.00  0.00    -0.015 C 
HETATM    5  C   UNK N   1       1.178  -0.292   1.143  0.00  0.00     0.016 C 
HETATM    6  C   UNK N   1       0.670  -1.614   0.582  0.00  0.00    -0.014 C 
HETATM    7  C   UNK N   1       1.823  -2.449   0.060  0.00  0.00     0.010 C 
ENDROOT
BRANCH   4   8
HETATM    8  C   UNK N   1       0.393   2.073   1.019  0.00  0.00     0.121 C 
BRANCH   8   9
HETATM    9  C   UNK N   1       0.100   3.283   0.184  0.00  0.00     0.140 C 
HETATM   10  O   UNK N   1      -1.052   3.653   0.022  0.00  0.00    -0.650 OA
BRANCH   9  11
HETATM   11  O   UNK N   1       1.113   4.002  -0.335  0.00  0.00    -0.776 OA
HETATM   12  H   UNK N   1       1.899   3.641  -0.695  0.00  0.00     0.167 HD
ENDBRANCH   9  11
ENDBRANCH   8   9
ENDBRANCH   4   8
BRANCH   4  13
HETATM   13  C   UNK N   1       1.664   1.018  -0.938  0.00  0.00     0.121 C 
BRANCH  13  14
HETATM   14  N   UNK N   1       2.946   1.493  -0.439  0.00  0.00    -0.429 N 
HETATM   15  H   UNK N   1       3.683   0.881  -0.090  0.00  0.00     0.149 HD
HETATM   16  H   UNK N   1       3.117   2.499  -0.439  0.00  0.00     0.149 HD
ENDBRANCH  13  14
ENDBRANCH   4  13
TORSDOF 5
