REMARK  11 active torsions:
REMARK  status: ('A' for Active; 'I' for Inactive)
REMARK    1  A    between atoms: C_12  and  C_9 
REMARK    2  A    between atoms: C_13  and  C_9 
REMARK    3  A    between atoms: C_14  and  C_10 
REMARK    4  A    between atoms: C_15  and  C_10 
REMARK    5  A    between atoms: C_16  and  C_11 
REMARK    6  A    between atoms: C_17  and  C_11 
REMARK    7  A    between atoms: C_23  and  C_13 
REMARK    8  A    between atoms: C_24  and  C_15 
REMARK    9  A    between atoms: C_25  and  C_17 
REMARK   10  A    between atoms: C_21  and  C_20 
REMARK   11  A    between atoms: C_27  and  C_21 
ROOT
HETATM    1  C   UNK N   1       7.126   1.288  -0.765  0.00  0.00     0.043 C 
HETATM    2  C   UNK N   1       4.975   2.253   0.027  0.00  0.00    -0.020 C 
HETATM    3  C   UNK N   1       6.316   2.301  -0.011  0.00  0.00    -0.087 C 
ENDROOT
BRANCH   3   4
HETATM    4  C   UNK N   1       7.005   3.488   0.537  0.00  0.00     0.037 C 
BRANCH   4   5
HETATM    5  C   UNK N   1       6.786   4.538  -0.539  0.00  0.00     0.031 C 
BRANCH   5   6
HETATM    6  C   UNK N   1       6.463   5.866   0.037  0.00  0.00    -0.024 C 
HETATM    7  C   UNK N   1       7.431   6.675   0.481  0.00  0.00    -0.087 C 
HETATM    8  C   UNK N   1       8.867   6.251   0.443  0.00  0.00     0.043 C 
BRANCH   7   9
HETATM    9  C   UNK N   1       7.093   8.029   1.004  0.00  0.00     0.037 C 
BRANCH   9  10
HETATM   10  C   UNK N   1       6.675   8.934  -0.147  0.00  0.00     0.031 C 
BRANCH  10  11
HETATM   11  C   UNK N   1       7.420  10.234  -0.079  0.00  0.00    -0.024 C 
HETATM   12  C   UNK N   1       8.762  10.310  -0.240  0.00  0.00    -0.087 C 
HETATM   13  C   UNK N   1       9.576   9.089  -0.514  0.00  0.00     0.043 C 
BRANCH  12  14
HETATM   14  C   UNK N   1       9.527  11.601  -0.166  0.00  0.00     0.037 C 
BRANCH  14  15
HETATM   15  C   UNK N   1       8.725  12.869   0.086  0.00  0.00     0.031 C 
BRANCH  15  16
HETATM   16  C   UNK N   1       9.528  14.152   0.067  0.00  0.00    -0.024 C 
HETATM   17  C   UNK N   1      10.865  14.317   0.024  0.00  0.00    -0.091 C 
HETATM   18  C   UNK N   1      11.405  15.703   0.011  0.00  0.00     0.042 C 
HETATM   19  C   UNK N   1      11.845  13.188   0.003  0.00  0.00     0.042 C 
ENDBRANCH  15  16
ENDBRANCH  14  15
ENDBRANCH  12  14
ENDBRANCH  10  11
ENDBRANCH   9  10
ENDBRANCH   7   9
ENDBRANCH   5   6
ENDBRANCH   4   5
ENDBRANCH   3   4
BRANCH   2  20
HETATM   20  C   UNK N   1       4.271   1.240  -0.801  0.00  0.00     0.070 C 
BRANCH  20  21
HETATM   21  C   UNK N   1       2.939   0.730  -0.349  0.00  0.00     0.006 A 
HETATM   22  C   UNK N   1       2.799  -0.596  -0.152  0.00  0.00    -0.001 A 
HETATM   23  C   UNK N   1       3.980  -1.519  -0.278  0.00  0.00     0.053 C 
HETATM   24  C   UNK N   1       1.469  -1.184   0.134  0.00  0.00     0.189 A 
HETATM   25  C   UNK N   1       0.272  -0.316   0.148  0.00  0.00     0.029 A 
HETATM   26  O   UNK N   1       1.359  -2.387   0.297  0.00  0.00    -0.287 OA
HETATM   27  C   UNK N   1      -1.003  -0.875   0.313  0.00  0.00     0.016 A 
HETATM   28  C   UNK N   1       0.412   1.070  -0.029  0.00  0.00     0.029 A 
HETATM   29  C   UNK N   1      -2.134  -0.056   0.302  0.00  0.00     0.001 A 
HETATM   30  C   UNK N   1      -1.997   1.324   0.136  0.00  0.00     0.001 A 
HETATM   31  C   UNK N   1      -0.728   1.889  -0.029  0.00  0.00     0.016 A 
HETATM   32  C   UNK N   1       1.761   1.647  -0.251  0.00  0.00     0.190 A 
HETATM   33  O   UNK N   1       1.898   2.850  -0.398  0.00  0.00    -0.287 OA
ENDBRANCH  20  21
ENDBRANCH   2  20
TORSDOF 11
