MODEL 1
REMARK VINA RESULT:      -6.9      0.000      0.000
REMARK  5 active torsions:
REMARK  status: ('A' for Active; 'I' for Inactive)
REMARK    1  A    between atoms: N_6  and  C_10 
REMARK    2  A    between atoms: C_10  and  C_11 
REMARK    3  A    between atoms: C_11  and  C_12 
REMARK    4  A    between atoms: C_12  and  C_13 
REMARK    5  A    between atoms: C_13  and  N_14 
REMARK       I    between atoms: N_17  and  C_20 
ROOT
HETATM    1  N   UNK N   1      36.229  14.935   9.645  0.00  0.00     0.091 N 
HETATM    2  C   UNK N   1      35.482  15.849  10.513  0.00  0.00     0.292 C 
HETATM    3  C   UNK N   1      34.722  16.872   9.663  0.00  0.00     0.171 C 
HETATM    4  N   UNK N   1      33.958  16.191   8.635  0.00  0.00    -0.214 N 
HETATM    5  C   UNK N   1      34.591  15.134   7.880  0.00  0.00     0.171 C 
HETATM    6  C   UNK N   1      35.253  14.176   8.858  0.00  0.00     0.292 C 
HETATM    7  C   UNK N   1      32.640  16.610   8.305  0.00  0.00     0.679 A 
HETATM    8  N   UNK N   1      32.033  17.602   9.015  0.00  0.00    -0.202 N 
ATOM      9  HN  UNK N   1      32.518  18.023   9.807  1.00  0.00     0.183 HD
HETATM   10  C   UNK N   1      30.789  18.037   8.682  0.00  0.00     0.107 A 
HETATM   11  C   UNK N   1      30.121  17.476   7.596  0.00  0.00     0.035 A 
HETATM   12  C   UNK N   1      30.753  16.463   6.879  0.00  0.00     0.107 A 
HETATM   13  N   UNK N   1      31.993  16.049   7.244  0.00  0.00    -0.202 N 
ATOM     14  HN  UNK N   1      32.448  15.304   6.715  1.00  0.00     0.183 HD
ENDROOT
BRANCH   1  15
HETATM   15  C   UNK N   1      37.034  14.074  10.514  0.00  0.00     0.272 C 
BRANCH  15  16
HETATM   16  C   UNK N   1      36.749  12.578  10.371  0.00  0.00     0.032 C 
BRANCH  16  17
HETATM   17  C   UNK N   1      36.496  11.851  11.685  0.00  0.00     0.022 C 
BRANCH  17  18
HETATM   18  C   UNK N   1      35.253  12.503  12.274  0.00  0.00     0.135 C 
BRANCH  18  19
HETATM   19  N   UNK N   1      35.081  12.317  13.711  0.00  0.00    -0.288 N 
HETATM   20  C   UNK N   1      34.396  11.234  14.218  0.00  0.00     0.227 C 
HETATM   21  C   UNK N   1      34.247  11.037  15.701  0.00  0.00     0.112 C 
HETATM   22  O   UNK N   1      33.897  10.402  13.475  0.00  0.00    -0.273 OA
HETATM   23  C   UNK N   1      35.471  11.557  16.435  0.00  0.00    -0.031 C 
HETATM   24  C   UNK N   1      35.240  11.454  17.927  0.00  0.00     0.016 C 
HETATM   25  C   UNK N   1      35.667  13.021  16.054  0.00  0.00     0.112 C 
HETATM   26  C   UNK N   1      36.701  10.728  16.081  0.00  0.00     0.016 C 
HETATM   27  C   UNK N   1      35.694  13.210  14.557  0.00  0.00     0.227 C 
HETATM   28  O   UNK N   1      36.314  14.163  14.104  0.00  0.00    -0.273 OA
ENDBRANCH  18  19
ENDBRANCH  17  18
ENDBRANCH  16  17
ENDBRANCH  15  16
ENDBRANCH   1  15
TORSDOF 5
ENDMDL
MODEL 2
REMARK VINA RESULT:      -6.9      2.554      9.232
REMARK  5 active torsions:
REMARK  status: ('A' for Active; 'I' for Inactive)
REMARK    1  A    between atoms: N_6  and  C_10 
REMARK    2  A    between atoms: C_10  and  C_11 
REMARK    3  A    between atoms: C_11  and  C_12 
REMARK    4  A    between atoms: C_12  and  C_13 
REMARK    5  A    between atoms: C_13  and  N_14 
REMARK       I    between atoms: N_17  and  C_20 
ROOT
HETATM    1  N   UNK N   1      36.082  12.874  13.364  0.00  0.00     0.091 N 
HETATM    2  C   UNK N   1      35.668  13.773  14.444  0.00  0.00     0.292 C 
HETATM    3  C   UNK N   1      34.931  12.981  15.528  0.00  0.00     0.171 C 
HETATM    4  N   UNK N   1      35.715  11.824  15.918  0.00  0.00    -0.214 N 
HETATM    5  C   UNK N   1      36.319  11.012  14.885  0.00  0.00     0.171 C 
HETATM    6  C   UNK N   1      37.055  11.930  13.922  0.00  0.00     0.292 C 
HETATM    7  C   UNK N   1      35.818  11.435  17.281  0.00  0.00     0.679 A 
HETATM    8  N   UNK N   1      35.256  12.198  18.260  0.00  0.00    -0.202 N 
ATOM      9  HN  UNK N   1      34.787  13.069  18.013  1.00  0.00     0.183 HD
HETATM   10  C   UNK N   1      35.314  11.813  19.563  0.00  0.00     0.107 A 
HETATM   11  C   UNK N   1      35.944  10.621  19.911  0.00  0.00     0.035 A 
HETATM   12  C   UNK N   1      36.514   9.851  18.900  0.00  0.00     0.107 A 
HETATM   13  N   UNK N   1      36.443  10.269  17.610  0.00  0.00    -0.202 N 
ATOM     14  HN  UNK N   1      36.865   9.701  16.876  1.00  0.00     0.183 HD
ENDROOT
BRANCH   1  15
HETATM   15  C   UNK N   1      36.658  13.706  12.305  0.00  0.00     0.272 C 
BRANCH  15  16
HETATM   16  C   UNK N   1      35.907  15.013  12.041  0.00  0.00     0.032 C 
BRANCH  16  17
HETATM   17  C   UNK N   1      36.238  15.678  10.713  0.00  0.00     0.022 C 
BRANCH  17  18
HETATM   18  C   UNK N   1      35.247  16.827  10.579  0.00  0.00     0.135 C 
BRANCH  18  19
HETATM   19  N   UNK N   1      34.444  16.809   9.360  0.00  0.00    -0.288 N 
HETATM   20  C   UNK N   1      33.566  15.780   9.094  0.00  0.00     0.227 C 
HETATM   21  C   UNK N   1      32.724  15.784   7.848  0.00  0.00     0.112 C 
HETATM   22  O   UNK N   1      33.445  14.842   9.866  0.00  0.00    -0.273 OA
HETATM   23  C   UNK N   1      32.350  17.204   7.460  0.00  0.00    -0.031 C 
HETATM   24  C   UNK N   1      31.608  17.182   6.142  0.00  0.00     0.016 C 
HETATM   25  C   UNK N   1      33.638  18.007   7.301  0.00  0.00     0.112 C 
HETATM   26  C   UNK N   1      31.442  17.827   8.514  0.00  0.00     0.016 C 
HETATM   27  C   UNK N   1      34.523  17.891   8.517  0.00  0.00     0.227 C 
HETATM   28  O   UNK N   1      35.293  18.810   8.763  0.00  0.00    -0.273 OA
ENDBRANCH  18  19
ENDBRANCH  17  18
ENDBRANCH  16  17
ENDBRANCH  15  16
ENDBRANCH   1  15
TORSDOF 5
ENDMDL
MODEL 3
REMARK VINA RESULT:      -6.8      3.333      9.366
REMARK  5 active torsions:
REMARK  status: ('A' for Active; 'I' for Inactive)
REMARK    1  A    between atoms: N_6  and  C_10 
REMARK    2  A    between atoms: C_10  and  C_11 
REMARK    3  A    between atoms: C_11  and  C_12 
REMARK    4  A    between atoms: C_12  and  C_13 
REMARK    5  A    between atoms: C_13  and  N_14 
REMARK       I    between atoms: N_17  and  C_20 
ROOT
HETATM    1  N   UNK N   1      34.936  15.415   9.324  0.00  0.00     0.091 N 
HETATM    2  C   UNK N   1      34.105  14.397   9.972  0.00  0.00     0.292 C 
HETATM    3  C   UNK N   1      34.960  13.554  10.924  0.00  0.00     0.171 C 
HETATM    4  N   UNK N   1      35.722  14.420  11.804  0.00  0.00    -0.214 N 
HETATM    5  C   UNK N   1      36.401  15.564  11.239  0.00  0.00     0.171 C 
HETATM    6  C   UNK N   1      35.415  16.326  10.368  0.00  0.00     0.292 C 
HETATM    7  C   UNK N   1      35.881  14.107  13.181  0.00  0.00     0.679 A 
HETATM    8  N   UNK N   1      35.240  13.033  13.723  0.00  0.00    -0.202 N 
ATOM      9  HN  UNK N   1      34.619  12.472  13.141  1.00  0.00     0.183 HD
HETATM   10  C   UNK N   1      35.417  12.701  15.029  0.00  0.00     0.107 A 
HETATM   11  C   UNK N   1      36.270  13.455  15.831  0.00  0.00     0.035 A 
HETATM   12  C   UNK N   1      36.919  14.550  15.265  0.00  0.00     0.107 A 
HETATM   13  N   UNK N   1      36.714  14.856  13.958  0.00  0.00    -0.202 N 
ATOM     14  HN  UNK N   1      37.190  15.661  13.551  1.00  0.00     0.183 HD
ENDROOT
BRANCH   1  15
HETATM   15  C   UNK N   1      34.095  16.093   8.335  0.00  0.00     0.272 C 
BRANCH  15  16
HETATM   16  C   UNK N   1      33.968  17.605   8.535  0.00  0.00     0.032 C 
BRANCH  16  17
HETATM   17  C   UNK N   1      32.557  18.150   8.370  0.00  0.00     0.022 C 
BRANCH  17  18
HETATM   18  C   UNK N   1      31.702  16.950   7.988  0.00  0.00     0.135 C 
BRANCH  18  19
HETATM   19  N   UNK N   1      30.657  17.225   7.007  0.00  0.00    -0.288 N 
HETATM   20  C   UNK N   1      30.905  17.146   5.653  0.00  0.00     0.227 C 
HETATM   21  C   UNK N   1      29.815  17.406   4.650  0.00  0.00     0.112 C 
HETATM   22  O   UNK N   1      32.015  16.858   5.233  0.00  0.00    -0.273 OA
HETATM   23  C   UNK N   1      28.471  16.950   5.191  0.00  0.00    -0.031 C 
HETATM   24  C   UNK N   1      27.383  17.333   4.212  0.00  0.00     0.016 C 
HETATM   25  C   UNK N   1      28.228  17.660   6.519  0.00  0.00     0.112 C 
HETATM   26  C   UNK N   1      28.449  15.435   5.367  0.00  0.00     0.016 C 
HETATM   27  C   UNK N   1      29.389  17.485   7.467  0.00  0.00     0.227 C 
HETATM   28  O   UNK N   1      29.168  17.540   8.670  0.00  0.00    -0.273 OA
ENDBRANCH  18  19
ENDBRANCH  17  18
ENDBRANCH  16  17
ENDBRANCH  15  16
ENDBRANCH   1  15
TORSDOF 5
ENDMDL
MODEL 4
REMARK VINA RESULT:      -6.7      3.075      9.438
REMARK  5 active torsions:
REMARK  status: ('A' for Active; 'I' for Inactive)
REMARK    1  A    between atoms: N_6  and  C_10 
REMARK    2  A    between atoms: C_10  and  C_11 
REMARK    3  A    between atoms: C_11  and  C_12 
REMARK    4  A    between atoms: C_12  and  C_13 
REMARK    5  A    between atoms: C_13  and  N_14 
REMARK       I    between atoms: N_17  and  C_20 
ROOT
HETATM    1  N   UNK N   1      36.333  14.620  10.916  0.00  0.00     0.091 N 
HETATM    2  C   UNK N   1      36.506  13.168  10.835  0.00  0.00     0.292 C 
HETATM    3  C   UNK N   1      37.238  12.660  12.081  0.00  0.00     0.171 C 
HETATM    4  N   UNK N   1      36.592  13.166  13.277  0.00  0.00    -0.214 N 
HETATM    5  C   UNK N   1      36.214  14.560  13.328  0.00  0.00     0.171 C 
HETATM    6  C   UNK N   1      35.454  14.899  12.055  0.00  0.00     0.292 C 
HETATM    7  C   UNK N   1      36.411  12.338  14.418  0.00  0.00     0.679 A 
HETATM    8  N   UNK N   1      36.759  11.021  14.376  0.00  0.00    -0.202 N 
ATOM      9  HN  UNK N   1      37.121  10.623  13.510  1.00  0.00     0.183 HD
HETATM   10  C   UNK N   1      36.628  10.230  15.474  0.00  0.00     0.107 A 
HETATM   11  C   UNK N   1      36.142  10.765  16.665  0.00  0.00     0.035 A 
HETATM   12  C   UNK N   1      35.790  12.112  16.693  0.00  0.00     0.107 A 
HETATM   13  N   UNK N   1      35.928  12.870  15.576  0.00  0.00    -0.202 N 
ATOM     14  HN  UNK N   1      35.666  13.856  15.604  1.00  0.00     0.183 HD
ENDROOT
BRANCH   1  15
HETATM   15  C   UNK N   1      35.752  15.058   9.644  0.00  0.00     0.272 C 
BRANCH  15  16
HETATM   16  C   UNK N   1      34.648  16.109   9.775  0.00  0.00     0.032 C 
BRANCH  16  17
HETATM   17  C   UNK N   1      33.368  15.781   9.020  0.00  0.00     0.022 C 
BRANCH  17  18
HETATM   18  C   UNK N   1      32.799  17.125   8.586  0.00  0.00     0.135 C 
BRANCH  18  19
HETATM   19  N   UNK N   1      32.525  17.247   7.158  0.00  0.00    -0.288 N 
HETATM   20  C   UNK N   1      33.515  17.597   6.264  0.00  0.00     0.227 C 
HETATM   21  C   UNK N   1      33.228  17.695   4.792  0.00  0.00     0.112 C 
HETATM   22  O   UNK N   1      34.651  17.832   6.646  0.00  0.00    -0.273 OA
HETATM   23  C   UNK N   1      32.179  16.675   4.383  0.00  0.00    -0.031 C 
HETATM   24  C   UNK N   1      31.828  16.878   2.925  0.00  0.00     0.016 C 
HETATM   25  C   UNK N   1      30.937  16.903   5.238  0.00  0.00     0.112 C 
HETATM   26  C   UNK N   1      32.713  15.257   4.555  0.00  0.00     0.016 C 
HETATM   27  C   UNK N   1      31.268  16.921   6.710  0.00  0.00     0.227 C 
HETATM   28  O   UNK N   1      30.395  16.596   7.504  0.00  0.00    -0.273 OA
ENDBRANCH  18  19
ENDBRANCH  17  18
ENDBRANCH  16  17
ENDBRANCH  15  16
ENDBRANCH   1  15
TORSDOF 5
ENDMDL
MODEL 5
REMARK VINA RESULT:      -6.7      2.869      9.241
REMARK  5 active torsions:
REMARK  status: ('A' for Active; 'I' for Inactive)
REMARK    1  A    between atoms: N_6  and  C_10 
REMARK    2  A    between atoms: C_10  and  C_11 
REMARK    3  A    between atoms: C_11  and  C_12 
REMARK    4  A    between atoms: C_12  and  C_13 
REMARK    5  A    between atoms: C_13  and  N_14 
REMARK       I    between atoms: N_17  and  C_20 
ROOT
HETATM    1  N   UNK N   1      36.915  13.559  11.722  0.00  0.00     0.091 N 
HETATM    2  C   UNK N   1      36.889  12.150  12.122  0.00  0.00     0.292 C 
HETATM    3  C   UNK N   1      37.338  12.014  13.581  0.00  0.00     0.171 C 
HETATM    4  N   UNK N   1      36.593  12.935  14.417  0.00  0.00    -0.214 N 
HETATM    5  C   UNK N   1      36.415  14.297  13.967  0.00  0.00     0.171 C 
HETATM    6  C   UNK N   1      35.919  14.267  12.530  0.00  0.00     0.292 C 
HETATM    7  C   UNK N   1      36.120  12.542  15.699  0.00  0.00     0.679 A 
HETATM    8  N   UNK N   1      36.278  11.259  16.128  0.00  0.00    -0.202 N 
ATOM      9  HN  UNK N   1      36.711  10.571  15.512  1.00  0.00     0.183 HD
HETATM   10  C   UNK N   1      35.867  10.883  17.368  0.00  0.00     0.107 A 
HETATM   11  C   UNK N   1      35.283  11.816  18.222  0.00  0.00     0.035 A 
HETATM   12  C   UNK N   1      35.127  13.124  17.770  0.00  0.00     0.107 A 
HETATM   13  N   UNK N   1      35.545  13.462  16.524  0.00  0.00    -0.202 N 
ATOM     14  HN  UNK N   1      35.424  14.422  16.199  1.00  0.00     0.183 HD
ENDROOT
BRANCH   1  15
HETATM   15  C   UNK N   1      36.608  13.607  10.290  0.00  0.00     0.272 C 
BRANCH  15  16
HETATM   16  C   UNK N   1      35.903  14.884   9.832  0.00  0.00     0.032 C 
BRANCH  16  17
HETATM   17  C   UNK N   1      35.377  14.842   8.404  0.00  0.00     0.022 C 
BRANCH  17  18
HETATM   18  C   UNK N   1      34.125  15.708   8.409  0.00  0.00     0.135 C 
BRANCH  18  19
HETATM   19  N   UNK N   1      33.491  15.882   7.106  0.00  0.00    -0.288 N 
HETATM   20  C   UNK N   1      32.573  14.972   6.627  0.00  0.00     0.227 C 
HETATM   21  C   UNK N   1      31.906  15.174   5.294  0.00  0.00     0.112 C 
HETATM   22  O   UNK N   1      32.274  13.981   7.275  0.00  0.00    -0.273 OA
HETATM   23  C   UNK N   1      31.706  16.653   5.016  0.00  0.00    -0.031 C 
HETATM   24  C   UNK N   1      31.144  16.827   3.621  0.00  0.00     0.016 C 
HETATM   25  C   UNK N   1      33.065  17.340   5.101  0.00  0.00     0.112 C 
HETATM   26  C   UNK N   1      30.721  17.259   6.010  0.00  0.00     0.016 C 
HETATM   27  C   UNK N   1      33.769  17.026   6.398  0.00  0.00     0.227 C 
HETATM   28  O   UNK N   1      34.574  17.840   6.832  0.00  0.00    -0.273 OA
ENDBRANCH  18  19
ENDBRANCH  17  18
ENDBRANCH  16  17
ENDBRANCH  15  16
ENDBRANCH   1  15
TORSDOF 5
ENDMDL
MODEL 6
REMARK VINA RESULT:      -6.6      3.400      6.211
REMARK  5 active torsions:
REMARK  status: ('A' for Active; 'I' for Inactive)
REMARK    1  A    between atoms: N_6  and  C_10 
REMARK    2  A    between atoms: C_10  and  C_11 
REMARK    3  A    between atoms: C_11  and  C_12 
REMARK    4  A    between atoms: C_12  and  C_13 
REMARK    5  A    between atoms: C_13  and  N_14 
REMARK       I    between atoms: N_17  and  C_20 
ROOT
HETATM    1  N   UNK N   1      31.121  16.299   6.176  0.00  0.00     0.091 N 
HETATM    2  C   UNK N   1      31.000  16.833   4.817  0.00  0.00     0.292 C 
HETATM    3  C   UNK N   1      29.521  17.019   4.460  0.00  0.00     0.171 C 
HETATM    4  N   UNK N   1      28.848  17.763   5.508  0.00  0.00    -0.214 N 
HETATM    5  C   UNK N   1      29.093  17.403   6.886  0.00  0.00     0.171 C 
HETATM    6  C   UNK N   1      30.596  17.310   7.098  0.00  0.00     0.292 C 
HETATM    7  C   UNK N   1      27.892  18.767   5.194  0.00  0.00     0.679 A 
HETATM    8  N   UNK N   1      27.659  19.116   3.897  0.00  0.00    -0.202 N 
ATOM      9  HN  UNK N   1      28.197  18.674   3.153  1.00  0.00     0.183 HD
HETATM   10  C   UNK N   1      26.719  20.046   3.584  0.00  0.00     0.107 A 
HETATM   11  C   UNK N   1      25.971  20.650   4.592  0.00  0.00     0.035 A 
HETATM   12  C   UNK N   1      26.220  20.284   5.913  0.00  0.00     0.107 A 
HETATM   13  N   UNK N   1      27.171  19.356   6.190  0.00  0.00    -0.202 N 
ATOM     14  HN  UNK N   1      27.350  19.095   7.160  1.00  0.00     0.183 HD
ENDROOT
BRANCH   1  15
HETATM   15  C   UNK N   1      32.541  16.020   6.405  0.00  0.00     0.272 C 
BRANCH  15  16
HETATM   16  C   UNK N   1      33.427  17.263   6.507  0.00  0.00     0.032 C 
BRANCH  16  17
HETATM   17  C   UNK N   1      34.437  17.231   7.645  0.00  0.00     0.022 C 
BRANCH  17  18
HETATM   18  C   UNK N   1      33.643  16.824   8.879  0.00  0.00     0.135 C 
BRANCH  18  19
HETATM   19  N   UNK N   1      34.337  15.918   9.787  0.00  0.00    -0.288 N 
HETATM   20  C   UNK N   1      34.061  14.567   9.805  0.00  0.00     0.227 C 
HETATM   21  C   UNK N   1      34.800  13.638  10.727  0.00  0.00     0.112 C 
HETATM   22  O   UNK N   1      33.212  14.090   9.068  0.00  0.00    -0.273 OA
HETATM   23  C   UNK N   1      36.230  14.110  10.928  0.00  0.00    -0.031 C 
HETATM   24  C   UNK N   1      36.909  13.224  11.950  0.00  0.00     0.016 C 
HETATM   25  C   UNK N   1      36.188  15.542  11.450  0.00  0.00     0.112 C 
HETATM   26  C   UNK N   1      37.013  14.024   9.622  0.00  0.00     0.016 C 
HETATM   27  C   UNK N   1      35.340  16.432  10.573  0.00  0.00     0.227 C 
HETATM   28  O   UNK N   1      35.594  17.629  10.545  0.00  0.00    -0.273 OA
ENDBRANCH  18  19
ENDBRANCH  17  18
ENDBRANCH  16  17
ENDBRANCH  15  16
ENDBRANCH   1  15
TORSDOF 5
ENDMDL
MODEL 7
REMARK VINA RESULT:      -6.6      3.774      9.759
REMARK  5 active torsions:
REMARK  status: ('A' for Active; 'I' for Inactive)
REMARK    1  A    between atoms: N_6  and  C_10 
REMARK    2  A    between atoms: C_10  and  C_11 
REMARK    3  A    between atoms: C_11  and  C_12 
REMARK    4  A    between atoms: C_12  and  C_13 
REMARK    5  A    between atoms: C_13  and  N_14 
REMARK       I    between atoms: N_17  and  C_20 
ROOT
HETATM    1  N   UNK N   1      34.662  16.073   9.332  0.00  0.00     0.091 N 
HETATM    2  C   UNK N   1      33.787  15.038   9.887  0.00  0.00     0.292 C 
HETATM    3  C   UNK N   1      34.620  14.012  10.662  0.00  0.00     0.171 C 
HETATM    4  N   UNK N   1      35.493  14.690  11.602  0.00  0.00    -0.214 N 
HETATM    5  C   UNK N   1      36.230  15.850  11.155  0.00  0.00     0.171 C 
HETATM    6  C   UNK N   1      35.264  16.794  10.457  0.00  0.00     0.292 C 
HETATM    7  C   UNK N   1      35.696  14.178  12.912  0.00  0.00     0.679 A 
HETATM    8  N   UNK N   1      35.001  13.088  13.342  0.00  0.00    -0.202 N 
ATOM      9  HN  UNK N   1      34.308  12.659  12.729  1.00  0.00     0.183 HD
HETATM   10  C   UNK N   1      35.218  12.566  14.578  0.00  0.00     0.107 A 
HETATM   11  C   UNK N   1      36.168  13.138  15.420  0.00  0.00     0.035 A 
HETATM   12  C   UNK N   1      36.872  14.252  14.968  0.00  0.00     0.107 A 
HETATM   13  N   UNK N   1      36.625  14.750  13.730  0.00  0.00    -0.202 N 
ATOM     14  HN  UNK N   1      37.142  15.568  13.406  1.00  0.00     0.183 HD
ENDROOT
BRANCH   1  15
HETATM   15  C   UNK N   1      33.828  16.942   8.497  0.00  0.00     0.272 C 
BRANCH  15  16
HETATM   16  C   UNK N   1      34.222  16.976   7.019  0.00  0.00     0.032 C 
BRANCH  16  17
HETATM   17  C   UNK N   1      33.246  16.275   6.085  0.00  0.00     0.022 C 
BRANCH  17  18
HETATM   18  C   UNK N   1      32.431  17.390   5.443  0.00  0.00     0.135 C 
BRANCH  18  19
HETATM   19  N   UNK N   1      31.013  17.095   5.269  0.00  0.00    -0.288 N 
HETATM   20  C   UNK N   1      30.130  17.166   6.326  0.00  0.00     0.227 C 
HETATM   21  C   UNK N   1      28.666  16.886   6.131  0.00  0.00     0.112 C 
HETATM   22  O   UNK N   1      30.515  17.463   7.446  0.00  0.00    -0.273 OA
HETATM   23  C   UNK N   1      28.215  17.331   4.751  0.00  0.00    -0.031 C 
HETATM   24  C   UNK N   1      26.771  16.928   4.543  0.00  0.00     0.016 C 
HETATM   25  C   UNK N   1      29.089  16.629   3.717  0.00  0.00     0.112 C 
HETATM   26  C   UNK N   1      28.315  18.847   4.617  0.00  0.00     0.016 C 
HETATM   27  C   UNK N   1      30.558  16.825   4.001  0.00  0.00     0.227 C 
HETATM   28  O   UNK N   1      31.341  16.777   3.062  0.00  0.00    -0.273 OA
ENDBRANCH  18  19
ENDBRANCH  17  18
ENDBRANCH  16  17
ENDBRANCH  15  16
ENDBRANCH   1  15
TORSDOF 5
ENDMDL
MODEL 8
REMARK VINA RESULT:      -6.5      1.258      1.808
REMARK  5 active torsions:
REMARK  status: ('A' for Active; 'I' for Inactive)
REMARK    1  A    between atoms: N_6  and  C_10 
REMARK    2  A    between atoms: C_10  and  C_11 
REMARK    3  A    between atoms: C_11  and  C_12 
REMARK    4  A    between atoms: C_12  and  C_13 
REMARK    5  A    between atoms: C_13  and  N_14 
REMARK       I    between atoms: N_17  and  C_20 
ROOT
HETATM    1  N   UNK N   1      36.359  14.882   9.976  0.00  0.00     0.091 N 
HETATM    2  C   UNK N   1      35.582  15.854  10.749  0.00  0.00     0.292 C 
HETATM    3  C   UNK N   1      34.850  16.808   9.800  0.00  0.00     0.171 C 
HETATM    4  N   UNK N   1      34.123  16.052   8.799  0.00  0.00    -0.214 N 
HETATM    5  C   UNK N   1      34.784  14.945   8.146  0.00  0.00     0.171 C 
HETATM    6  C   UNK N   1      35.412  14.063   9.213  0.00  0.00     0.292 C 
HETATM    7  C   UNK N   1      32.816  16.439   8.393  0.00  0.00     0.679 A 
HETATM    8  N   UNK N   1      32.184  17.479   9.008  0.00  0.00    -0.202 N 
ATOM      9  HN  UNK N   1      32.640  17.958   9.783  1.00  0.00     0.183 HD
HETATM   10  C   UNK N   1      30.952  17.883   8.601  0.00  0.00     0.107 A 
HETATM   11  C   UNK N   1      30.322  17.241   7.537  0.00  0.00     0.035 A 
HETATM   12  C   UNK N   1      30.980  16.181   6.918  0.00  0.00     0.107 A 
HETATM   13  N   UNK N   1      32.208  15.800   7.355  0.00  0.00    -0.202 N 
ATOM     14  HN  UNK N   1      32.682  15.020   6.898  1.00  0.00     0.183 HD
ENDROOT
BRANCH   1  15
HETATM   15  C   UNK N   1      37.135  14.090  10.933  0.00  0.00     0.272 C 
BRANCH  15  16
HETATM   16  C   UNK N   1      36.313  13.090  11.749  0.00  0.00     0.032 C 
BRANCH  16  17
HETATM   17  C   UNK N   1      36.196  13.423  13.230  0.00  0.00     0.022 C 
BRANCH  17  18
HETATM   18  C   UNK N   1      35.276  12.359  13.811  0.00  0.00     0.135 C 
BRANCH  18  19
HETATM   19  N   UNK N   1      35.610  11.928  15.165  0.00  0.00    -0.288 N 
HETATM   20  C   UNK N   1      34.971  12.458  16.266  0.00  0.00     0.227 C 
HETATM   21  C   UNK N   1      35.305  11.990  17.655  0.00  0.00     0.112 C 
HETATM   22  O   UNK N   1      34.114  13.319  16.140  0.00  0.00    -0.273 OA
HETATM   23  C   UNK N   1      35.680  10.518  17.647  0.00  0.00    -0.031 C 
HETATM   24  C   UNK N   1      36.123  10.109  19.034  0.00  0.00     0.016 C 
HETATM   25  C   UNK N   1      36.836  10.329  16.670  0.00  0.00     0.112 C 
HETATM   26  C   UNK N   1      34.482   9.661  17.252  0.00  0.00     0.016 C 
HETATM   27  C   UNK N   1      36.525  10.914  15.315  0.00  0.00     0.227 C 
HETATM   28  O   UNK N   1      37.081  10.435  14.335  0.00  0.00    -0.273 OA
ENDBRANCH  18  19
ENDBRANCH  17  18
ENDBRANCH  16  17
ENDBRANCH  15  16
ENDBRANCH   1  15
TORSDOF 5
ENDMDL
MODEL 9
REMARK VINA RESULT:      -6.4      6.594     10.654
REMARK  5 active torsions:
REMARK  status: ('A' for Active; 'I' for Inactive)
REMARK    1  A    between atoms: N_6  and  C_10 
REMARK    2  A    between atoms: C_10  and  C_11 
REMARK    3  A    between atoms: C_11  and  C_12 
REMARK    4  A    between atoms: C_12  and  C_13 
REMARK    5  A    between atoms: C_13  and  N_14 
REMARK       I    between atoms: N_17  and  C_20 
ROOT
HETATM    1  N   UNK N   1      25.268  15.300   5.962  0.00  0.00     0.091 N 
HETATM    2  C   UNK N   1      23.893  15.717   6.246  0.00  0.00     0.292 C 
HETATM    3  C   UNK N   1      23.070  14.514   6.717  0.00  0.00     0.171 C 
HETATM    4  N   UNK N   1      23.767  13.824   7.786  0.00  0.00    -0.214 N 
HETATM    5  C   UNK N   1      25.182  13.566   7.642  0.00  0.00     0.171 C 
HETATM    6  C   UNK N   1      25.866  14.858   7.225  0.00  0.00     0.292 C 
HETATM    7  C   UNK N   1      23.064  13.326   8.917  0.00  0.00     0.679 A 
HETATM    8  N   UNK N   1      21.731  13.570   9.062  0.00  0.00    -0.202 N 
ATOM      9  HN  UNK N   1      21.245  14.140   8.371  1.00  0.00     0.183 HD
HETATM   10  C   UNK N   1      21.042  13.065  10.119  0.00  0.00     0.107 A 
HETATM   11  C   UNK N   1      21.693  12.277  11.065  0.00  0.00     0.035 A 
HETATM   12  C   UNK N   1      23.055  12.036  10.903  0.00  0.00     0.107 A 
HETATM   13  N   UNK N   1      23.714  12.562   9.840  0.00  0.00    -0.202 N 
ATOM     14  HN  UNK N   1      24.712  12.383   9.730  1.00  0.00     0.183 HD
ENDROOT
BRANCH   1  15
HETATM   15  C   UNK N   1      25.962  16.457   5.392  0.00  0.00     0.272 C 
BRANCH  15  16
HETATM   16  C   UNK N   1      27.170  16.938   6.199  0.00  0.00     0.032 C 
BRANCH  16  17
HETATM   17  C   UNK N   1      28.450  17.098   5.392  0.00  0.00     0.022 C 
BRANCH  17  18
HETATM   18  C   UNK N   1      29.468  16.189   6.066  0.00  0.00     0.135 C 
BRANCH  18  19
HETATM   19  N   UNK N   1      30.662  16.864   6.565  0.00  0.00    -0.288 N 
HETATM   20  C   UNK N   1      30.734  17.329   7.861  0.00  0.00     0.227 C 
HETATM   21  C   UNK N   1      31.978  18.001   8.374  0.00  0.00     0.112 C 
HETATM   22  O   UNK N   1      29.792  17.204   8.627  0.00  0.00    -0.273 OA
HETATM   23  C   UNK N   1      33.214  17.403   7.725  0.00  0.00    -0.031 C 
HETATM   24  C   UNK N   1      34.435  18.178   8.171  0.00  0.00     0.016 C 
HETATM   25  C   UNK N   1      33.063  17.527   6.212  0.00  0.00     0.112 C 
HETATM   26  C   UNK N   1      33.390  15.948   8.143  0.00  0.00     0.016 C 
HETATM   27  C   UNK N   1      31.752  16.953   5.733  0.00  0.00     0.227 C 
HETATM   28  O   UNK N   1      31.690  16.526   4.588  0.00  0.00    -0.273 OA
ENDBRANCH  18  19
ENDBRANCH  17  18
ENDBRANCH  16  17
ENDBRANCH  15  16
ENDBRANCH   1  15
TORSDOF 5
ENDMDL
