MODEL 1
REMARK VINA RESULT:      -7.4      0.000      0.000
REMARK  6 active torsions:
REMARK  status: ('A' for Active; 'I' for Inactive)
REMARK    1  A    between atoms: C_2  and  N_3 
REMARK    2  A    between atoms: C_4  and  C_10 
REMARK    3  A    between atoms: C_10  and  O_11 
REMARK    4  A    between atoms: O_11  and  C_12 
REMARK    5  A    between atoms: C_13  and  C_31 
REMARK    6  A    between atoms: C_20  and  C_24 
ROOT
HETATM    1  C   UNK N   1      30.666  16.637   7.201  0.00  0.00     0.165 A 
HETATM    2  C   UNK N   1      29.566  17.581   7.207  0.00  0.00     0.005 A 
HETATM    3  C   UNK N   1      28.976  17.911   5.959  0.00  0.00     0.064 A 
HETATM    4  C   UNK N   1      29.493  17.326   4.813  0.00  0.00     0.144 A 
HETATM    5  N   UNK N   1      29.089  17.488   3.542  0.00  0.00    -0.282 N 
ATOM      6  HN  UNK N   1      28.329  18.086   3.215  1.00  0.00     0.188 HD
HETATM    7  N   UNK N   1      29.874  16.713   2.791  0.00  0.00    -0.282 N 
ATOM      8  HN  UNK N   1      29.824  16.606   1.778  1.00  0.00     0.188 HD
HETATM    9  C   UNK N   1      30.752  16.093   3.620  0.00  0.00     0.157 A 
HETATM   10  N   UNK N   1      30.506  16.474   4.885  0.00  0.00    -0.218 N 
HETATM   11  N   UNK N   1      31.077  16.116   6.018  0.00  0.00    -0.269 N 
ATOM     12  HN  UNK N   1      31.837  15.437   6.006  1.00  0.00     0.190 HD
ENDROOT
BRANCH   1  13
HETATM   13  O   UNK N   1      31.306  16.179   8.299  0.00  0.00    -0.327 OA
BRANCH  13  14
HETATM   14  C   UNK N   1      32.078  15.058   8.399  0.00  0.00     0.255 C 
BRANCH  14  15
HETATM   15  C   UNK N   1      33.203  15.358   9.323  0.00  0.00     0.123 A 
HETATM   16  N   UNK N   1      34.230  16.164   9.032  0.00  0.00    -0.278 N 
HETATM   17  N   UNK N   1      35.011  16.228  10.092  0.00  0.00    -0.293 N 
HETATM   18  C   UNK N   1      34.449  15.443  11.039  0.00  0.00     0.199 A 
ATOM     19  HN  UNK N   1      35.873  16.766  10.182  1.00  0.00     0.188 HD
HETATM   20  N   UNK N   1      33.307  14.881  10.577  0.00  0.00    -0.338 N 
ATOM     21  HN  UNK N   1      32.673  14.248  11.066  1.00  0.00     0.168 HD
BRANCH  16  22
HETATM   22  C   UNK N   1      34.472  16.883   7.789  0.00  0.00     0.146 C 
HETATM   23  C   UNK N   1      34.056  18.338   7.930  0.00  0.00     0.028 C 
ENDBRANCH  16  22
ENDBRANCH  14  15
ENDBRANCH  13  14
ENDBRANCH   1  13
BRANCH   2  24
HETATM   24  C   UNK N   1      28.975  18.191   8.480  0.00  0.00    -0.020 C 
HETATM   25  C   UNK N   1      28.015  19.314   8.129  0.00  0.00     0.019 C 
HETATM   26  C   UNK N   1      30.038  18.800   9.387  0.00  0.00     0.019 C 
HETATM   27  C   UNK N   1      28.273  17.140   9.319  0.00  0.00     0.019 C 
ENDBRANCH   2  24
BRANCH   9  28
HETATM   28  C   UNK N   1      31.798  15.132   3.140  0.00  0.00     0.050 A 
HETATM   29  C   UNK N   1      31.388  13.808   2.916  0.00  0.00     0.018 A 
HETATM   30  C   UNK N   1      32.289  12.836   2.478  0.00  0.00     0.001 A 
HETATM   31  C   UNK N   1      33.621  13.170   2.248  0.00  0.00     0.003 A 
HETATM   32  C   UNK N   1      34.051  14.478   2.448  0.00  0.00     0.043 A 
HETATM   33  C   UNK N   1      33.162  15.462   2.889  0.00  0.00     0.130 A 
HETATM   34  F   UNK N   1      33.661  16.707   3.030  0.00  0.00    -0.205 F 
ENDBRANCH   9  28
TORSDOF 6
ENDMDL
MODEL 2
REMARK VINA RESULT:      -7.4      5.323     10.652
REMARK  6 active torsions:
REMARK  status: ('A' for Active; 'I' for Inactive)
REMARK    1  A    between atoms: C_2  and  N_3 
REMARK    2  A    between atoms: C_4  and  C_10 
REMARK    3  A    between atoms: C_10  and  O_11 
REMARK    4  A    between atoms: O_11  and  C_12 
REMARK    5  A    between atoms: C_13  and  C_31 
REMARK    6  A    between atoms: C_20  and  C_24 
ROOT
HETATM    1  C   UNK N   1      36.868  14.111  11.501  0.00  0.00     0.165 A 
HETATM    2  C   UNK N   1      37.385  13.009  10.714  0.00  0.00     0.005 A 
HETATM    3  C   UNK N   1      37.684  11.798  11.392  0.00  0.00     0.064 A 
HETATM    4  C   UNK N   1      37.477  11.747  12.762  0.00  0.00     0.144 A 
HETATM    5  N   UNK N   1      37.683  10.712  13.596  0.00  0.00    -0.282 N 
ATOM      6  HN  UNK N   1      38.039   9.789  13.346  1.00  0.00     0.188 HD
HETATM    7  N   UNK N   1      37.330  11.129  14.813  0.00  0.00    -0.282 N 
ATOM      8  HN  UNK N   1      37.364  10.578  15.672  1.00  0.00     0.188 HD
HETATM    9  C   UNK N   1      36.919  12.418  14.704  0.00  0.00     0.157 A 
HETATM   10  N   UNK N   1      37.007  12.798  13.418  0.00  0.00    -0.218 N 
HETATM   11  N   UNK N   1      36.693  13.938  12.834  0.00  0.00    -0.269 N 
ATOM     12  HN  UNK N   1      36.312  14.702  13.393  1.00  0.00     0.190 HD
ENDROOT
BRANCH   1  13
HETATM   13  O   UNK N   1      36.490  15.311  11.008  0.00  0.00    -0.327 OA
BRANCH  13  14
HETATM   14  C   UNK N   1      35.411  16.056  11.386  0.00  0.00     0.255 C 
BRANCH  14  15
HETATM   15  C   UNK N   1      34.285  15.727  10.473  0.00  0.00     0.123 A 
HETATM   16  N   UNK N   1      34.030  16.362   9.324  0.00  0.00    -0.278 N 
HETATM   17  N   UNK N   1      32.988  15.783   8.761  0.00  0.00    -0.293 N 
HETATM   18  C   UNK N   1      32.603  14.784   9.587  0.00  0.00     0.199 A 
ATOM     19  HN  UNK N   1      32.555  16.039   7.874  1.00  0.00     0.188 HD
HETATM   20  N   UNK N   1      33.407  14.728  10.675  0.00  0.00    -0.338 N 
ATOM     21  HN  UNK N   1      33.358  14.081  11.462  1.00  0.00     0.168 HD
BRANCH  16  22
HETATM   22  C   UNK N   1      34.759  17.483   8.746  0.00  0.00     0.146 C 
HETATM   23  C   UNK N   1      33.819  18.365   7.940  0.00  0.00     0.028 C 
ENDBRANCH  16  22
ENDBRANCH  14  15
ENDBRANCH  13  14
ENDBRANCH   1  13
BRANCH   2  24
HETATM   24  C   UNK N   1      37.571  13.061   9.195  0.00  0.00    -0.020 C 
HETATM   25  C   UNK N   1      36.261  13.426   8.517  0.00  0.00     0.019 C 
HETATM   26  C   UNK N   1      38.002  11.722   8.609  0.00  0.00     0.019 C 
HETATM   27  C   UNK N   1      38.657  14.048   8.808  0.00  0.00     0.019 C 
ENDBRANCH   2  24
BRANCH   9  28
HETATM   28  C   UNK N   1      36.439  13.229  15.868  0.00  0.00     0.050 A 
HETATM   29  C   UNK N   1      35.505  12.623  16.723  0.00  0.00     0.018 A 
HETATM   30  C   UNK N   1      34.989  13.300  17.829  0.00  0.00     0.001 A 
HETATM   31  C   UNK N   1      35.403  14.599  18.109  0.00  0.00     0.003 A 
HETATM   32  C   UNK N   1      36.338  15.220  17.287  0.00  0.00     0.043 A 
HETATM   33  C   UNK N   1      36.861  14.557  16.174  0.00  0.00     0.130 A 
HETATM   34  F   UNK N   1      37.782  15.226  15.450  0.00  0.00    -0.205 F 
ENDBRANCH   9  28
TORSDOF 6
ENDMDL
MODEL 3
REMARK VINA RESULT:      -7.3      6.832      9.832
REMARK  6 active torsions:
REMARK  status: ('A' for Active; 'I' for Inactive)
REMARK    1  A    between atoms: C_2  and  N_3 
REMARK    2  A    between atoms: C_4  and  C_10 
REMARK    3  A    between atoms: C_10  and  O_11 
REMARK    4  A    between atoms: O_11  and  C_12 
REMARK    5  A    between atoms: C_13  and  C_31 
REMARK    6  A    between atoms: C_20  and  C_24 
ROOT
HETATM    1  C   UNK N   1      22.853  18.682   4.507  0.00  0.00     0.165 A 
HETATM    2  C   UNK N   1      22.560  19.493   3.341  0.00  0.00     0.005 A 
HETATM    3  C   UNK N   1      23.635  20.204   2.746  0.00  0.00     0.064 A 
HETATM    4  C   UNK N   1      24.892  20.092   3.320  0.00  0.00     0.144 A 
HETATM    5  N   UNK N   1      26.042  20.664   2.923  0.00  0.00    -0.282 N 
ATOM      6  HN  UNK N   1      26.168  21.290   2.128  1.00  0.00     0.188 HD
HETATM    7  N   UNK N   1      26.985  20.253   3.773  0.00  0.00    -0.282 N 
ATOM      8  HN  UNK N   1      27.973  20.507   3.745  1.00  0.00     0.188 HD
HETATM    9  C   UNK N   1      26.392  19.438   4.682  0.00  0.00     0.157 A 
HETATM   10  N   UNK N   1      25.084  19.334   4.392  0.00  0.00    -0.218 N 
HETATM   11  N   UNK N   1      24.126  18.637   4.970  0.00  0.00    -0.269 N 
ATOM     12  HN  UNK N   1      24.346  18.055   5.778  1.00  0.00     0.190 HD
ENDROOT
BRANCH   1  13
HETATM   13  O   UNK N   1      21.960  17.909   5.162  0.00  0.00    -0.327 OA
BRANCH  13  14
HETATM   14  C   UNK N   1      21.334  18.188   6.342  0.00  0.00     0.255 C 
BRANCH  14  15
HETATM   15  C   UNK N   1      21.262  16.931   7.131  0.00  0.00     0.123 A 
HETATM   16  N   UNK N   1      20.473  16.747   8.196  0.00  0.00    -0.278 N 
HETATM   17  N   UNK N   1      20.638  15.509   8.617  0.00  0.00    -0.293 N 
HETATM   18  C   UNK N   1      21.546  14.935   7.796  0.00  0.00     0.199 A 
ATOM     19  HN  UNK N   1      20.171  15.068   9.409  1.00  0.00     0.188 HD
HETATM   20  N   UNK N   1      21.956  15.813   6.850  0.00  0.00    -0.338 N 
ATOM     21  HN  UNK N   1      22.631  15.662   6.099  1.00  0.00     0.168 HD
BRANCH  16  22
HETATM   22  C   UNK N   1      19.561  17.707   8.803  0.00  0.00     0.146 C 
HETATM   23  C   UNK N   1      18.214  17.057   9.076  0.00  0.00     0.028 C 
ENDBRANCH  16  22
ENDBRANCH  14  15
ENDBRANCH  13  14
ENDBRANCH   1  13
BRANCH   2  24
HETATM   24  C   UNK N   1      21.177  19.579   2.690  0.00  0.00    -0.020 C 
HETATM   25  C   UNK N   1      21.261  20.329   1.372  0.00  0.00     0.019 C 
HETATM   26  C   UNK N   1      20.168  20.331   3.550  0.00  0.00     0.019 C 
HETATM   27  C   UNK N   1      20.585  18.199   2.475  0.00  0.00     0.019 C 
ENDBRANCH   2  24
BRANCH   9  28
HETATM   28  C   UNK N   1      27.137  18.775   5.801  0.00  0.00     0.050 A 
HETATM   29  C   UNK N   1      27.200  17.373   5.778  0.00  0.00     0.018 A 
HETATM   30  C   UNK N   1      27.862  16.662   6.780  0.00  0.00     0.001 A 
HETATM   31  C   UNK N   1      28.482  17.340   7.826  0.00  0.00     0.003 A 
HETATM   32  C   UNK N   1      28.447  18.730   7.866  0.00  0.00     0.043 A 
HETATM   33  C   UNK N   1      27.786  19.456   6.872  0.00  0.00     0.130 A 
HETATM   34  F   UNK N   1      27.826  20.800   6.978  0.00  0.00    -0.205 F 
ENDBRANCH   9  28
TORSDOF 6
ENDMDL
MODEL 4
REMARK VINA RESULT:      -7.2      2.577      5.650
REMARK  6 active torsions:
REMARK  status: ('A' for Active; 'I' for Inactive)
REMARK    1  A    between atoms: C_2  and  N_3 
REMARK    2  A    between atoms: C_4  and  C_10 
REMARK    3  A    between atoms: C_10  and  O_11 
REMARK    4  A    between atoms: O_11  and  C_12 
REMARK    5  A    between atoms: C_13  and  C_31 
REMARK    6  A    between atoms: C_20  and  C_24 
ROOT
HETATM    1  C   UNK N   1      29.086  17.938   5.484  0.00  0.00     0.165 A 
HETATM    2  C   UNK N   1      27.915  18.670   5.924  0.00  0.00     0.005 A 
HETATM    3  C   UNK N   1      27.804  18.965   7.307  0.00  0.00     0.064 A 
HETATM    4  C   UNK N   1      28.810  18.527   8.154  0.00  0.00     0.144 A 
HETATM    5  N   UNK N   1      28.912  18.699   9.483  0.00  0.00    -0.282 N 
ATOM      6  HN  UNK N   1      28.246  19.180  10.089  1.00  0.00     0.188 HD
HETATM    7  N   UNK N   1      30.053  18.117   9.856  0.00  0.00    -0.282 N 
ATOM      8  HN  UNK N   1      30.426  18.074  10.805  1.00  0.00     0.188 HD
HETATM    9  C   UNK N   1      30.629  17.592   8.744  0.00  0.00     0.157 A 
HETATM   10  N   UNK N   1      29.851  17.856   7.681  0.00  0.00    -0.218 N 
HETATM   11  N   UNK N   1      30.014  17.574   6.404  0.00  0.00    -0.269 N 
ATOM     12  HN  UNK N   1      30.851  17.075   6.102  1.00  0.00     0.190 HD
ENDROOT
BRANCH   1  13
HETATM   13  O   UNK N   1      29.370  17.618   4.203  0.00  0.00    -0.327 OA
BRANCH  13  14
HETATM   14  C   UNK N   1      29.587  16.372   3.690  0.00  0.00     0.255 C 
BRANCH  14  15
HETATM   15  C   UNK N   1      31.042  16.234   3.421  0.00  0.00     0.123 A 
HETATM   16  N   UNK N   1      31.768  15.149   3.710  0.00  0.00    -0.278 N 
HETATM   17  N   UNK N   1      33.002  15.361   3.299  0.00  0.00    -0.293 N 
HETATM   18  C   UNK N   1      33.024  16.600   2.755  0.00  0.00     0.199 A 
ATOM     19  HN  UNK N   1      33.789  14.717   3.375  1.00  0.00     0.188 HD
HETATM   20  N   UNK N   1      31.798  17.172   2.821  0.00  0.00    -0.338 N 
ATOM     21  HN  UNK N   1      31.515  18.094   2.491  1.00  0.00     0.168 HD
BRANCH  16  22
HETATM   22  C   UNK N   1      31.314  13.919   4.345  0.00  0.00     0.146 C 
HETATM   23  C   UNK N   1      31.923  13.784   5.731  0.00  0.00     0.028 C 
ENDBRANCH  16  22
ENDBRANCH  14  15
ENDBRANCH  13  14
ENDBRANCH   1  13
BRANCH   2  24
HETATM   24  C   UNK N   1      26.829  19.186   4.975  0.00  0.00    -0.020 C 
HETATM   25  C   UNK N   1      26.017  18.026   4.425  0.00  0.00     0.019 C 
HETATM   26  C   UNK N   1      27.403  19.921   3.770  0.00  0.00     0.019 C 
HETATM   27  C   UNK N   1      25.921  20.183   5.670  0.00  0.00     0.019 C 
ENDBRANCH   2  24
BRANCH   9  28
HETATM   28  C   UNK N   1      31.936  16.859   8.764  0.00  0.00     0.050 A 
HETATM   29  C   UNK N   1      31.893  15.494   9.090  0.00  0.00     0.018 A 
HETATM   30  C   UNK N   1      33.057  14.726   9.145  0.00  0.00     0.001 A 
HETATM   31  C   UNK N   1      34.292  15.307   8.868  0.00  0.00     0.003 A 
HETATM   32  C   UNK N   1      34.362  16.655   8.528  0.00  0.00     0.043 A 
HETATM   33  C   UNK N   1      33.206  17.437   8.471  0.00  0.00     0.130 A 
HETATM   34  F   UNK N   1      33.366  18.725   8.107  0.00  0.00    -0.205 F 
ENDBRANCH   9  28
TORSDOF 6
ENDMDL
MODEL 5
REMARK VINA RESULT:      -7.2     12.082     15.100
REMARK  6 active torsions:
REMARK  status: ('A' for Active; 'I' for Inactive)
REMARK    1  A    between atoms: C_2  and  N_3 
REMARK    2  A    between atoms: C_4  and  C_10 
REMARK    3  A    between atoms: C_10  and  O_11 
REMARK    4  A    between atoms: O_11  and  C_12 
REMARK    5  A    between atoms: C_13  and  C_31 
REMARK    6  A    between atoms: C_20  and  C_24 
ROOT
HETATM    1  C   UNK N   1      29.587  22.570  -6.781  0.00  0.00     0.165 A 
HETATM    2  C   UNK N   1      29.258  21.379  -7.538  0.00  0.00     0.005 A 
HETATM    3  C   UNK N   1      27.886  21.117  -7.792  0.00  0.00     0.064 A 
HETATM    4  C   UNK N   1      26.946  22.005  -7.291  0.00  0.00     0.144 A 
HETATM    5  N   UNK N   1      25.609  21.957  -7.415  0.00  0.00    -0.282 N 
ATOM      6  HN  UNK N   1      25.067  21.241  -7.900  1.00  0.00     0.188 HD
HETATM    7  N   UNK N   1      25.129  23.029  -6.782  0.00  0.00    -0.282 N 
ATOM      8  HN  UNK N   1      24.146  23.288  -6.695  1.00  0.00     0.188 HD
HETATM    9  C   UNK N   1      26.186  23.713  -6.274  0.00  0.00     0.157 A 
HETATM   10  N   UNK N   1      27.321  23.072  -6.600  0.00  0.00    -0.218 N 
HETATM   11  N   UNK N   1      28.581  23.374  -6.355  0.00  0.00    -0.269 N 
ATOM     12  HN  UNK N   1      28.803  24.224  -5.838  1.00  0.00     0.190 HD
ENDROOT
BRANCH   1  13
HETATM   13  O   UNK N   1      30.838  22.991  -6.494  0.00  0.00    -0.327 OA
BRANCH  13  14
HETATM   14  C   UNK N   1      31.261  23.609  -5.353  0.00  0.00     0.255 C 
BRANCH  14  15
HETATM   15  C   UNK N   1      31.875  22.579  -4.475  0.00  0.00     0.123 A 
HETATM   16  N   UNK N   1      31.233  21.939  -3.492  0.00  0.00    -0.278 N 
HETATM   17  N   UNK N   1      32.069  21.073  -2.954  0.00  0.00    -0.293 N 
HETATM   18  C   UNK N   1      33.240  21.195  -3.621  0.00  0.00     0.199 A 
ATOM     19  HN  UNK N   1      31.872  20.434  -2.184  1.00  0.00     0.188 HD
HETATM   20  N   UNK N   1      33.143  22.140  -4.586  0.00  0.00    -0.338 N 
ATOM     21  HN  UNK N   1      33.860  22.446  -5.243  1.00  0.00     0.168 HD
BRANCH  16  22
HETATM   22  C   UNK N   1      29.851  22.116  -3.069  0.00  0.00     0.146 C 
HETATM   23  C   UNK N   1      29.780  23.043  -1.866  0.00  0.00     0.028 C 
ENDBRANCH  16  22
ENDBRANCH  14  15
ENDBRANCH  13  14
ENDBRANCH   1  13
BRANCH   2  24
HETATM   24  C   UNK N   1      30.305  20.426  -8.122  0.00  0.00    -0.020 C 
HETATM   25  C   UNK N   1      31.047  21.098  -9.265  0.00  0.00     0.019 C 
HETATM   26  C   UNK N   1      29.689  19.156  -8.695  0.00  0.00     0.019 C 
HETATM   27  C   UNK N   1      31.283  19.965  -7.058  0.00  0.00     0.019 C 
ENDBRANCH   2  24
BRANCH   9  28
HETATM   28  C   UNK N   1      26.044  24.986  -5.496  0.00  0.00     0.050 A 
HETATM   29  C   UNK N   1      25.465  26.077  -6.163  0.00  0.00     0.018 A 
HETATM   30  C   UNK N   1      25.298  27.308  -5.527  0.00  0.00     0.001 A 
HETATM   31  C   UNK N   1      25.703  27.474  -4.206  0.00  0.00     0.003 A 
HETATM   32  C   UNK N   1      26.267  26.405  -3.516  0.00  0.00     0.043 A 
HETATM   33  C   UNK N   1      26.443  25.167  -4.139  0.00  0.00     0.130 A 
HETATM   34  F   UNK N   1      26.974  24.182  -3.386  0.00  0.00    -0.205 F 
ENDBRANCH   9  28
TORSDOF 6
ENDMDL
MODEL 6
REMARK VINA RESULT:      -7.2      6.194     10.143
REMARK  6 active torsions:
REMARK  status: ('A' for Active; 'I' for Inactive)
REMARK    1  A    between atoms: C_2  and  N_3 
REMARK    2  A    between atoms: C_4  and  C_10 
REMARK    3  A    between atoms: C_10  and  O_11 
REMARK    4  A    between atoms: O_11  and  C_12 
REMARK    5  A    between atoms: C_13  and  C_31 
REMARK    6  A    between atoms: C_20  and  C_24 
ROOT
HETATM    1  C   UNK N   1      24.588  15.787   3.174  0.00  0.00     0.165 A 
HETATM    2  C   UNK N   1      25.184  14.739   2.369  0.00  0.00     0.005 A 
HETATM    3  C   UNK N   1      26.590  14.775   2.177  0.00  0.00     0.064 A 
HETATM    4  C   UNK N   1      27.304  15.812   2.757  0.00  0.00     0.144 A 
HETATM    5  N   UNK N   1      28.629  16.037   2.711  0.00  0.00    -0.282 N 
ATOM      6  HN  UNK N   1      29.326  15.472   2.226  1.00  0.00     0.188 HD
HETATM    7  N   UNK N   1      28.852  17.141   3.425  0.00  0.00    -0.282 N 
ATOM      8  HN  UNK N   1      29.759  17.579   3.591  1.00  0.00     0.188 HD
HETATM    9  C   UNK N   1      27.655  17.578   3.892  0.00  0.00     0.157 A 
HETATM   10  N   UNK N   1      26.690  16.740   3.477  0.00  0.00    -0.218 N 
HETATM   11  N   UNK N   1      25.391  16.743   3.704  0.00  0.00    -0.269 N 
ATOM     12  HN  UNK N   1      24.984  17.473   4.287  1.00  0.00     0.190 HD
ENDROOT
BRANCH   1  13
HETATM   13  O   UNK N   1      23.278  15.875   3.494  0.00  0.00    -0.327 OA
BRANCH  13  14
HETATM   14  C   UNK N   1      22.596  16.990   3.885  0.00  0.00     0.255 C 
BRANCH  14  15
HETATM   15  C   UNK N   1      21.472  17.196   2.935  0.00  0.00     0.123 A 
HETATM   16  N   UNK N   1      20.807  18.347   2.785  0.00  0.00    -0.278 N 
HETATM   17  N   UNK N   1      19.909  18.178   1.834  0.00  0.00    -0.293 N 
HETATM   18  C   UNK N   1      20.031  16.901   1.405  0.00  0.00     0.199 A 
ATOM     19  HN  UNK N   1      19.250  18.875   1.489  1.00  0.00     0.188 HD
HETATM   20  N   UNK N   1      21.011  16.260   2.085  0.00  0.00    -0.338 N 
ATOM     21  HN  UNK N   1      21.326  15.296   1.978  1.00  0.00     0.168 HD
BRANCH  16  22
HETATM   22  C   UNK N   1      21.016  19.596   3.504  0.00  0.00     0.146 C 
HETATM   23  C   UNK N   1      21.149  20.752   2.527  0.00  0.00     0.028 C 
ENDBRANCH  16  22
ENDBRANCH  14  15
ENDBRANCH  13  14
ENDBRANCH   1  13
BRANCH   2  24
HETATM   24  C   UNK N   1      24.392  13.575   1.767  0.00  0.00    -0.020 C 
HETATM   25  C   UNK N   1      23.578  14.052   0.576  0.00  0.00     0.019 C 
HETATM   26  C   UNK N   1      23.401  12.967   2.752  0.00  0.00     0.019 C 
HETATM   27  C   UNK N   1      25.311  12.440   1.357  0.00  0.00     0.019 C 
ENDBRANCH   2  24
BRANCH   9  28
HETATM   28  C   UNK N   1      27.501  18.801   4.745  0.00  0.00     0.050 A 
HETATM   29  C   UNK N   1      27.865  18.682   6.096  0.00  0.00     0.018 A 
HETATM   30  C   UNK N   1      27.750  19.760   6.974  0.00  0.00     0.001 A 
HETATM   31  C   UNK N   1      27.272  20.986   6.518  0.00  0.00     0.003 A 
HETATM   32  C   UNK N   1      26.917  21.136   5.181  0.00  0.00     0.043 A 
HETATM   33  C   UNK N   1      27.024  20.065   4.290  0.00  0.00     0.130 A 
HETATM   34  F   UNK N   1      26.683  20.310   3.008  0.00  0.00    -0.205 F 
ENDBRANCH   9  28
TORSDOF 6
ENDMDL
MODEL 7
REMARK VINA RESULT:      -7.1      4.851      8.090
REMARK  6 active torsions:
REMARK  status: ('A' for Active; 'I' for Inactive)
REMARK    1  A    between atoms: C_2  and  N_3 
REMARK    2  A    between atoms: C_4  and  C_10 
REMARK    3  A    between atoms: C_10  and  O_11 
REMARK    4  A    between atoms: O_11  and  C_12 
REMARK    5  A    between atoms: C_13  and  C_31 
REMARK    6  A    between atoms: C_20  and  C_24 
ROOT
HETATM    1  C   UNK N   1      33.505  15.111   9.632  0.00  0.00     0.165 A 
HETATM    2  C   UNK N   1      34.218  16.359   9.442  0.00  0.00     0.005 A 
HETATM    3  C   UNK N   1      35.273  16.659  10.344  0.00  0.00     0.064 A 
HETATM    4  C   UNK N   1      35.548  15.752  11.355  0.00  0.00     0.144 A 
HETATM    5  N   UNK N   1      36.496  15.829  12.305  0.00  0.00    -0.282 N 
ATOM      6  HN  UNK N   1      37.167  16.586  12.437  1.00  0.00     0.188 HD
HETATM    7  N   UNK N   1      36.388  14.721  13.041  0.00  0.00    -0.282 N 
ATOM      8  HN  UNK N   1      36.967  14.471  13.843  1.00  0.00     0.188 HD
HETATM    9  C   UNK N   1      35.368  13.986  12.529  0.00  0.00     0.157 A 
HETATM   10  N   UNK N   1      34.849  14.631  11.471  0.00  0.00    -0.218 N 
HETATM   11  N   UNK N   1      33.875  14.294  10.650  0.00  0.00    -0.269 N 
ATOM     12  HN  UNK N   1      33.392  13.405  10.780  1.00  0.00     0.190 HD
ENDROOT
BRANCH   1  13
HETATM   13  O   UNK N   1      32.512  14.652   8.840  0.00  0.00    -0.327 OA
BRANCH  13  14
HETATM   14  C   UNK N   1      32.641  13.941   7.682  0.00  0.00     0.255 C 
BRANCH  14  15
HETATM   15  C   UNK N   1      33.317  12.657   8.006  0.00  0.00     0.123 A 
HETATM   16  N   UNK N   1      34.597  12.383   7.732  0.00  0.00    -0.278 N 
HETATM   17  N   UNK N   1      34.864  11.178   8.193  0.00  0.00    -0.293 N 
HETATM   18  C   UNK N   1      33.723  10.712   8.751  0.00  0.00     0.199 A 
ATOM     19  HN  UNK N   1      35.758  10.690   8.139  1.00  0.00     0.188 HD
HETATM   20  N   UNK N   1      32.732  11.628   8.645  0.00  0.00    -0.338 N 
ATOM     21  HN  UNK N   1      31.769  11.555   8.974  1.00  0.00     0.168 HD
BRANCH  16  22
HETATM   22  C   UNK N   1      35.567  13.241   7.066  0.00  0.00     0.146 C 
HETATM   23  C   UNK N   1      36.563  13.794   8.072  0.00  0.00     0.028 C 
ENDBRANCH  16  22
ENDBRANCH  14  15
ENDBRANCH  13  14
ENDBRANCH   1  13
BRANCH   2  24
HETATM   24  C   UNK N   1      33.933  17.335   8.298  0.00  0.00    -0.020 C 
HETATM   25  C   UNK N   1      32.461  17.709   8.279  0.00  0.00     0.019 C 
HETATM   26  C   UNK N   1      34.246  16.742   6.929  0.00  0.00     0.019 C 
HETATM   27  C   UNK N   1      34.792  18.581   8.411  0.00  0.00     0.019 C 
ENDBRANCH   2  24
BRANCH   9  28
HETATM   28  C   UNK N   1      34.946  12.662  13.092  0.00  0.00     0.050 A 
HETATM   29  C   UNK N   1      34.876  11.585  12.195  0.00  0.00     0.018 A 
HETATM   30  C   UNK N   1      34.483  10.314  12.620  0.00  0.00     0.001 A 
HETATM   31  C   UNK N   1      34.157  10.093  13.955  0.00  0.00     0.003 A 
HETATM   32  C   UNK N   1      34.230  11.140  14.868  0.00  0.00     0.043 A 
HETATM   33  C   UNK N   1      34.619  12.417  14.458  0.00  0.00     0.130 A 
HETATM   34  F   UNK N   1      34.687  13.364  15.417  0.00  0.00    -0.205 F 
ENDBRANCH   9  28
TORSDOF 6
ENDMDL
MODEL 8
REMARK VINA RESULT:      -7.0      2.909      6.663
REMARK  6 active torsions:
REMARK  status: ('A' for Active; 'I' for Inactive)
REMARK    1  A    between atoms: C_2  and  N_3 
REMARK    2  A    between atoms: C_4  and  C_10 
REMARK    3  A    between atoms: C_10  and  O_11 
REMARK    4  A    between atoms: O_11  and  C_12 
REMARK    5  A    between atoms: C_13  and  C_31 
REMARK    6  A    between atoms: C_20  and  C_24 
ROOT
HETATM    1  C   UNK N   1      31.250  16.826   6.365  0.00  0.00     0.165 A 
HETATM    2  C   UNK N   1      31.638  16.463   7.714  0.00  0.00     0.005 A 
HETATM    3  C   UNK N   1      30.776  16.849   8.773  0.00  0.00     0.064 A 
HETATM    4  C   UNK N   1      29.627  17.558   8.459  0.00  0.00     0.144 A 
HETATM    5  N   UNK N   1      28.676  18.013   9.293  0.00  0.00    -0.282 N 
ATOM      6  HN  UNK N   1      28.657  17.913  10.308  1.00  0.00     0.188 HD
HETATM    7  N   UNK N   1      27.763  18.620   8.533  0.00  0.00    -0.282 N 
ATOM      8  HN  UNK N   1      26.908  19.070   8.862  1.00  0.00     0.188 HD
HETATM    9  C   UNK N   1      28.176  18.530   7.243  0.00  0.00     0.157 A 
HETATM   10  N   UNK N   1      29.339  17.860   7.200  0.00  0.00    -0.218 N 
HETATM   11  N   UNK N   1      30.093  17.508   6.178  0.00  0.00    -0.269 N 
ATOM     12  HN  UNK N   1      29.801  17.751   5.231  1.00  0.00     0.190 HD
ENDROOT
BRANCH   1  13
HETATM   13  O   UNK N   1      31.927  16.497   5.243  0.00  0.00    -0.327 OA
BRANCH  13  14
HETATM   14  C   UNK N   1      31.549  16.725   3.952  0.00  0.00     0.255 C 
BRANCH  14  15
HETATM   15  C   UNK N   1      31.044  15.445   3.390  0.00  0.00     0.123 A 
HETATM   16  N   UNK N   1      29.796  15.249   2.952  0.00  0.00    -0.278 N 
HETATM   17  N   UNK N   1      29.715  14.018   2.488  0.00  0.00    -0.293 N 
HETATM   18  C   UNK N   1      30.935  13.458   2.653  0.00  0.00     0.199 A 
ATOM     19  HN  UNK N   1      28.892  13.573   2.083  1.00  0.00     0.188 HD
HETATM   20  N   UNK N   1      31.792  14.339   3.221  0.00  0.00    -0.338 N 
ATOM     21  HN  UNK N   1      32.773  14.199   3.462  1.00  0.00     0.168 HD
BRANCH  16  22
HETATM   22  C   UNK N   1      28.695  16.202   2.948  0.00  0.00     0.146 C 
HETATM   23  C   UNK N   1      27.402  15.515   2.538  0.00  0.00     0.028 C 
ENDBRANCH  16  22
ENDBRANCH  14  15
ENDBRANCH  13  14
ENDBRANCH   1  13
BRANCH   2  24
HETATM   24  C   UNK N   1      32.888  15.645   8.048  0.00  0.00    -0.020 C 
HETATM   25  C   UNK N   1      32.880  14.334   7.280  0.00  0.00     0.019 C 
HETATM   26  C   UNK N   1      32.973  15.279   9.525  0.00  0.00     0.019 C 
HETATM   27  C   UNK N   1      34.153  16.425   7.745  0.00  0.00     0.019 C 
ENDBRANCH   2  24
BRANCH   9  28
HETATM   28  C   UNK N   1      27.402  19.096   6.091  0.00  0.00     0.050 A 
HETATM   29  C   UNK N   1      26.649  18.192   5.326  0.00  0.00     0.018 A 
HETATM   30  C   UNK N   1      25.902  18.619   4.227  0.00  0.00     0.001 A 
HETATM   31  C   UNK N   1      25.888  19.965   3.872  0.00  0.00     0.003 A 
HETATM   32  C   UNK N   1      26.614  20.886   4.621  0.00  0.00     0.043 A 
HETATM   33  C   UNK N   1      27.368  20.474   5.722  0.00  0.00     0.130 A 
HETATM   34  F   UNK N   1      28.018  21.438   6.405  0.00  0.00    -0.205 F 
ENDBRANCH   9  28
TORSDOF 6
ENDMDL
MODEL 9
REMARK VINA RESULT:      -7.0      5.954      9.897
REMARK  6 active torsions:
REMARK  status: ('A' for Active; 'I' for Inactive)
REMARK    1  A    between atoms: C_2  and  N_3 
REMARK    2  A    between atoms: C_4  and  C_10 
REMARK    3  A    between atoms: C_10  and  O_11 
REMARK    4  A    between atoms: O_11  and  C_12 
REMARK    5  A    between atoms: C_13  and  C_31 
REMARK    6  A    between atoms: C_20  and  C_24 
ROOT
HETATM    1  C   UNK N   1      24.697  15.769   3.161  0.00  0.00     0.165 A 
HETATM    2  C   UNK N   1      25.306  14.726   2.359  0.00  0.00     0.005 A 
HETATM    3  C   UNK N   1      26.713  14.768   2.181  0.00  0.00     0.064 A 
HETATM    4  C   UNK N   1      27.417  15.808   2.769  0.00  0.00     0.144 A 
HETATM    5  N   UNK N   1      28.741  16.038   2.737  0.00  0.00    -0.282 N 
ATOM      6  HN  UNK N   1      29.446  15.478   2.257  1.00  0.00     0.188 HD
HETATM    7  N   UNK N   1      28.952  17.143   3.456  0.00  0.00    -0.282 N 
ATOM      8  HN  UNK N   1      29.856  17.584   3.630  1.00  0.00     0.188 HD
HETATM    9  C   UNK N   1      27.749  17.573   3.911  0.00  0.00     0.157 A 
HETATM   10  N   UNK N   1      26.792  16.732   3.485  0.00  0.00    -0.218 N 
HETATM   11  N   UNK N   1      25.491  16.727   3.700  0.00  0.00    -0.269 N 
ATOM     12  HN  UNK N   1      25.075  17.455   4.281  1.00  0.00     0.190 HD
ENDROOT
BRANCH   1  13
HETATM   13  O   UNK N   1      23.384  15.850   3.469  0.00  0.00    -0.327 OA
BRANCH  13  14
HETATM   14  C   UNK N   1      22.804  16.648   4.411  0.00  0.00     0.255 C 
BRANCH  14  15
HETATM   15  C   UNK N   1      22.173  17.798   3.712  0.00  0.00     0.123 A 
HETATM   16  N   UNK N   1      21.055  17.722   2.983  0.00  0.00    -0.278 N 
HETATM   17  N   UNK N   1      20.767  18.933   2.549  0.00  0.00    -0.293 N 
HETATM   18  C   UNK N   1      21.732  19.755   3.020  0.00  0.00     0.199 A 
ATOM     19  HN  UNK N   1      19.971  19.199   1.969  1.00  0.00     0.188 HD
HETATM   20  N   UNK N   1      22.632  19.063   3.757  0.00  0.00    -0.338 N 
ATOM     21  HN  UNK N   1      23.460  19.416   4.235  1.00  0.00     0.168 HD
BRANCH  16  22
HETATM   22  C   UNK N   1      20.251  16.538   2.708  0.00  0.00     0.146 C 
HETATM   23  C   UNK N   1      20.595  15.972   1.340  0.00  0.00     0.028 C 
ENDBRANCH  16  22
ENDBRANCH  14  15
ENDBRANCH  13  14
ENDBRANCH   1  13
BRANCH   2  24
HETATM   24  C   UNK N   1      24.525  13.559   1.748  0.00  0.00    -0.020 C 
HETATM   25  C   UNK N   1      23.576  12.965   2.774  0.00  0.00     0.019 C 
HETATM   26  C   UNK N   1      25.431  12.422   1.290  0.00  0.00     0.019 C 
HETATM   27  C   UNK N   1      23.760  13.997   0.514  0.00  0.00     0.019 C 
ENDBRANCH   2  24
BRANCH   9  28
HETATM   28  C   UNK N   1      27.581  18.793   4.766  0.00  0.00     0.050 A 
HETATM   29  C   UNK N   1      27.928  18.672   6.121  0.00  0.00     0.018 A 
HETATM   30  C   UNK N   1      27.799  19.748   7.000  0.00  0.00     0.001 A 
HETATM   31  C   UNK N   1      27.324  20.973   6.541  0.00  0.00     0.003 A 
HETATM   32  C   UNK N   1      26.986  21.126   5.199  0.00  0.00     0.043 A 
HETATM   33  C   UNK N   1      27.108  20.058   4.308  0.00  0.00     0.130 A 
HETATM   34  F   UNK N   1      26.783  20.304   3.022  0.00  0.00    -0.205 F 
ENDBRANCH   9  28
TORSDOF 6
ENDMDL
