REMARK  4 active torsions:
REMARK  status: ('A' for Active; 'I' for Inactive)
REMARK    1  A    between atoms: C_21  and  C_16 
REMARK    2  A    between atoms: N_27  and  C_18 
REMARK    3  A    between atoms: N_32  and  C_19 
REMARK    4  A    between atoms: N_27  and  C_22 
ROOT
HETATM    1  C   UNK N   1      -2.034   1.019   0.565  0.00  0.00     0.107 A 
HETATM    2  C   UNK N   1      -1.239  -0.111   0.710  0.00  0.00     0.115 A 
HETATM    3  C   UNK N   1       1.172  -0.452   0.629  0.00  0.00     0.128 A 
HETATM    4  C   UNK N   1       2.389   0.229   0.458  0.00  0.00     0.060 A 
HETATM    5  C   UNK N   1       1.242   2.299   0.124  0.00  0.00     0.152 A 
HETATM    6  C   UNK N   1       0.021   1.600   0.329  0.00  0.00     0.156 A 
HETATM    7  N   UNK N   1      -1.236   2.087   0.336  0.00  0.00    -0.347 N 
ATOM      8  HN  UNK N   1      -1.524   3.055   0.198  1.00  0.00     0.167 HD
HETATM    9  N   UNK N   1       2.377   1.571   0.219  0.00  0.00    -0.338 N 
HETATM   10  N   UNK N   1       0.033   0.283   0.566  0.00  0.00    -0.312 N 
HETATM   11  H   UNK N   1       3.239   2.034   0.110  0.00  0.00     0.167 HD
ENDROOT
BRANCH   5  12
HETATM   12  N   UNK N   1       1.358   3.564  -0.133  0.00  0.00    -0.339 N 
ATOM     13  HN  UNK N   1       2.301   3.950  -0.167  1.00  0.00     0.167 HD
BRANCH  12  14
HETATM   14  C   UNK N   1       0.288   4.450  -0.371  0.00  0.00     0.033 A 
HETATM   15  C   UNK N   1       0.181   5.617   0.387  0.00  0.00     0.032 A 
HETATM   16  C   UNK N   1      -0.986   6.379   0.318  0.00  0.00     0.031 A 
HETATM   17  C   UNK N   1      -2.051   5.961  -0.500  0.00  0.00     0.030 A 
HETATM   18  C   UNK N   1      -1.882   4.849  -1.333  0.00  0.00     0.031 A 
HETATM   19  C   UNK N   1      -0.711   4.114  -1.288  0.00  0.00     0.032 A 
BRANCH  17  20
HETATM   20  N   UNK N   1      -3.320   6.599  -0.431  0.00  0.00    -0.377 N 
HETATM   21  C   UNK N   1      -3.509   7.818   0.328  0.00  0.00     0.149 C 
HETATM   22  C   UNK N   1      -4.633   7.593   1.345  0.00  0.00     0.187 C 
HETATM   23  O   UNK N   1      -5.785   7.114   0.689  0.00  0.00    -0.388 OA
HETATM   24  C   UNK N   1      -5.486   5.812   0.248  0.00  0.00     0.187 C 
HETATM   25  C   UNK N   1      -4.499   5.909  -0.915  0.00  0.00     0.149 C 
ENDBRANCH  17  20
ENDBRANCH  12  14
ENDBRANCH   5  12
BRANCH   4  26
HETATM   26  C   UNK N   1       3.688  -0.445   0.437  0.00  0.00    -0.006 A 
HETATM   27  C   UNK N   1       3.825  -1.857   0.501  0.00  0.00     0.015 A 
HETATM   28  C   UNK N   1       5.101  -2.448   0.368  0.00  0.00     0.016 A 
HETATM   29  C   UNK N   1       6.190  -1.598   0.173  0.00  0.00     0.009 A 
HETATM   30  C   UNK N   1       7.531  -1.841  -0.013  0.00  0.00     0.120 A 
HETATM   31  C   UNK N   1       6.049  -0.250   0.129  0.00  0.00     0.060 A 
HETATM   32  N   UNK N   1       8.144  -0.637  -0.159  0.00  0.00    -0.311 N 
HETATM   33  N   UNK N   1       7.237   0.331  -0.071  0.00  0.00    -0.300 N 
HETATM   34  H   UNK N   1       9.108  -0.502  -0.306  0.00  0.00     0.186 HD
ATOM     35  HN  UNK N   1       7.414   1.332  -0.144  1.00  0.00     0.187 HD
HETATM   36  C   UNK N   1       4.826   0.364   0.254  0.00  0.00     0.045 A 
ENDBRANCH   4  26
TORSDOF 4
