MODEL 1
REMARK VINA RESULT:      -7.1      0.000      0.000
REMARK  4 active torsions:
REMARK  status: ('A' for Active; 'I' for Inactive)
REMARK    1  A    between atoms: C_6  and  C_4 
REMARK    2  A    between atoms: C_17  and  C_6 
REMARK    3  A    between atoms: O_28  and  C_15 
REMARK    4  A    between atoms: O_29  and  C_16 
REMARK       I    between atoms: N_25  and  C_17 
REMARK       I    between atoms: N_26  and  C_19 
ROOT
HETATM    1  C   UNK N   1      34.365  17.282   8.404  0.00  0.00     0.040 C 
HETATM    2  C   UNK N   1      32.998  17.273   7.753  0.00  0.00     0.127 C 
HETATM    3  C   UNK N   1      34.260  16.725   9.807  0.00  0.00     0.143 C 
HETATM    4  C   UNK N   1      32.448  14.803   7.866  0.00  0.00     0.146 C 
HETATM    5  C   UNK N   1      32.518  14.996   9.371  0.00  0.00     0.161 C 
HETATM    6  C   UNK N   1      35.674  12.208  14.011  0.00  0.00     0.057 A 
HETATM    7  C   UNK N   1      36.512  14.855  13.702  0.00  0.00     0.070 A 
HETATM    8  C   UNK N   1      35.335  12.917  12.852  0.00  0.00     0.038 A 
HETATM    9  C   UNK N   1      35.757  14.246  12.710  0.00  0.00     0.066 A 
HETATM   10  C   UNK N   1      36.392  12.825  15.046  0.00  0.00     0.102 A 
HETATM   11  C   UNK N   1      36.829  14.170  14.883  0.00  0.00     0.103 A 
HETATM   12  C   UNK N   1      32.922  15.904   5.755  0.00  0.00     0.219 C 
HETATM   13  C   UNK N   1      34.527  12.364  11.846  0.00  0.00     0.127 A 
HETATM   14  C   UNK N   1      34.496  14.457  10.728  0.00  0.00     0.682 A 
HETATM   15  N   UNK N   1      34.116  11.154  11.920  0.00  0.00    -0.384 N 
ATOM     16  HN  UNK N   1      34.349  10.586  12.736  1.00  0.00     0.157 HD
HETATM   17  N   UNK N   1      35.349  14.975  11.649  0.00  0.00    -0.191 N 
ATOM     18  HN  UNK N   1      35.688  15.931  11.537  1.00  0.00     0.184 HD
HETATM   19  N   UNK N   1      34.104  13.156  10.824  0.00  0.00    -0.176 N 
HETATM   20  N   UNK N   1      32.779  15.996   7.104  0.00  0.00    -0.351 N 
HETATM   21  N   UNK N   1      33.855  15.335   9.818  0.00  0.00    -0.216 N 
HETATM   22  O   UNK N   1      32.719  14.843   5.180  0.00  0.00    -0.273 OA
HETATM   23  H   UNK N   1      33.575  10.771  11.193  0.00  0.00     0.157 HD
HETATM   24  H   UNK N   1      33.501  12.780  10.141  0.00  0.00     0.186 HD
ENDROOT
BRANCH  11  25
HETATM   25  O   UNK N   1      37.526  14.797  15.864  0.00  0.00    -0.353 OA
HETATM   26  C   UNK N   1      36.942  15.623  16.800  0.00  0.00     0.210 C 
ENDBRANCH  11  25
BRANCH  10  27
HETATM   27  O   UNK N   1      36.605  12.104  16.176  0.00  0.00    -0.353 OA
HETATM   28  C   UNK N   1      36.396  10.750  16.305  0.00  0.00     0.210 C 
ENDBRANCH  10  27
BRANCH  12  29
HETATM   29  C   UNK N   1      33.388  17.089   4.965  0.00  0.00     0.103 C 
BRANCH  29  30
HETATM   30  C   UNK N   1      32.264  17.689   4.156  0.00  0.00     0.005 C 
HETATM   31  C   UNK N   1      32.254  17.023   2.798  0.00  0.00     0.005 C 
ENDBRANCH  29  30
ENDBRANCH  12  29
TORSDOF 4
ENDMDL
MODEL 2
REMARK VINA RESULT:      -7.1      2.078      3.548
REMARK  4 active torsions:
REMARK  status: ('A' for Active; 'I' for Inactive)
REMARK    1  A    between atoms: C_6  and  C_4 
REMARK    2  A    between atoms: C_17  and  C_6 
REMARK    3  A    between atoms: O_28  and  C_15 
REMARK    4  A    between atoms: O_29  and  C_16 
REMARK       I    between atoms: N_25  and  C_17 
REMARK       I    between atoms: N_26  and  C_19 
ROOT
HETATM    1  C   UNK N   1      32.953  14.161   8.538  0.00  0.00     0.040 C 
HETATM    2  C   UNK N   1      33.695  15.059   7.572  0.00  0.00     0.127 C 
HETATM    3  C   UNK N   1      33.946  13.433   9.417  0.00  0.00     0.143 C 
HETATM    4  C   UNK N   1      34.951  16.545   9.195  0.00  0.00     0.146 C 
HETATM    5  C   UNK N   1      35.629  15.259   9.635  0.00  0.00     0.161 C 
HETATM    6  C   UNK N   1      36.429  12.386  15.146  0.00  0.00     0.057 A 
HETATM    7  C   UNK N   1      34.788  10.866  13.472  0.00  0.00     0.070 A 
HETATM    8  C   UNK N   1      35.870  12.967  14.001  0.00  0.00     0.038 A 
HETATM    9  C   UNK N   1      35.051  12.194  13.167  0.00  0.00     0.066 A 
HETATM   10  C   UNK N   1      36.215  11.031  15.440  0.00  0.00     0.102 A 
HETATM   11  C   UNK N   1      35.370  10.260  14.595  0.00  0.00     0.103 A 
HETATM   12  C   UNK N   1      33.124  17.399   7.841  0.00  0.00     0.219 C 
HETATM   13  C   UNK N   1      36.149  14.289  13.620  0.00  0.00     0.127 A 
HETATM   14  C   UNK N   1      34.942  13.957  11.604  0.00  0.00     0.682 A 
HETATM   15  N   UNK N   1      36.887  15.043  14.345  0.00  0.00    -0.384 N 
ATOM     16  HN  UNK N   1      37.306  14.675  15.200  1.00  0.00     0.157 HD
HETATM   17  N   UNK N   1      34.591  12.708  12.006  0.00  0.00    -0.191 N 
ATOM     18  HN  UNK N   1      33.970  12.149  11.420  1.00  0.00     0.184 HD
HETATM   19  N   UNK N   1      35.703  14.742  12.417  0.00  0.00    -0.176 N 
HETATM   20  N   UNK N   1      33.920  16.352   8.187  0.00  0.00    -0.351 N 
HETATM   21  N   UNK N   1      34.700  14.337  10.259  0.00  0.00    -0.216 N 
HETATM   22  O   UNK N   1      33.309  18.505   8.329  0.00  0.00    -0.273 OA
HETATM   23  H   UNK N   1      37.050  15.976  14.079  0.00  0.00     0.157 HD
HETATM   24  H   UNK N   1      35.937  15.654  12.129  0.00  0.00     0.186 HD
ENDROOT
BRANCH  11  25
HETATM   25  O   UNK N   1      35.140   8.948  14.851  0.00  0.00    -0.353 OA
HETATM   26  C   UNK N   1      35.913   7.929  14.337  0.00  0.00     0.210 C 
ENDBRANCH  11  25
BRANCH  10  27
HETATM   27  O   UNK N   1      36.864  10.515  16.516  0.00  0.00    -0.353 OA
HETATM   28  C   UNK N   1      36.333  10.394  17.780  0.00  0.00     0.210 C 
ENDBRANCH  10  27
BRANCH  12  29
HETATM   29  C   UNK N   1      31.975  17.193   6.903  0.00  0.00     0.103 C 
BRANCH  29  30
HETATM   30  C   UNK N   1      30.655  17.223   7.632  0.00  0.00     0.005 C 
HETATM   31  C   UNK N   1      29.552  17.017   6.618  0.00  0.00     0.005 C 
ENDBRANCH  29  30
ENDBRANCH  12  29
TORSDOF 4
ENDMDL
MODEL 3
REMARK VINA RESULT:      -7.0      3.619      5.047
REMARK  4 active torsions:
REMARK  status: ('A' for Active; 'I' for Inactive)
REMARK    1  A    between atoms: C_6  and  C_4 
REMARK    2  A    between atoms: C_17  and  C_6 
REMARK    3  A    between atoms: O_28  and  C_15 
REMARK    4  A    between atoms: O_29  and  C_16 
REMARK       I    between atoms: N_25  and  C_17 
REMARK       I    between atoms: N_26  and  C_19 
ROOT
HETATM    1  C   UNK N   1      29.382  17.944   8.818  0.00  0.00     0.040 C 
HETATM    2  C   UNK N   1      28.372  17.429   7.814  0.00  0.00     0.127 C 
HETATM    3  C   UNK N   1      30.371  16.848   9.149  0.00  0.00     0.143 C 
HETATM    4  C   UNK N   1      29.907  16.785   5.904  0.00  0.00     0.146 C 
HETATM    5  C   UNK N   1      30.497  15.794   6.894  0.00  0.00     0.161 C 
HETATM    6  C   UNK N   1      36.283  14.591   8.976  0.00  0.00     0.057 A 
HETATM    7  C   UNK N   1      34.682  15.589  11.037  0.00  0.00     0.070 A 
HETATM    8  C   UNK N   1      35.064  15.211   8.675  0.00  0.00     0.038 A 
HETATM    9  C   UNK N   1      34.267  15.704   9.718  0.00  0.00     0.066 A 
HETATM   10  C   UNK N   1      36.692  14.419  10.306  0.00  0.00     0.102 A 
HETATM   11  C   UNK N   1      35.883  14.938  11.356  0.00  0.00     0.103 A 
HETATM   12  C   UNK N   1      28.396  18.678   5.738  0.00  0.00     0.219 C 
HETATM   13  C   UNK N   1      34.575  15.303   7.363  0.00  0.00     0.127 A 
HETATM   14  C   UNK N   1      32.544  16.211   8.189  0.00  0.00     0.682 A 
HETATM   15  N   UNK N   1      35.261  14.873   6.371  0.00  0.00    -0.384 N 
ATOM     16  HN  UNK N   1      36.165  14.428   6.532  1.00  0.00     0.157 HD
HETATM   17  N   UNK N   1      33.043  16.209   9.453  0.00  0.00    -0.191 N 
ATOM     18  HN  UNK N   1      32.484  16.595  10.214  1.00  0.00     0.184 HD
HETATM   19  N   UNK N   1      33.315  15.774   7.155  0.00  0.00    -0.176 N 
HETATM   20  N   UNK N   1      28.874  17.638   6.471  0.00  0.00    -0.351 N 
HETATM   21  N   UNK N   1      31.160  16.455   8.001  0.00  0.00    -0.216 N 
HETATM   22  O   UNK N   1      28.786  18.861   4.593  0.00  0.00    -0.273 OA
HETATM   23  H   UNK N   1      34.917  14.972   5.454  0.00  0.00     0.157 HD
HETATM   24  H   UNK N   1      32.955  15.798   6.239  0.00  0.00     0.186 HD
ENDROOT
BRANCH  11  25
HETATM   25  O   UNK N   1      36.249  14.791  12.653  0.00  0.00    -0.353 OA
HETATM   26  C   UNK N   1      35.715  13.833  13.488  0.00  0.00     0.210 C 
ENDBRANCH  11  25
BRANCH  10  27
HETATM   27  O   UNK N   1      37.841  13.728  10.524  0.00  0.00    -0.353 OA
HETATM   28  C   UNK N   1      38.874  13.604   9.624  0.00  0.00     0.210 C 
ENDBRANCH  10  27
BRANCH  12  29
HETATM   29  C   UNK N   1      27.427  19.645   6.347  0.00  0.00     0.103 C 
BRANCH  29  30
HETATM   30  C   UNK N   1      27.604  21.033   5.782  0.00  0.00     0.005 C 
HETATM   31  C   UNK N   1      26.571  21.935   6.418  0.00  0.00     0.005 C 
ENDBRANCH  29  30
ENDBRANCH  12  29
TORSDOF 4
ENDMDL
MODEL 4
REMARK VINA RESULT:      -6.9      3.804      9.629
REMARK  4 active torsions:
REMARK  status: ('A' for Active; 'I' for Inactive)
REMARK    1  A    between atoms: C_6  and  C_4 
REMARK    2  A    between atoms: C_17  and  C_6 
REMARK    3  A    between atoms: O_28  and  C_15 
REMARK    4  A    between atoms: O_29  and  C_16 
REMARK       I    between atoms: N_25  and  C_17 
REMARK       I    between atoms: N_26  and  C_19 
ROOT
HETATM    1  C   UNK N   1      34.818  14.403   7.331  0.00  0.00     0.040 C 
HETATM    2  C   UNK N   1      35.095  13.526   8.533  0.00  0.00     0.127 C 
HETATM    3  C   UNK N   1      33.331  14.664   7.227  0.00  0.00     0.143 C 
HETATM    4  C   UNK N   1      34.147  14.970  10.387  0.00  0.00     0.146 C 
HETATM    5  C   UNK N   1      32.823  14.790   9.664  0.00  0.00     0.161 C 
HETATM    6  C   UNK N   1      28.467  18.710   7.446  0.00  0.00     0.057 A 
HETATM    7  C   UNK N   1      29.715  17.340   5.355  0.00  0.00     0.070 A 
HETATM    8  C   UNK N   1      29.665  18.024   7.678  0.00  0.00     0.038 A 
HETATM    9  C   UNK N   1      30.281  17.337   6.622  0.00  0.00     0.066 A 
HETATM   10  C   UNK N   1      27.856  18.680   6.184  0.00  0.00     0.102 A 
HETATM   11  C   UNK N   1      28.497  17.992   5.116  0.00  0.00     0.103 A 
HETATM   12  C   UNK N   1      36.535  14.596  10.161  0.00  0.00     0.219 C 
HETATM   13  C   UNK N   1      30.248  17.944   8.953  0.00  0.00     0.127 A 
HETATM   14  C   UNK N   1      31.880  16.443   8.108  0.00  0.00     0.682 A 
HETATM   15  N   UNK N   1      29.732  18.555   9.953  0.00  0.00    -0.384 N 
ATOM     16  HN  UNK N   1      28.868  19.085   9.836  1.00  0.00     0.157 HD
HETATM   17  N   UNK N   1      31.378  16.584   6.854  0.00  0.00    -0.191 N 
ATOM     18  HN  UNK N   1      31.837  16.113   6.074  1.00  0.00     0.184 HD
HETATM   19  N   UNK N   1      31.323  17.133   9.143  0.00  0.00    -0.176 N 
HETATM   20  N   UNK N   1      35.276  14.356   9.708  0.00  0.00    -0.351 N 
HETATM   21  N   UNK N   1      32.824  15.415   8.356  0.00  0.00    -0.216 N 
HETATM   22  O   UNK N   1      36.714  15.274  11.164  0.00  0.00    -0.273 OA
HETATM   23  H   UNK N   1      30.168  18.513  10.834  0.00  0.00     0.157 HD
HETATM   24  H   UNK N   1      31.705  17.042  10.046  0.00  0.00     0.186 HD
ENDROOT
BRANCH  11  25
HETATM   25  O   UNK N   1      27.935  17.944   3.883  0.00  0.00    -0.353 OA
HETATM   26  C   UNK N   1      27.051  16.962   3.490  0.00  0.00     0.210 C 
ENDBRANCH  11  25
BRANCH  10  27
HETATM   27  O   UNK N   1      26.650  19.292   6.058  0.00  0.00    -0.353 OA
HETATM   28  C   UNK N   1      26.458  20.648   5.922  0.00  0.00     0.210 C 
ENDBRANCH  10  27
BRANCH  12  29
HETATM   29  C   UNK N   1      37.720  14.080   9.403  0.00  0.00     0.103 C 
BRANCH  29  30
HETATM   30  C   UNK N   1      38.605  13.225  10.277  0.00  0.00     0.005 C 
HETATM   31  C   UNK N   1      38.125  11.794  10.175  0.00  0.00     0.005 C 
ENDBRANCH  29  30
ENDBRANCH  12  29
TORSDOF 4
ENDMDL
MODEL 5
REMARK VINA RESULT:      -6.8      7.819     11.759
REMARK  4 active torsions:
REMARK  status: ('A' for Active; 'I' for Inactive)
REMARK    1  A    between atoms: C_6  and  C_4 
REMARK    2  A    between atoms: C_17  and  C_6 
REMARK    3  A    between atoms: O_28  and  C_15 
REMARK    4  A    between atoms: O_29  and  C_16 
REMARK       I    between atoms: N_25  and  C_17 
REMARK       I    between atoms: N_26  and  C_19 
ROOT
HETATM    1  C   UNK N   1      23.357  15.198   6.678  0.00  0.00     0.040 C 
HETATM    2  C   UNK N   1      22.177  15.685   5.864  0.00  0.00     0.127 C 
HETATM    3  C   UNK N   1      24.607  15.228   5.826  0.00  0.00     0.143 C 
HETATM    4  C   UNK N   1      22.972  18.009   5.243  0.00  0.00     0.146 C 
HETATM    5  C   UNK N   1      24.090  17.283   4.514  0.00  0.00     0.161 C 
HETATM    6  C   UNK N   1      30.346  17.619   4.629  0.00  0.00     0.057 A 
HETATM    7  C   UNK N   1      29.473  15.150   5.604  0.00  0.00     0.070 A 
HETATM    8  C   UNK N   1      29.002  17.442   4.981  0.00  0.00     0.038 A 
HETATM    9  C   UNK N   1      28.575  16.198   5.466  0.00  0.00     0.066 A 
HETATM   10  C   UNK N   1      31.255  16.554   4.714  0.00  0.00     0.102 A 
HETATM   11  C   UNK N   1      30.814  15.300   5.222  0.00  0.00     0.103 A 
HETATM   12  C   UNK N   1      21.144  17.665   6.804  0.00  0.00     0.219 C 
HETATM   13  C   UNK N   1      28.044  18.453   4.808  0.00  0.00     0.127 A 
HETATM   14  C   UNK N   1      26.335  16.938   5.452  0.00  0.00     0.682 A 
HETATM   15  N   UNK N   1      28.376  19.611   4.373  0.00  0.00    -0.384 N 
ATOM     16  HN  UNK N   1      29.346  19.799   4.118  1.00  0.00     0.157 HD
HETATM   17  N   UNK N   1      27.264  15.981   5.709  0.00  0.00    -0.191 N 
ATOM     18  HN  UNK N   1      26.967  15.083   6.091  1.00  0.00     0.184 HD
HETATM   19  N   UNK N   1      26.730  18.168   5.020  0.00  0.00    -0.176 N 
HETATM   20  N   UNK N   1      22.075  17.127   5.972  0.00  0.00    -0.351 N 
HETATM   21  N   UNK N   1      24.965  16.572   5.424  0.00  0.00    -0.216 N 
HETATM   22  O   UNK N   1      21.022  18.879   6.895  0.00  0.00    -0.273 OA
HETATM   23  H   UNK N   1      27.698  20.318   4.285  0.00  0.00     0.157 HD
HETATM   24  H   UNK N   1      26.053  18.864   4.856  0.00  0.00     0.186 HD
ENDROOT
BRANCH  11  25
HETATM   25  O   UNK N   1      31.667  14.250   5.318  0.00  0.00    -0.353 OA
HETATM   26  C   UNK N   1      32.405  13.974   6.449  0.00  0.00     0.210 C 
ENDBRANCH  11  25
BRANCH  10  27
HETATM   27  O   UNK N   1      32.519  16.775   4.269  0.00  0.00    -0.353 OA
HETATM   28  C   UNK N   1      32.975  16.490   3.002  0.00  0.00     0.210 C 
ENDBRANCH  10  27
BRANCH  12  29
HETATM   29  C   UNK N   1      20.296  16.776   7.662  0.00  0.00     0.103 C 
BRANCH  29  30
HETATM   30  C   UNK N   1      19.619  17.554   8.763  0.00  0.00     0.005 C 
HETATM   31  C   UNK N   1      18.242  16.965   8.977  0.00  0.00     0.005 C 
ENDBRANCH  29  30
ENDBRANCH  12  29
TORSDOF 4
ENDMDL
MODEL 6
REMARK VINA RESULT:      -6.6      2.041      9.053
REMARK  4 active torsions:
REMARK  status: ('A' for Active; 'I' for Inactive)
REMARK    1  A    between atoms: C_6  and  C_4 
REMARK    2  A    between atoms: C_17  and  C_6 
REMARK    3  A    between atoms: O_28  and  C_15 
REMARK    4  A    between atoms: O_29  and  C_16 
REMARK       I    between atoms: N_25  and  C_17 
REMARK       I    between atoms: N_26  and  C_19 
ROOT
HETATM    1  C   UNK N   1      36.087  13.804  14.661  0.00  0.00     0.040 C 
HETATM    2  C   UNK N   1      36.774  12.529  15.099  0.00  0.00     0.127 C 
HETATM    3  C   UNK N   1      36.207  13.953  13.160  0.00  0.00     0.143 C 
HETATM    4  C   UNK N   1      35.468  10.817  13.764  0.00  0.00     0.146 C 
HETATM    5  C   UNK N   1      36.022  11.544  12.550  0.00  0.00     0.161 C 
HETATM    6  C   UNK N   1      33.470  14.148   7.454  0.00  0.00     0.057 A 
HETATM    7  C   UNK N   1      34.649  16.098   9.071  0.00  0.00     0.070 A 
HETATM    8  C   UNK N   1      33.822  13.841   8.774  0.00  0.00     0.038 A 
HETATM    9  C   UNK N   1      34.417  14.826   9.575  0.00  0.00     0.066 A 
HETATM   10  C   UNK N   1      33.746  15.413   6.914  0.00  0.00     0.102 A 
HETATM   11  C   UNK N   1      34.336  16.409   7.741  0.00  0.00     0.103 A 
HETATM   12  C   UNK N   1      35.262  10.973  16.178  0.00  0.00     0.219 C 
HETATM   13  C   UNK N   1      33.658  12.555   9.313  0.00  0.00     0.127 A 
HETATM   14  C   UNK N   1      34.775  13.246  11.289  0.00  0.00     0.682 A 
HETATM   15  N   UNK N   1      33.118  11.617   8.629  0.00  0.00    -0.384 N 
ATOM     16  HN  UNK N   1      32.826  11.792   7.667  1.00  0.00     0.157 HD
HETATM   17  N   UNK N   1      34.858  14.515  10.813  0.00  0.00    -0.191 N 
ATOM     18  HN  UNK N   1      35.260  15.246  11.401  1.00  0.00     0.184 HD
HETATM   19  N   UNK N   1      34.165  12.281  10.545  0.00  0.00    -0.176 N 
HETATM   20  N   UNK N   1      35.837  11.425  15.032  0.00  0.00    -0.351 N 
HETATM   21  N   UNK N   1      35.518  12.899  12.446  0.00  0.00    -0.216 N 
HETATM   22  O   UNK N   1      34.486  10.028  16.152  0.00  0.00    -0.273 OA
HETATM   23  H   UNK N   1      32.983  10.729   9.030  0.00  0.00     0.157 HD
HETATM   24  H   UNK N   1      34.089  11.368  10.906  0.00  0.00     0.186 HD
ENDROOT
BRANCH  11  25
HETATM   25  O   UNK N   1      34.615  17.643   7.251  0.00  0.00    -0.353 OA
HETATM   26  C   UNK N   1      34.641  18.780   8.029  0.00  0.00     0.210 C 
ENDBRANCH  11  25
BRANCH  10  27
HETATM   27  O   UNK N   1      33.460  15.608   5.600  0.00  0.00    -0.353 OA
HETATM   28  C   UNK N   1      32.254  16.053   5.109  0.00  0.00     0.210 C 
ENDBRANCH  10  27
BRANCH  12  29
HETATM   29  C   UNK N   1      35.529  11.667  17.479  0.00  0.00     0.103 C 
BRANCH  29  30
HETATM   30  C   UNK N   1      35.681  10.680  18.610  0.00  0.00     0.005 C 
HETATM   31  C   UNK N   1      35.454  11.417  19.911  0.00  0.00     0.005 C 
ENDBRANCH  29  30
ENDBRANCH  12  29
TORSDOF 4
ENDMDL
MODEL 7
REMARK VINA RESULT:      -6.6      4.344     10.466
REMARK  4 active torsions:
REMARK  status: ('A' for Active; 'I' for Inactive)
REMARK    1  A    between atoms: C_6  and  C_4 
REMARK    2  A    between atoms: C_17  and  C_6 
REMARK    3  A    between atoms: O_28  and  C_15 
REMARK    4  A    between atoms: O_29  and  C_16 
REMARK       I    between atoms: N_25  and  C_17 
REMARK       I    between atoms: N_26  and  C_19 
ROOT
HETATM    1  C   UNK N   1      33.295  17.103   8.771  0.00  0.00     0.040 C 
HETATM    2  C   UNK N   1      34.696  17.005   8.207  0.00  0.00     0.127 C 
HETATM    3  C   UNK N   1      32.416  17.876   7.812  0.00  0.00     0.143 C 
HETATM    4  C   UNK N   1      34.231  15.819   6.017  0.00  0.00     0.146 C 
HETATM    5  C   UNK N   1      33.412  17.053   5.680  0.00  0.00     0.161 C 
HETATM    6  C   UNK N   1      27.511  18.029   3.811  0.00  0.00     0.057 A 
HETATM    7  C   UNK N   1      27.923  19.085   6.365  0.00  0.00     0.070 A 
HETATM    8  C   UNK N   1      28.646  17.661   4.545  0.00  0.00     0.038 A 
HETATM    9  C   UNK N   1      28.844  18.200   5.824  0.00  0.00     0.066 A 
HETATM   10  C   UNK N   1      26.598  18.962   4.323  0.00  0.00     0.102 A 
HETATM   11  C   UNK N   1      26.801  19.491   5.629  0.00  0.00     0.103 A 
HETATM   12  C   UNK N   1      35.399  14.716   7.838  0.00  0.00     0.219 C 
HETATM   13  C   UNK N   1      29.634  16.813   4.020  0.00  0.00     0.127 A 
HETATM   14  C   UNK N   1      30.972  17.188   5.943  0.00  0.00     0.682 A 
HETATM   15  N   UNK N   1      29.505  16.288   2.859  0.00  0.00    -0.384 N 
ATOM     16  HN  UNK N   1      28.687  16.508   2.289  1.00  0.00     0.157 HD
HETATM   17  N   UNK N   1      29.984  17.938   6.499  0.00  0.00    -0.191 N 
ATOM     18  HN  UNK N   1      30.106  18.308   7.442  1.00  0.00     0.184 HD
HETATM   19  N   UNK N   1      30.785  16.621   4.719  0.00  0.00    -0.176 N 
HETATM   20  N   UNK N   1      34.796  15.835   7.357  0.00  0.00    -0.351 N 
HETATM   21  N   UNK N   1      32.256  17.196   6.544  0.00  0.00    -0.216 N 
HETATM   22  O   UNK N   1      35.517  13.723   7.132  0.00  0.00    -0.273 OA
HETATM   23  H   UNK N   1      30.192  15.672   2.517  0.00  0.00     0.157 HD
HETATM   24  H   UNK N   1      31.497  16.062   4.331  0.00  0.00     0.186 HD
ENDROOT
BRANCH  11  25
HETATM   25  O   UNK N   1      25.937  20.394   6.155  0.00  0.00    -0.353 OA
HETATM   26  C   UNK N   1      26.341  21.541   6.805  0.00  0.00     0.210 C 
ENDBRANCH  11  25
BRANCH  10  27
HETATM   27  O   UNK N   1      25.571  19.339   3.518  0.00  0.00    -0.353 OA
HETATM   28  C   UNK N   1      25.561  20.458   2.718  0.00  0.00     0.210 C 
ENDBRANCH  10  27
BRANCH  12  29
HETATM   29  C   UNK N   1      35.873  14.667   9.258  0.00  0.00     0.103 C 
BRANCH  29  30
HETATM   30  C   UNK N   1      34.994  13.780  10.104  0.00  0.00     0.005 C 
HETATM   31  C   UNK N   1      34.558  14.568  11.318  0.00  0.00     0.005 C 
ENDBRANCH  29  30
ENDBRANCH  12  29
TORSDOF 4
ENDMDL
MODEL 8
REMARK VINA RESULT:      -6.6      3.629      6.388
REMARK  4 active torsions:
REMARK  status: ('A' for Active; 'I' for Inactive)
REMARK    1  A    between atoms: C_6  and  C_4 
REMARK    2  A    between atoms: C_17  and  C_6 
REMARK    3  A    between atoms: O_28  and  C_15 
REMARK    4  A    between atoms: O_29  and  C_16 
REMARK       I    between atoms: N_25  and  C_17 
REMARK       I    between atoms: N_26  and  C_19 
ROOT
HETATM    1  C   UNK N   1      35.268  12.151  12.006  0.00  0.00     0.040 C 
HETATM    2  C   UNK N   1      36.258  13.126  11.407  0.00  0.00     0.127 C 
HETATM    3  C   UNK N   1      35.759  11.702  13.366  0.00  0.00     0.143 C 
HETATM    4  C   UNK N   1      36.252  14.938  13.178  0.00  0.00     0.146 C 
HETATM    5  C   UNK N   1      36.789  13.852  14.095  0.00  0.00     0.161 C 
HETATM    6  C   UNK N   1      35.045  11.546  19.655  0.00  0.00     0.057 A 
HETATM    7  C   UNK N   1      34.758   9.617  17.654  0.00  0.00     0.070 A 
HETATM    8  C   UNK N   1      35.079  11.927  18.307  0.00  0.00     0.038 A 
HETATM    9  C   UNK N   1      34.937  10.950  17.312  0.00  0.00     0.066 A 
HETATM   10  C   UNK N   1      34.917  10.197  20.015  0.00  0.00     0.102 A 
HETATM   11  C   UNK N   1      34.758   9.216  18.997  0.00  0.00     0.103 A 
HETATM   12  C   UNK N   1      35.285  15.304  10.981  0.00  0.00     0.219 C 
HETATM   13  C   UNK N   1      35.313  13.252  17.910  0.00  0.00     0.127 A 
HETATM   14  C   UNK N   1      35.388  12.554  15.643  0.00  0.00     0.682 A 
HETATM   15  N   UNK N   1      35.446  14.187  18.774  0.00  0.00    -0.384 N 
ATOM     16  HN  UNK N   1      35.412  13.968  19.770  1.00  0.00     0.157 HD
HETATM   17  N   UNK N   1      35.073  11.285  16.011  0.00  0.00    -0.191 N 
ATOM     18  HN  UNK N   1      34.937  10.574  15.292  1.00  0.00     0.184 HD
HETATM   19  N   UNK N   1      35.491  13.529  16.589  0.00  0.00    -0.176 N 
HETATM   20  N   UNK N   1      35.934  14.472  11.838  0.00  0.00    -0.351 N 
HETATM   21  N   UNK N   1      35.823  12.794  14.315  0.00  0.00    -0.216 N 
HETATM   22  O   UNK N   1      35.022  16.452  11.313  0.00  0.00    -0.273 OA
HETATM   23  H   UNK N   1      35.580  15.116  18.479  0.00  0.00     0.157 HD
HETATM   24  H   UNK N   1      35.699  14.451  16.314  0.00  0.00     0.186 HD
ENDROOT
BRANCH  11  25
HETATM   25  O   UNK N   1      34.631   7.902  19.311  0.00  0.00    -0.353 OA
HETATM   26  C   UNK N   1      33.419   7.298  19.569  0.00  0.00     0.210 C 
ENDBRANCH  11  25
BRANCH  10  27
HETATM   27  O   UNK N   1      34.985   9.894  21.338  0.00  0.00    -0.353 OA
HETATM   28  C   UNK N   1      33.914   9.874  22.203  0.00  0.00     0.210 C 
ENDBRANCH  10  27
BRANCH  12  29
HETATM   29  C   UNK N   1      34.833  14.805   9.643  0.00  0.00     0.103 C 
BRANCH  29  30
HETATM   30  C   UNK N   1      33.329  14.738   9.558  0.00  0.00     0.005 C 
HETATM   31  C   UNK N   1      32.860  15.834   8.627  0.00  0.00     0.005 C 
ENDBRANCH  29  30
ENDBRANCH  12  29
TORSDOF 4
ENDMDL
MODEL 9
REMARK VINA RESULT:      -6.4      2.125      3.627
REMARK  4 active torsions:
REMARK  status: ('A' for Active; 'I' for Inactive)
REMARK    1  A    between atoms: C_6  and  C_4 
REMARK    2  A    between atoms: C_17  and  C_6 
REMARK    3  A    between atoms: O_28  and  C_15 
REMARK    4  A    between atoms: O_29  and  C_16 
REMARK       I    between atoms: N_25  and  C_17 
REMARK       I    between atoms: N_26  and  C_19 
ROOT
HETATM    1  C   UNK N   1      33.881  12.537   8.514  0.00  0.00     0.040 C 
HETATM    2  C   UNK N   1      34.887  12.975   7.472  0.00  0.00     0.127 C 
HETATM    3  C   UNK N   1      34.607  12.122   9.775  0.00  0.00     0.143 C 
HETATM    4  C   UNK N   1      36.030  14.873   8.702  0.00  0.00     0.146 C 
HETATM    5  C   UNK N   1      36.450  13.798   9.689  0.00  0.00     0.161 C 
HETATM    6  C   UNK N   1      35.921  13.089  15.893  0.00  0.00     0.057 A 
HETATM    7  C   UNK N   1      34.406  11.164  14.549  0.00  0.00     0.070 A 
HETATM    8  C   UNK N   1      35.645  13.245  14.529  0.00  0.00     0.038 A 
HETATM    9  C   UNK N   1      34.887  12.271  13.864  0.00  0.00     0.066 A 
HETATM   10  C   UNK N   1      35.487  11.950  16.587  0.00  0.00     0.102 A 
HETATM   11  C   UNK N   1      34.705  10.976  15.905  0.00  0.00     0.103 A 
HETATM   12  C   UNK N   1      34.587  15.282   6.792  0.00  0.00     0.219 C 
HETATM   13  C   UNK N   1      36.154  14.318  13.780  0.00  0.00     0.127 A 
HETATM   14  C   UNK N   1      35.275  13.347  11.801  0.00  0.00     0.682 A 
HETATM   15  N   UNK N   1      36.849  15.239  14.334  0.00  0.00    -0.384 N 
ATOM     16  HN  UNK N   1      37.065  15.184  15.330  1.00  0.00     0.157 HD
HETATM   17  N   UNK N   1      34.702  12.353  12.529  0.00  0.00    -0.191 N 
ATOM     18  HN  UNK N   1      34.123  11.657  12.058  1.00  0.00     0.184 HD
HETATM   19  N   UNK N   1      35.982  14.327  12.430  0.00  0.00    -0.176 N 
HETATM   20  N   UNK N   1      35.170  14.387   7.634  0.00  0.00    -0.351 N 
HETATM   21  N   UNK N   1      35.317  13.224  10.389  0.00  0.00    -0.216 N 
HETATM   22  O   UNK N   1      34.827  16.477   6.893  0.00  0.00    -0.273 OA
HETATM   23  H   UNK N   1      37.174  15.999  13.802  0.00  0.00     0.157 HD
HETATM   24  H   UNK N   1      36.377  15.056  11.899  0.00  0.00     0.186 HD
ENDROOT
BRANCH  11  25
HETATM   25  O   UNK N   1      34.268   9.863  16.547  0.00  0.00    -0.353 OA
HETATM   26  C   UNK N   1      35.111   8.894  17.045  0.00  0.00     0.210 C 
ENDBRANCH  11  25
BRANCH  10  27
HETATM   27  O   UNK N   1      35.870  11.824  17.883  0.00  0.00    -0.353 OA
HETATM   28  C   UNK N   1      35.271  12.451  18.952  0.00  0.00     0.210 C 
ENDBRANCH  10  27
BRANCH  12  29
HETATM   29  C   UNK N   1      33.597  14.816   5.768  0.00  0.00     0.103 C 
BRANCH  29  30
HETATM   30  C   UNK N   1      34.116  15.022   4.366  0.00  0.00     0.005 C 
HETATM   31  C   UNK N   1      33.288  16.105   3.712  0.00  0.00     0.005 C 
ENDBRANCH  29  30
ENDBRANCH  12  29
TORSDOF 4
ENDMDL
