REMARK  7 active torsions:
REMARK  status: ('A' for Active; 'I' for Inactive)
REMARK    1  A    between atoms: N_2  and  C_4 
REMARK    2  A    between atoms: C_4  and  C_5 
REMARK    3  A    between atoms: C_5  and  C_6 
REMARK    4  A    between atoms: C_6  and  O_7 
REMARK    5  A    between atoms: O_7  and  C_8 
REMARK    6  A    between atoms: C_14  and  S_18 
REMARK    7  A    between atoms: S_18  and  C_21 
ROOT
HETATM    1  C   UNK N   1      -4.088  -2.135  -0.675  0.00  0.00     0.069 A 
HETATM    2  C   UNK N   1      -4.169  -0.736  -0.489  0.00  0.00     0.039 A 
HETATM    3  C   UNK N   1      -3.032   0.008  -0.130  0.00  0.00     0.034 A 
HETATM    4  C   UNK N   1      -1.837  -0.682   0.016  0.00  0.00     0.061 A 
HETATM    5  C   UNK N   1      -1.736  -2.025  -0.198  0.00  0.00     0.035 A 
HETATM    6  C   UNK N   1      -2.843  -2.799  -0.542  0.00  0.00     0.053 A 
HETATM    7  C   UNK N   1      -0.401  -2.316  -0.045  0.00  0.00     0.161 A 
HETATM    8  N   UNK N   1       0.252  -1.171   0.270  0.00  0.00    -0.289 N 
ATOM      9  HN  UNK N   1       1.253  -1.086   0.445  1.00  0.00     0.188 HD
HETATM   10  N   UNK N   1      -0.627  -0.176   0.314  0.00  0.00    -0.299 N 
HETATM   11  H   UNK N   1      -0.428   0.765   0.526  0.00  0.00     0.187 HD
ENDROOT
BRANCH   7  12
HETATM   12  S   UNK N   1       0.429  -3.860  -0.440  0.00  0.00     0.225 S 
HETATM   13  O   UNK N   1      -0.238  -4.131  -1.796  0.00  0.00    -0.216 OA
HETATM   14  O   UNK N   1       1.753  -3.409  -1.073  0.00  0.00    -0.216 OA
BRANCH  12  15
HETATM   15  C   UNK N   1       0.653  -5.582   0.089  0.00  0.00     0.076 A 
HETATM   16  C   UNK N   1      -0.488  -6.386   0.203  0.00  0.00     0.025 A 
HETATM   17  C   UNK N   1      -0.381  -7.747   0.501  0.00  0.00     0.002 A 
HETATM   18  C   UNK N   1       0.874  -8.332   0.670  0.00  0.00     0.012 A 
HETATM   19  C   UNK N   1       2.028  -7.557   0.563  0.00  0.00    -0.025 A 
HETATM   20  C   UNK N   1       1.931  -6.170   0.279  0.00  0.00    -0.004 A 
HETATM   21  C   UNK N   1       3.282  -8.158   0.716  0.00  0.00     0.012 A 
HETATM   22  C   UNK N   1       3.112  -5.420   0.168  0.00  0.00     0.014 A 
HETATM   23  C   UNK N   1       4.360  -6.027   0.330  0.00  0.00     0.001 A 
HETATM   24  C   UNK N   1       4.445  -7.394   0.599  0.00  0.00     0.001 A 
ENDBRANCH  12  15
ENDBRANCH   7  12
BRANCH   1  25
HETATM   25  O   UNK N   1      -5.223  -2.811  -0.948  0.00  0.00    -0.351 OA
BRANCH  25  26
HETATM   26  C   UNK N   1      -5.399  -4.140  -0.640  0.00  0.00     0.177 C 
BRANCH  26  27
HETATM   27  C   UNK N   1      -5.973  -4.263   0.775  0.00  0.00     0.057 C 
BRANCH  27  28
HETATM   28  C   UNK N   1      -7.099  -3.257   1.043  0.00  0.00     0.273 C 
BRANCH  28  29
HETATM   29  N   UNK N   1      -8.133  -3.333   0.019  0.00  0.00     0.080 N 
HETATM   30  C   UNK N   1      -8.957  -2.145   0.149  0.00  0.00     0.309 C 
HETATM   31  C   UNK N   1      -8.982  -4.474   0.318  0.00  0.00     0.309 C 
ENDBRANCH  28  29
ENDBRANCH  27  28
ENDBRANCH  26  27
ENDBRANCH  25  26
ENDBRANCH   1  25
TORSDOF 7
