MODEL 1
REMARK VINA RESULT:      -7.3      0.000      0.000
REMARK  10 active torsions:
REMARK  status: ('A' for Active; 'I' for Inactive)
REMARK    1  A    between atoms: C_2  and  C_3 
REMARK    2  A    between atoms: C_3  and  N_4 
REMARK    3  A    between atoms: N_7  and  C_26 
REMARK    4  A    between atoms: C_11  and  C_12 
REMARK    5  A    between atoms: C_15  and  O_19 
REMARK    6  A    between atoms: O_19  and  C_20 
REMARK    7  A    between atoms: C_20  and  C_21 
REMARK    8  A    between atoms: C_21  and  C_22 
REMARK    9  A    between atoms: C_21  and  O_24 
REMARK   10  A    between atoms: C_22  and  O_23 
ROOT
HETATM    1  N   UNK N   1      29.566  16.984   3.402  0.00  0.00    -0.370 N 
ATOM      2  HN  UNK N   1      28.872  17.445   2.815  1.00  0.00     0.161 HD
HETATM    3  C   UNK N   1      29.459  17.074   4.684  0.00  0.00     0.155 C 
HETATM    4  N   UNK N   1      28.447  17.854   5.326  0.00  0.00    -0.257 N 
HETATM    5  C   UNK N   1      28.726  18.025   6.647  0.00  0.00     0.271 C 
HETATM    6  O   UNK N   1      28.103  18.783   7.376  0.00  0.00    -0.266 OA
HETATM    7  C   UNK N   1      29.966  17.375   7.061  0.00  0.00     0.077 C 
HETATM    8  C   UNK N   1      30.656  17.644   8.191  0.00  0.00     0.036 C 
HETATM    9  S   UNK N   1      30.621  16.276   5.780  0.00  0.00    -0.048 SA
ENDROOT
BRANCH   8  10
HETATM   10  C   UNK N   1      32.015  17.083   8.286  0.00  0.00    -0.033 A 
HETATM   11  C   UNK N   1      33.115  17.923   8.429  0.00  0.00     0.014 A 
HETATM   12  C   UNK N   1      34.317  17.405   8.921  0.00  0.00     0.039 A 
HETATM   13  C   UNK N   1      34.424  16.062   9.314  0.00  0.00     0.090 A 
HETATM   14  C   UNK N   1      33.309  15.198   9.119  0.00  0.00     0.068 A 
HETATM   15  C   UNK N   1      32.129  15.727   8.612  0.00  0.00     0.038 A 
HETATM   16 Cl   UNK N   1      33.256  13.498   9.575  0.00  0.00    -0.081 Cl
BRANCH  13  17
HETATM   17  O   UNK N   1      35.589  15.679   9.898  0.00  0.00    -0.347 OA
BRANCH  17  18
HETATM   18  C   UNK N   1      35.973  15.943  11.191  0.00  0.00     0.209 C 
BRANCH  18  19
HETATM   19  C   UNK N   1      36.114  14.656  11.984  0.00  0.00     0.166 C 
BRANCH  19  20
HETATM   20  C   UNK N   1      36.725  13.541  11.148  0.00  0.00     0.198 C 
BRANCH  20  21
HETATM   21  O   UNK N   1      37.919  13.974  10.566  0.00  0.00    -0.398 OA
HETATM   22  H   UNK N   1      38.055  14.102   9.615  0.00  0.00     0.209 HD
ENDBRANCH  20  21
ENDBRANCH  19  20
BRANCH  19  23
HETATM   23  O   UNK N   1      34.851  14.259  12.423  0.00  0.00    -0.391 OA
HETATM   24  H   UNK N   1      34.539  13.342  12.384  0.00  0.00     0.210 HD
ENDBRANCH  19  23
ENDBRANCH  18  19
ENDBRANCH  17  18
ENDBRANCH  13  17
ENDBRANCH   8  10
BRANCH   4  25
HETATM   25  C   UNK N   1      27.380  18.497   4.594  0.00  0.00     0.050 A 
HETATM   26  C   UNK N   1      27.582  19.810   4.127  0.00  0.00     0.031 A 
HETATM   27  C   UNK N   1      26.607  20.492   3.406  0.00  0.00     0.002 A 
HETATM   28  C   UNK N   1      25.398  19.868   3.123  0.00  0.00     0.001 A 
HETATM   29  C   UNK N   1      25.172  18.560   3.549  0.00  0.00     0.009 A 
HETATM   30  C   UNK N   1      26.142  17.865   4.282  0.00  0.00    -0.035 A 
HETATM   31  C   UNK N   1      25.845  16.443   4.612  0.00  0.00     0.050 C 
ENDBRANCH   4  25
BRANCH   1  32
HETATM   32  C   UNK N   1      30.639  16.252   2.771  0.00  0.00     0.121 C 
BRANCH  32  33
HETATM   33  C   UNK N   1      31.861  17.144   2.664  0.00  0.00     0.015 C 
HETATM   34  C   UNK N   1      33.111  16.346   2.972  0.00  0.00     0.006 C 
ENDBRANCH  32  33
ENDBRANCH   1  32
TORSDOF 10
ENDMDL
MODEL 2
REMARK VINA RESULT:      -7.2      9.261     13.274
REMARK  10 active torsions:
REMARK  status: ('A' for Active; 'I' for Inactive)
REMARK    1  A    between atoms: C_2  and  C_3 
REMARK    2  A    between atoms: C_3  and  N_4 
REMARK    3  A    between atoms: N_7  and  C_26 
REMARK    4  A    between atoms: C_11  and  C_12 
REMARK    5  A    between atoms: C_15  and  O_19 
REMARK    6  A    between atoms: O_19  and  C_20 
REMARK    7  A    between atoms: C_20  and  C_21 
REMARK    8  A    between atoms: C_21  and  C_22 
REMARK    9  A    between atoms: C_21  and  O_24 
REMARK   10  A    between atoms: C_22  and  O_23 
ROOT
HETATM    1  N   UNK N   1      20.872  15.376   9.012  0.00  0.00    -0.370 N 
ATOM      2  HN  UNK N   1      21.129  15.129   9.967  1.00  0.00     0.161 HD
HETATM    3  C   UNK N   1      21.140  14.549   8.059  0.00  0.00     0.155 C 
HETATM    4  N   UNK N   1      21.850  13.325   8.269  0.00  0.00    -0.257 N 
HETATM    5  C   UNK N   1      22.260  12.789   7.088  0.00  0.00     0.271 C 
HETATM    6  O   UNK N   1      23.019  11.835   7.007  0.00  0.00    -0.266 OA
HETATM    7  C   UNK N   1      21.874  13.589   5.929  0.00  0.00     0.077 C 
HETATM    8  C   UNK N   1      22.412  13.495   4.693  0.00  0.00     0.036 C 
HETATM    9  S   UNK N   1      20.702  14.898   6.364  0.00  0.00    -0.048 SA
ENDROOT
BRANCH   8  10
HETATM   10  C   UNK N   1      22.081  14.571   3.744  0.00  0.00    -0.033 A 
HETATM   11  C   UNK N   1      20.947  14.480   2.943  0.00  0.00     0.014 A 
HETATM   12  C   UNK N   1      20.418  15.637   2.364  0.00  0.00     0.039 A 
HETATM   13  C   UNK N   1      20.984  16.898   2.610  0.00  0.00     0.090 A 
HETATM   14  C   UNK N   1      22.173  16.976   3.389  0.00  0.00     0.068 A 
HETATM   15  C   UNK N   1      22.694  15.814   3.941  0.00  0.00     0.038 A 
HETATM   16 Cl   UNK N   1      23.003  18.470   3.817  0.00  0.00    -0.081 Cl
BRANCH  13  17
HETATM   17  O   UNK N   1      20.330  17.979   2.110  0.00  0.00    -0.347 OA
BRANCH  17  18
HETATM   18  C   UNK N   1      19.700  18.956   2.844  0.00  0.00     0.209 C 
BRANCH  18  19
HETATM   19  C   UNK N   1      20.109  20.337   2.363  0.00  0.00     0.166 C 
BRANCH  19  20
HETATM   20  C   UNK N   1      21.149  20.264   1.255  0.00  0.00     0.198 C 
BRANCH  20  21
HETATM   21  O   UNK N   1      20.545  19.908   0.048  0.00  0.00    -0.398 OA
HETATM   22  H   UNK N   1      19.851  19.237  -0.046  0.00  0.00     0.209 HD
ENDBRANCH  20  21
ENDBRANCH  19  20
BRANCH  19  23
HETATM   23  O   UNK N   1      20.635  21.049   3.440  0.00  0.00    -0.391 OA
HETATM   24  H   UNK N   1      20.092  21.396   4.165  0.00  0.00     0.210 HD
ENDBRANCH  19  23
ENDBRANCH  18  19
ENDBRANCH  17  18
ENDBRANCH  13  17
ENDBRANCH   8  10
BRANCH   4  25
HETATM   25  C   UNK N   1      22.207  12.850   9.586  0.00  0.00     0.050 A 
HETATM   26  C   UNK N   1      21.188  12.347  10.418  0.00  0.00     0.031 A 
HETATM   27  C   UNK N   1      21.454  11.863  11.694  0.00  0.00     0.002 A 
HETATM   28  C   UNK N   1      22.759  11.861  12.173  0.00  0.00     0.001 A 
HETATM   29  C   UNK N   1      23.796  12.329  11.367  0.00  0.00     0.009 A 
HETATM   30  C   UNK N   1      23.542  12.826  10.083  0.00  0.00    -0.035 A 
HETATM   31  C   UNK N   1      24.725  13.218   9.267  0.00  0.00     0.050 C 
ENDBRANCH   4  25
BRANCH   1  32
HETATM   32  C   UNK N   1      20.221  16.642   8.769  0.00  0.00     0.121 C 
BRANCH  32  33
HETATM   33  C   UNK N   1      18.747  16.522   9.104  0.00  0.00     0.015 C 
HETATM   34  C   UNK N   1      18.204  17.870   9.530  0.00  0.00     0.006 C 
ENDBRANCH  32  33
ENDBRANCH   1  32
TORSDOF 10
ENDMDL
MODEL 3
REMARK VINA RESULT:      -7.2      4.943     10.826
REMARK  10 active torsions:
REMARK  status: ('A' for Active; 'I' for Inactive)
REMARK    1  A    between atoms: C_2  and  C_3 
REMARK    2  A    between atoms: C_3  and  N_4 
REMARK    3  A    between atoms: N_7  and  C_26 
REMARK    4  A    between atoms: C_11  and  C_12 
REMARK    5  A    between atoms: C_15  and  O_19 
REMARK    6  A    between atoms: O_19  and  C_20 
REMARK    7  A    between atoms: C_20  and  C_21 
REMARK    8  A    between atoms: C_21  and  C_22 
REMARK    9  A    between atoms: C_21  and  O_24 
REMARK   10  A    between atoms: C_22  and  O_23 
ROOT
HETATM    1  N   UNK N   1      29.845  17.153   7.179  0.00  0.00    -0.370 N 
ATOM      2  HN  UNK N   1      30.844  16.955   7.235  1.00  0.00     0.161 HD
HETATM    3  C   UNK N   1      29.169  16.680   6.188  0.00  0.00     0.155 C 
HETATM    4  N   UNK N   1      29.771  15.947   5.116  0.00  0.00    -0.257 N 
HETATM    5  C   UNK N   1      28.913  15.822   4.068  0.00  0.00     0.271 C 
HETATM    6  O   UNK N   1      29.241  15.380   2.977  0.00  0.00    -0.266 OA
HETATM    7  C   UNK N   1      27.620  16.457   4.305  0.00  0.00     0.077 C 
HETATM    8  C   UNK N   1      26.717  16.783   3.354  0.00  0.00     0.036 C 
HETATM    9  S   UNK N   1      27.413  16.962   6.030  0.00  0.00    -0.048 SA
ENDROOT
BRANCH   8  10
HETATM   10  C   UNK N   1      25.608  17.659   3.766  0.00  0.00    -0.033 A 
HETATM   11  C   UNK N   1      25.595  19.001   3.396  0.00  0.00     0.014 A 
HETATM   12  C   UNK N   1      24.392  19.712   3.425  0.00  0.00     0.039 A 
HETATM   13  C   UNK N   1      23.185  19.087   3.780  0.00  0.00     0.090 A 
HETATM   14  C   UNK N   1      23.216  17.728   4.205  0.00  0.00     0.068 A 
HETATM   15  C   UNK N   1      24.423  17.043   4.186  0.00  0.00     0.038 A 
HETATM   16 Cl   UNK N   1      21.802  16.781   4.660  0.00  0.00    -0.081 Cl
BRANCH  13  17
HETATM   17  O   UNK N   1      22.049  19.820   3.658  0.00  0.00    -0.347 OA
BRANCH  17  18
HETATM   18  C   UNK N   1      21.704  20.607   2.585  0.00  0.00     0.209 C 
BRANCH  18  19
HETATM   19  C   UNK N   1      20.401  20.133   1.966  0.00  0.00     0.166 C 
BRANCH  19  20
HETATM   20  C   UNK N   1      19.758  19.024   2.785  0.00  0.00     0.198 C 
BRANCH  20  21
HETATM   21  O   UNK N   1      18.431  18.839   2.391  0.00  0.00    -0.398 OA
HETATM   22  H   UNK N   1      18.154  18.431   1.556  0.00  0.00     0.209 HD
ENDBRANCH  20  21
ENDBRANCH  19  20
BRANCH  19  23
HETATM   23  O   UNK N   1      20.663  19.659   0.681  0.00  0.00    -0.391 OA
HETATM   24  H   UNK N   1      20.293  20.063  -0.120  0.00  0.00     0.210 HD
ENDBRANCH  19  23
ENDBRANCH  18  19
ENDBRANCH  17  18
ENDBRANCH  13  17
ENDBRANCH   8  10
BRANCH   4  25
HETATM   25  C   UNK N   1      31.163  15.561   5.125  0.00  0.00     0.050 A 
HETATM   26  C   UNK N   1      31.496  14.258   5.546  0.00  0.00     0.031 A 
HETATM   27  C   UNK N   1      32.812  13.810   5.573  0.00  0.00     0.002 A 
HETATM   28  C   UNK N   1      33.837  14.655   5.167  0.00  0.00     0.001 A 
HETATM   29  C   UNK N   1      33.542  15.943   4.720  0.00  0.00     0.009 A 
HETATM   30  C   UNK N   1      32.223  16.411   4.695  0.00  0.00    -0.035 A 
HETATM   31  C   UNK N   1      32.000  17.765   4.117  0.00  0.00     0.050 C 
ENDBRANCH   4  25
BRANCH   1  32
HETATM   32  C   UNK N   1      29.233  17.954   8.213  0.00  0.00     0.121 C 
BRANCH  32  33
HETATM   33  C   UNK N   1      30.315  18.626   9.036  0.00  0.00     0.015 C 
HETATM   34  C   UNK N   1      31.675  18.101   8.627  0.00  0.00     0.006 C 
ENDBRANCH  32  33
ENDBRANCH   1  32
TORSDOF 10
ENDMDL
MODEL 4
REMARK VINA RESULT:      -7.2      2.582      4.784
REMARK  10 active torsions:
REMARK  status: ('A' for Active; 'I' for Inactive)
REMARK    1  A    between atoms: C_2  and  C_3 
REMARK    2  A    between atoms: C_3  and  N_4 
REMARK    3  A    between atoms: N_7  and  C_26 
REMARK    4  A    between atoms: C_11  and  C_12 
REMARK    5  A    between atoms: C_15  and  O_19 
REMARK    6  A    between atoms: O_19  and  C_20 
REMARK    7  A    between atoms: C_20  and  C_21 
REMARK    8  A    between atoms: C_21  and  C_22 
REMARK    9  A    between atoms: C_21  and  O_24 
REMARK   10  A    between atoms: C_22  and  O_23 
ROOT
HETATM    1  N   UNK N   1      26.646  19.162   6.006  0.00  0.00    -0.370 N 
ATOM      2  HN  UNK N   1      25.641  19.242   6.159  1.00  0.00     0.161 HD
HETATM    3  C   UNK N   1      27.072  18.478   4.999  0.00  0.00     0.155 C 
HETATM    4  N   UNK N   1      26.198  17.763   4.121  0.00  0.00    -0.257 N 
HETATM    5  C   UNK N   1      26.896  16.896   3.337  0.00  0.00     0.271 C 
HETATM    6  O   UNK N   1      26.368  16.060   2.620  0.00  0.00    -0.266 OA
HETATM    7  C   UNK N   1      28.334  16.923   3.590  0.00  0.00     0.077 C 
HETATM    8  C   UNK N   1      29.215  15.968   3.222  0.00  0.00     0.036 C 
HETATM    9  S   UNK N   1      28.814  18.309   4.650  0.00  0.00    -0.048 SA
ENDROOT
BRANCH   8  10
HETATM   10  C   UNK N   1      30.563  16.049   3.810  0.00  0.00    -0.033 A 
HETATM   11  C   UNK N   1      31.476  16.994   3.351  0.00  0.00     0.014 A 
HETATM   12  C   UNK N   1      32.567  17.343   4.152  0.00  0.00     0.039 A 
HETATM   13  C   UNK N   1      32.737  16.790   5.431  0.00  0.00     0.090 A 
HETATM   14  C   UNK N   1      31.826  15.788   5.872  0.00  0.00     0.068 A 
HETATM   15  C   UNK N   1      30.759  15.441   5.055  0.00  0.00     0.038 A 
HETATM   16 Cl   UNK N   1      31.872  15.006   7.450  0.00  0.00    -0.081 Cl
BRANCH  13  17
HETATM   17  O   UNK N   1      33.752  17.281   6.188  0.00  0.00    -0.347 OA
BRANCH  17  18
HETATM   18  C   UNK N   1      33.621  18.049   7.321  0.00  0.00     0.209 C 
BRANCH  18  19
HETATM   19  C   UNK N   1      34.850  17.920   8.204  0.00  0.00     0.166 C 
BRANCH  19  20
HETATM   20  C   UNK N   1      34.556  17.125   9.468  0.00  0.00     0.198 C 
BRANCH  20  21
HETATM   21  O   UNK N   1      35.563  17.331  10.413  0.00  0.00    -0.398 OA
HETATM   22  H   UNK N   1      36.023  16.626  10.894  0.00  0.00     0.209 HD
ENDBRANCH  20  21
ENDBRANCH  19  20
BRANCH  19  23
HETATM   23  O   UNK N   1      35.284  19.197   8.557  0.00  0.00    -0.391 OA
HETATM   24  H   UNK N   1      35.741  19.392   9.390  0.00  0.00     0.210 HD
ENDBRANCH  19  23
ENDBRANCH  18  19
ENDBRANCH  17  18
ENDBRANCH  13  17
ENDBRANCH   8  10
BRANCH   4  25
HETATM   25  C   UNK N   1      24.760  17.856   4.210  0.00  0.00     0.050 A 
HETATM   26  C   UNK N   1      24.059  16.827   4.868  0.00  0.00     0.031 A 
HETATM   27  C   UNK N   1      22.675  16.851   5.003  0.00  0.00     0.002 A 
HETATM   28  C   UNK N   1      21.950  17.919   4.488  0.00  0.00     0.001 A 
HETATM   29  C   UNK N   1      22.613  18.968   3.853  0.00  0.00     0.009 A 
HETATM   30  C   UNK N   1      24.005  18.953   3.702  0.00  0.00    -0.035 A 
HETATM   31  C   UNK N   1      24.629  20.161   3.091  0.00  0.00     0.050 C 
ENDBRANCH   4  25
BRANCH   1  32
HETATM   32  C   UNK N   1      27.547  19.816   6.926  0.00  0.00     0.121 C 
BRANCH  32  33
HETATM   33  C   UNK N   1      27.600  21.298   6.610  0.00  0.00     0.015 C 
HETATM   34  C   UNK N   1      26.230  21.915   6.798  0.00  0.00     0.006 C 
ENDBRANCH  32  33
ENDBRANCH   1  32
TORSDOF 10
ENDMDL
MODEL 5
REMARK VINA RESULT:      -7.0      2.609      4.538
REMARK  10 active torsions:
REMARK  status: ('A' for Active; 'I' for Inactive)
REMARK    1  A    between atoms: C_2  and  C_3 
REMARK    2  A    between atoms: C_3  and  N_4 
REMARK    3  A    between atoms: N_7  and  C_26 
REMARK    4  A    between atoms: C_11  and  C_12 
REMARK    5  A    between atoms: C_15  and  O_19 
REMARK    6  A    between atoms: O_19  and  C_20 
REMARK    7  A    between atoms: C_20  and  C_21 
REMARK    8  A    between atoms: C_21  and  C_22 
REMARK    9  A    between atoms: C_21  and  O_24 
REMARK   10  A    between atoms: C_22  and  O_23 
ROOT
HETATM    1  N   UNK N   1      27.326  18.401   6.796  0.00  0.00    -0.370 N 
ATOM      2  HN  UNK N   1      26.329  18.380   7.007  1.00  0.00     0.161 HD
HETATM    3  C   UNK N   1      27.729  18.002   5.637  0.00  0.00     0.155 C 
HETATM    4  N   UNK N   1      26.844  17.461   4.652  0.00  0.00    -0.257 N 
HETATM    5  C   UNK N   1      27.538  16.850   3.654  0.00  0.00     0.271 C 
HETATM    6  O   UNK N   1      27.013  16.175   2.782  0.00  0.00    -0.266 OA
HETATM    7  C   UNK N   1      28.985  16.906   3.844  0.00  0.00     0.077 C 
HETATM    8  C   UNK N   1      29.891  16.122   3.221  0.00  0.00     0.036 C 
HETATM    9  S   UNK N   1      29.455  18.029   5.183  0.00  0.00    -0.048 SA
ENDROOT
BRANCH   8  10
HETATM   10  C   UNK N   1      31.264  16.145   3.752  0.00  0.00    -0.033 A 
HETATM   11  C   UNK N   1      32.041  17.296   3.645  0.00  0.00     0.014 A 
HETATM   12  C   UNK N   1      33.149  17.458   4.483  0.00  0.00     0.039 A 
HETATM   13  C   UNK N   1      33.469  16.502   5.460  0.00  0.00     0.090 A 
HETATM   14  C   UNK N   1      32.699  15.307   5.529  0.00  0.00     0.068 A 
HETATM   15  C   UNK N   1      31.613  15.155   4.677  0.00  0.00     0.038 A 
HETATM   16 Cl   UNK N   1      32.941  14.016   6.702  0.00  0.00    -0.081 Cl
BRANCH  13  17
HETATM   17  O   UNK N   1      34.484  16.803   6.311  0.00  0.00    -0.347 OA
BRANCH  17  18
HETATM   18  C   UNK N   1      34.580  16.416   7.626  0.00  0.00     0.209 C 
BRANCH  18  19
HETATM   19  C   UNK N   1      33.740  17.316   8.515  0.00  0.00     0.166 C 
BRANCH  19  20
HETATM   20  C   UNK N   1      33.959  18.788   8.197  0.00  0.00     0.198 C 
BRANCH  20  21
HETATM   21  O   UNK N   1      35.292  19.138   8.422  0.00  0.00    -0.398 OA
HETATM   22  H   UNK N   1      35.848  18.772   9.127  0.00  0.00     0.209 HD
ENDBRANCH  20  21
ENDBRANCH  19  20
BRANCH  19  23
HETATM   23  O   UNK N   1      34.084  17.080   9.845  0.00  0.00    -0.391 OA
HETATM   24  H   UNK N   1      34.690  16.374  10.120  0.00  0.00     0.210 HD
ENDBRANCH  19  23
ENDBRANCH  18  19
ENDBRANCH  17  18
ENDBRANCH  13  17
ENDBRANCH   8  10
BRANCH   4  25
HETATM   25  C   UNK N   1      25.409  17.441   4.823  0.00  0.00     0.050 A 
HETATM   26  C   UNK N   1      24.830  16.358   5.512  0.00  0.00     0.031 A 
HETATM   27  C   UNK N   1      23.458  16.272   5.725  0.00  0.00     0.002 A 
HETATM   28  C   UNK N   1      22.624  17.282   5.260  0.00  0.00     0.001 A 
HETATM   29  C   UNK N   1      23.165  18.382   4.596  0.00  0.00     0.009 A 
HETATM   30  C   UNK N   1      24.543  18.477   4.367  0.00  0.00    -0.035 A 
HETATM   31  C   UNK N   1      25.035  19.732   3.732  0.00  0.00     0.050 C 
ENDBRANCH   4  25
BRANCH   1  32
HETATM   32  C   UNK N   1      28.244  18.874   7.806  0.00  0.00     0.121 C 
BRANCH  32  33
HETATM   33  C   UNK N   1      28.110  18.017   9.050  0.00  0.00     0.015 C 
HETATM   34  C   UNK N   1      29.462  17.851   9.711  0.00  0.00     0.006 C 
ENDBRANCH  32  33
ENDBRANCH   1  32
TORSDOF 10
ENDMDL
MODEL 6
REMARK VINA RESULT:      -6.8      3.960      9.711
REMARK  10 active torsions:
REMARK  status: ('A' for Active; 'I' for Inactive)
REMARK    1  A    between atoms: C_2  and  C_3 
REMARK    2  A    between atoms: C_3  and  N_4 
REMARK    3  A    between atoms: N_7  and  C_26 
REMARK    4  A    between atoms: C_11  and  C_12 
REMARK    5  A    between atoms: C_15  and  O_19 
REMARK    6  A    between atoms: O_19  and  C_20 
REMARK    7  A    between atoms: C_20  and  C_21 
REMARK    8  A    between atoms: C_21  and  C_22 
REMARK    9  A    between atoms: C_21  and  O_24 
REMARK   10  A    between atoms: C_22  and  O_23 
ROOT
HETATM    1  N   UNK N   1      34.090  12.537   9.966  0.00  0.00    -0.370 N 
ATOM      2  HN  UNK N   1      34.390  11.991  10.773  1.00  0.00     0.161 HD
HETATM    3  C   UNK N   1      34.629  13.690   9.757  0.00  0.00     0.155 C 
HETATM    4  N   UNK N   1      35.583  14.275  10.648  0.00  0.00    -0.257 N 
HETATM    5  C   UNK N   1      35.769  15.593  10.368  0.00  0.00     0.271 C 
HETATM    6  O   UNK N   1      36.408  16.351  11.081  0.00  0.00    -0.266 OA
HETATM    7  C   UNK N   1      34.961  16.061   9.245  0.00  0.00     0.077 C 
HETATM    8  C   UNK N   1      34.684  17.352   8.959  0.00  0.00     0.036 C 
HETATM    9  S   UNK N   1      34.175  14.696   8.354  0.00  0.00    -0.048 SA
ENDROOT
BRANCH   8  10
HETATM   10  C   UNK N   1      33.633  17.598   7.957  0.00  0.00    -0.033 A 
HETATM   11  C   UNK N   1      33.923  17.515   6.598  0.00  0.00     0.014 A 
HETATM   12  C   UNK N   1      32.881  17.342   5.682  0.00  0.00     0.039 A 
HETATM   13  C   UNK N   1      31.551  17.206   6.110  0.00  0.00     0.090 A 
HETATM   14  C   UNK N   1      31.258  17.341   7.497  0.00  0.00     0.068 A 
HETATM   15  C   UNK N   1      32.304  17.531   8.390  0.00  0.00     0.038 A 
HETATM   16 Cl   UNK N   1      29.657  17.176   8.211  0.00  0.00    -0.081 Cl
BRANCH  13  17
HETATM   17  O   UNK N   1      30.623  16.913   5.162  0.00  0.00    -0.347 OA
BRANCH  17  18
HETATM   18  C   UNK N   1      30.337  15.664   4.665  0.00  0.00     0.209 C 
BRANCH  18  19
HETATM   19  C   UNK N   1      30.726  15.566   3.201  0.00  0.00     0.166 C 
BRANCH  19  20
HETATM   20  C   UNK N   1      32.069  14.874   3.018  0.00  0.00     0.198 C 
BRANCH  20  21
HETATM   21  O   UNK N   1      33.024  15.786   2.562  0.00  0.00    -0.398 OA
HETATM   22  H   UNK N   1      33.942  15.826   2.870  0.00  0.00     0.209 HD
ENDBRANCH  20  21
ENDBRANCH  19  20
BRANCH  19  23
HETATM   23  O   UNK N   1      30.797  16.853   2.669  0.00  0.00    -0.391 OA
HETATM   24  H   UNK N   1      31.628  17.264   2.381  0.00  0.00     0.210 HD
ENDBRANCH  19  23
ENDBRANCH  18  19
ENDBRANCH  17  18
ENDBRANCH  13  17
ENDBRANCH   8  10
BRANCH   4  25
HETATM   25  C   UNK N   1      36.120  13.565  11.786  0.00  0.00     0.050 A 
HETATM   26  C   UNK N   1      35.495  13.729  13.037  0.00  0.00     0.031 A 
HETATM   27  C   UNK N   1      35.948  13.071  14.176  0.00  0.00     0.002 A 
HETATM   28  C   UNK N   1      37.041  12.218  14.090  0.00  0.00     0.001 A 
HETATM   29  C   UNK N   1      37.669  12.012  12.863  0.00  0.00     0.009 A 
HETATM   30  C   UNK N   1      37.229  12.673  11.710  0.00  0.00    -0.035 A 
HETATM   31  C   UNK N   1      37.906  12.319  10.431  0.00  0.00     0.050 C 
ENDBRANCH   4  25
BRANCH   1  32
HETATM   32  C   UNK N   1      33.074  11.995   9.095  0.00  0.00     0.121 C 
BRANCH  32  33
HETATM   33  C   UNK N   1      32.750  10.576   9.520  0.00  0.00     0.015 C 
HETATM   34  C   UNK N   1      33.610  10.183  10.703  0.00  0.00     0.006 C 
ENDBRANCH  32  33
ENDBRANCH   1  32
TORSDOF 10
ENDMDL
MODEL 7
REMARK VINA RESULT:      -6.7      3.720     10.252
REMARK  10 active torsions:
REMARK  status: ('A' for Active; 'I' for Inactive)
REMARK    1  A    between atoms: C_2  and  C_3 
REMARK    2  A    between atoms: C_3  and  N_4 
REMARK    3  A    between atoms: N_7  and  C_26 
REMARK    4  A    between atoms: C_11  and  C_12 
REMARK    5  A    between atoms: C_15  and  O_19 
REMARK    6  A    between atoms: O_19  and  C_20 
REMARK    7  A    between atoms: C_20  and  C_21 
REMARK    8  A    between atoms: C_21  and  C_22 
REMARK    9  A    between atoms: C_21  and  O_24 
REMARK   10  A    between atoms: C_22  and  O_23 
ROOT
HETATM    1  N   UNK N   1      34.086  11.745  10.479  0.00  0.00    -0.370 N 
ATOM      2  HN  UNK N   1      34.477  11.328  11.323  1.00  0.00     0.161 HD
HETATM    3  C   UNK N   1      34.416  12.953  10.169  0.00  0.00     0.155 C 
HETATM    4  N   UNK N   1      35.253  13.766  10.997  0.00  0.00    -0.257 N 
HETATM    5  C   UNK N   1      35.206  15.069  10.608  0.00  0.00     0.271 C 
HETATM    6  O   UNK N   1      35.704  15.983  11.249  0.00  0.00    -0.266 OA
HETATM    7  C   UNK N   1      34.329  15.296   9.463  0.00  0.00     0.077 C 
HETATM    8  C   UNK N   1      33.831  16.492   9.078  0.00  0.00     0.036 C 
HETATM    9  S   UNK N   1      33.793  13.747   8.697  0.00  0.00    -0.048 SA
ENDROOT
BRANCH   8  10
HETATM   10  C   UNK N   1      32.753  16.468   8.075  0.00  0.00    -0.033 A 
HETATM   11  C   UNK N   1      31.420  16.435   8.474  0.00  0.00     0.014 A 
HETATM   12  C   UNK N   1      30.422  16.819   7.574  0.00  0.00     0.039 A 
HETATM   13  C   UNK N   1      30.742  17.279   6.286  0.00  0.00     0.090 A 
HETATM   14  C   UNK N   1      32.103  17.263   5.869  0.00  0.00     0.068 A 
HETATM   15  C   UNK N   1      33.079  16.861   6.772  0.00  0.00     0.038 A 
HETATM   16 Cl   UNK N   1      32.687  17.825   4.306  0.00  0.00    -0.081 Cl
BRANCH  13  17
HETATM   17  O   UNK N   1      29.719  17.751   5.526  0.00  0.00    -0.347 OA
BRANCH  17  18
HETATM   18  C   UNK N   1      28.400  17.378   5.621  0.00  0.00     0.209 C 
BRANCH  18  19
HETATM   19  C   UNK N   1      27.519  18.585   5.894  0.00  0.00     0.166 C 
BRANCH  19  20
HETATM   20  C   UNK N   1      27.942  19.791   5.069  0.00  0.00     0.198 C 
BRANCH  20  21
HETATM   21  O   UNK N   1      28.137  19.421   3.736  0.00  0.00    -0.398 OA
HETATM   22  H   UNK N   1      28.313  18.516   3.435  0.00  0.00     0.209 HD
ENDBRANCH  20  21
ENDBRANCH  19  20
BRANCH  19  23
HETATM   23  O   UNK N   1      27.603  18.904   7.249  0.00  0.00    -0.391 OA
HETATM   24  H   UNK N   1      27.411  19.788   7.600  0.00  0.00     0.210 HD
ENDBRANCH  19  23
ENDBRANCH  18  19
ENDBRANCH  17  18
ENDBRANCH  13  17
ENDBRANCH   8  10
BRANCH   4  25
HETATM   25  C   UNK N   1      35.907  13.256  12.180  0.00  0.00     0.050 A 
HETATM   26  C   UNK N   1      35.289  13.459  13.429  0.00  0.00     0.031 A 
HETATM   27  C   UNK N   1      35.851  12.990  14.611  0.00  0.00     0.002 A 
HETATM   28  C   UNK N   1      37.051  12.290  14.574  0.00  0.00     0.001 A 
HETATM   29  C   UNK N   1      37.678  12.049  13.352  0.00  0.00     0.009 A 
HETATM   30  C   UNK N   1      37.128  12.522  12.155  0.00  0.00    -0.035 A 
HETATM   31  C   UNK N   1      37.823  12.136  10.895  0.00  0.00     0.050 C 
ENDBRANCH   4  25
BRANCH   1  32
HETATM   32  C   UNK N   1      33.180  10.966   9.669  0.00  0.00     0.121 C 
BRANCH  32  33
HETATM   33  C   UNK N   1      32.924   9.631  10.343  0.00  0.00     0.015 C 
HETATM   34  C   UNK N   1      33.708   9.547  11.636  0.00  0.00     0.006 C 
ENDBRANCH  32  33
ENDBRANCH   1  32
TORSDOF 10
ENDMDL
MODEL 8
REMARK VINA RESULT:      -6.7      2.271      3.752
REMARK  10 active torsions:
REMARK  status: ('A' for Active; 'I' for Inactive)
REMARK    1  A    between atoms: C_2  and  C_3 
REMARK    2  A    between atoms: C_3  and  N_4 
REMARK    3  A    between atoms: N_7  and  C_26 
REMARK    4  A    between atoms: C_11  and  C_12 
REMARK    5  A    between atoms: C_15  and  O_19 
REMARK    6  A    between atoms: O_19  and  C_20 
REMARK    7  A    between atoms: C_20  and  C_21 
REMARK    8  A    between atoms: C_21  and  C_22 
REMARK    9  A    between atoms: C_21  and  O_24 
REMARK   10  A    between atoms: C_22  and  O_23 
ROOT
HETATM    1  N   UNK N   1      27.027  18.620   4.768  0.00  0.00    -0.370 N 
ATOM      2  HN  UNK N   1      26.016  18.550   4.660  1.00  0.00     0.161 HD
HETATM    3  C   UNK N   1      27.729  17.538   4.790  0.00  0.00     0.155 C 
HETATM    4  N   UNK N   1      27.146  16.232   4.740  0.00  0.00    -0.257 N 
HETATM    5  C   UNK N   1      28.056  15.278   5.074  0.00  0.00     0.271 C 
HETATM    6  O   UNK N   1      27.767  14.106   5.261  0.00  0.00    -0.266 OA
HETATM    7  C   UNK N   1      29.373  15.825   5.388  0.00  0.00     0.077 C 
HETATM    8  C   UNK N   1      30.353  15.180   6.059  0.00  0.00     0.036 C 
HETATM    9  S   UNK N   1      29.506  17.576   4.953  0.00  0.00    -0.048 SA
ENDROOT
BRANCH   8  10
HETATM   10  C   UNK N   1      31.492  15.996   6.512  0.00  0.00    -0.033 A 
HETATM   11  C   UNK N   1      31.340  16.897   7.563  0.00  0.00     0.014 A 
HETATM   12  C   UNK N   1      32.470  17.353   8.248  0.00  0.00     0.039 A 
HETATM   13  C   UNK N   1      33.755  16.887   7.925  0.00  0.00     0.090 A 
HETATM   14  C   UNK N   1      33.906  16.004   6.818  0.00  0.00     0.068 A 
HETATM   15  C   UNK N   1      32.774  15.576   6.138  0.00  0.00     0.038 A 
HETATM   16 Cl   UNK N   1      35.432  15.303   6.287  0.00  0.00    -0.081 Cl
BRANCH  13  17
HETATM   17  O   UNK N   1      34.777  17.286   8.725  0.00  0.00    -0.347 OA
BRANCH  17  18
HETATM   18  C   UNK N   1      34.958  16.939  10.042  0.00  0.00     0.209 C 
BRANCH  18  19
HETATM   19  C   UNK N   1      35.769  15.660  10.156  0.00  0.00     0.166 C 
BRANCH  19  20
HETATM   20  C   UNK N   1      34.972  14.542  10.812  0.00  0.00     0.198 C 
BRANCH  20  21
HETATM   21  O   UNK N   1      33.763  15.037  11.305  0.00  0.00    -0.398 OA
HETATM   22  H   UNK N   1      32.887  14.705  11.053  0.00  0.00     0.209 HD
ENDBRANCH  20  21
ENDBRANCH  19  20
BRANCH  19  23
HETATM   23  O   UNK N   1      36.908  15.919  10.918  0.00  0.00    -0.391 OA
HETATM   24  H   UNK N   1      36.912  15.913  11.888  0.00  0.00     0.210 HD
ENDBRANCH  19  23
ENDBRANCH  18  19
ENDBRANCH  17  18
ENDBRANCH  13  17
ENDBRANCH   8  10
BRANCH   4  25
HETATM   25  C   UNK N   1      25.733  16.020   4.528  0.00  0.00     0.050 A 
HETATM   26  C   UNK N   1      24.861  16.151   5.626  0.00  0.00     0.031 A 
HETATM   27  C   UNK N   1      23.488  15.972   5.498  0.00  0.00     0.002 A 
HETATM   28  C   UNK N   1      22.945  15.665   4.256  0.00  0.00     0.001 A 
HETATM   29  C   UNK N   1      23.775  15.552   3.142  0.00  0.00     0.009 A 
HETATM   30  C   UNK N   1      25.160  15.722   3.257  0.00  0.00    -0.035 A 
HETATM   31  C   UNK N   1      25.952  15.672   1.996  0.00  0.00     0.050 C 
ENDBRANCH   4  25
BRANCH   1  32
HETATM   32  C   UNK N   1      27.628  19.927   4.895  0.00  0.00     0.121 C 
BRANCH  32  33
HETATM   33  C   UNK N   1      27.512  20.397   6.332  0.00  0.00     0.015 C 
HETATM   34  C   UNK N   1      26.708  21.679   6.392  0.00  0.00     0.006 C 
ENDBRANCH  32  33
ENDBRANCH   1  32
TORSDOF 10
ENDMDL
MODEL 9
REMARK VINA RESULT:      -6.7      4.895     11.013
REMARK  10 active torsions:
REMARK  status: ('A' for Active; 'I' for Inactive)
REMARK    1  A    between atoms: C_2  and  C_3 
REMARK    2  A    between atoms: C_3  and  N_4 
REMARK    3  A    between atoms: N_7  and  C_26 
REMARK    4  A    between atoms: C_11  and  C_12 
REMARK    5  A    between atoms: C_15  and  O_19 
REMARK    6  A    between atoms: O_19  and  C_20 
REMARK    7  A    between atoms: C_20  and  C_21 
REMARK    8  A    between atoms: C_21  and  C_22 
REMARK    9  A    between atoms: C_21  and  O_24 
REMARK   10  A    between atoms: C_22  and  O_23 
ROOT
HETATM    1  N   UNK N   1      35.229  10.011  11.500  0.00  0.00    -0.370 N 
ATOM      2  HN  UNK N   1      35.358   9.329  12.246  1.00  0.00     0.161 HD
HETATM    3  C   UNK N   1      35.503  11.250  11.732  0.00  0.00     0.155 C 
HETATM    4  N   UNK N   1      35.916  11.727  13.016  0.00  0.00    -0.257 N 
HETATM    5  C   UNK N   1      35.855  13.085  13.076  0.00  0.00     0.271 C 
HETATM    6  O   UNK N   1      36.001  13.722  14.108  0.00  0.00    -0.266 OA
HETATM    7  C   UNK N   1      35.393  13.694  11.832  0.00  0.00     0.077 C 
HETATM    8  C   UNK N   1      34.921  14.953  11.700  0.00  0.00     0.036 C 
HETATM    9  S   UNK N   1      35.325  12.502  10.472  0.00  0.00    -0.048 SA
ENDROOT
BRANCH   8  10
HETATM   10  C   UNK N   1      34.252  15.280  10.429  0.00  0.00    -0.033 A 
HETATM   11  C   UNK N   1      33.036  14.688  10.101  0.00  0.00     0.014 A 
HETATM   12  C   UNK N   1      32.222  15.281   9.132  0.00  0.00     0.039 A 
HETATM   13  C   UNK N   1      32.587  16.488   8.513  0.00  0.00     0.090 A 
HETATM   14  C   UNK N   1      33.854  17.060   8.820  0.00  0.00     0.068 A 
HETATM   15  C   UNK N   1      34.657  16.447   9.772  0.00  0.00     0.038 A 
HETATM   16 Cl   UNK N   1      34.463  18.576   8.161  0.00  0.00    -0.081 Cl
BRANCH  13  17
HETATM   17  O   UNK N   1      31.677  17.057   7.680  0.00  0.00    -0.347 OA
BRANCH  17  18
HETATM   18  C   UNK N   1      30.909  18.164   7.952  0.00  0.00     0.209 C 
BRANCH  18  19
HETATM   19  C   UNK N   1      29.787  17.817   8.915  0.00  0.00     0.166 C 
BRANCH  19  20
HETATM   20  C   UNK N   1      28.431  18.257   8.383  0.00  0.00     0.198 C 
BRANCH  20  21
HETATM   21  O   UNK N   1      27.450  18.091   9.364  0.00  0.00    -0.398 OA
HETATM   22  H   UNK N   1      26.655  18.639   9.448  0.00  0.00     0.209 HD
ENDBRANCH  20  21
ENDBRANCH  19  20
BRANCH  19  23
HETATM   23  O   UNK N   1      30.029  18.452  10.132  0.00  0.00    -0.391 OA
HETATM   24  H   UNK N   1      29.709  19.344  10.339  0.00  0.00     0.210 HD
ENDBRANCH  19  23
ENDBRANCH  18  19
ENDBRANCH  17  18
ENDBRANCH  13  17
ENDBRANCH   8  10
BRANCH   4  25
HETATM   25  C   UNK N   1      36.188  10.840  14.123  0.00  0.00     0.050 A 
HETATM   26  C   UNK N   1      37.525  10.483  14.386  0.00  0.00     0.031 A 
HETATM   27  C   UNK N   1      37.867   9.642  15.439  0.00  0.00     0.002 A 
HETATM   28  C   UNK N   1      36.874   9.139  16.271  0.00  0.00     0.001 A 
HETATM   29  C   UNK N   1      35.542   9.491  16.056  0.00  0.00     0.009 A 
HETATM   30  C   UNK N   1      35.182  10.330  14.995  0.00  0.00    -0.035 A 
HETATM   31  C   UNK N   1      33.747  10.721  14.902  0.00  0.00     0.050 C 
ENDBRANCH   4  25
BRANCH   1  32
HETATM   32  C   UNK N   1      34.742   9.561  10.217  0.00  0.00     0.121 C 
BRANCH  32  33
HETATM   33  C   UNK N   1      33.293   9.131  10.352  0.00  0.00     0.015 C 
HETATM   34  C   UNK N   1      32.406  10.043   9.531  0.00  0.00     0.006 C 
ENDBRANCH  32  33
ENDBRANCH   1  32
TORSDOF 10
ENDMDL
