MODEL 1
REMARK VINA RESULT:      -8.1      0.000      0.000
REMARK  8 active torsions:
REMARK  status: ('A' for Active; 'I' for Inactive)
REMARK    1  A    between atoms: C_12  and  N_13 
REMARK    2  A    between atoms: N_13  and  C_14 
REMARK    3  A    between atoms: C_15  and  C_14 
REMARK    4  A    between atoms: C_15  and  C_16 
REMARK    5  A    between atoms: C_15  and  C_30 
REMARK    6  A    between atoms: C_15  and  O_34 
REMARK    7  A    between atoms: C_16  and  C_17 
REMARK    8  A    between atoms: C_17  and  C_20 
ROOT
HETATM    1  C   UNK N   1      33.727  17.012   7.002  0.00  0.00     0.172 C 
ENDROOT
BRANCH   1   2
HETATM    2  C   UNK N   1      34.942  16.070   6.916  0.00  0.00     0.167 C 
BRANCH   2   3
HETATM    3  N   UNK N   1      34.787  14.920   7.776  0.00  0.00    -0.386 N 
HETATM    4  H   UNK N   1      33.892  14.545   7.939  0.00  0.00     0.159 HD
BRANCH   3   5
HETATM    5  C   UNK N   1      35.924  14.335   8.382  0.00  0.00     0.040 A 
HETATM    6  C   UNK N   1      37.007  13.916   7.598  0.00  0.00     0.030 A 
HETATM    7  C   UNK N   1      38.148  13.378   8.201  0.00  0.00     0.005 A 
HETATM    8  C   UNK N   1      38.235  13.291   9.594  0.00  0.00     0.030 A 
HETATM    9  C   UNK N   1      37.170  13.724  10.387  0.00  0.00     0.044 A 
HETATM   10  C   UNK N   1      36.001  14.230   9.782  0.00  0.00     0.017 A 
HETATM   11  N   UNK N   1      37.269  13.691  11.748  0.00  0.00    -0.359 N 
HETATM   12  C   UNK N   1      34.957  14.661  10.597  0.00  0.00     0.018 A 
HETATM   13  C   UNK N   1      35.080  14.619  11.982  0.00  0.00     0.025 A 
HETATM   14  C   UNK N   1      36.258  14.134  12.544  0.00  0.00     0.005 A 
HETATM   15  C   UNK N   1      36.412  14.121  14.021  0.00  0.00     0.068 C 
ATOM     16  HN  UNK N   1      38.118  13.323  12.177  1.00  0.00     0.166 HD
ENDBRANCH   3   5
ENDBRANCH   2   3
ENDBRANCH   1   2
BRANCH   1  17
HETATM   17  C   UNK N   1      32.470  16.115   7.124  0.00  0.00     0.062 C 
BRANCH  17  18
HETATM   18  C   UNK N   1      31.443  16.082   5.973  0.00  0.00    -0.015 C 
HETATM   19  C   UNK N   1      30.840  14.691   5.950  0.00  0.00     0.020 C 
HETATM   20  C   UNK N   1      32.120  16.275   4.618  0.00  0.00     0.020 C 
BRANCH  18  21
HETATM   21  C   UNK N   1      30.299  17.074   6.171  0.00  0.00    -0.013 A 
HETATM   22  C   UNK N   1      29.672  17.646   5.043  0.00  0.00     0.053 A 
HETATM   23  C   UNK N   1      28.598  18.544   5.192  0.00  0.00     0.117 A 
HETATM   24  C   UNK N   1      28.125  18.871   6.469  0.00  0.00     0.052 A 
HETATM   25  F   UNK N   1      28.016  19.088   4.098  0.00  0.00    -0.206 F 
HETATM   26  C   UNK N   1      28.736  18.283   7.571  0.00  0.00    -0.019 A 
HETATM   27  C   UNK N   1      29.771  17.420   7.440  0.00  0.00     0.082 A 
HETATM   28  C   UNK N   1      28.383  18.448   8.996  0.00  0.00     0.068 A 
HETATM   29  O   UNK N   1      30.161  16.954   8.623  0.00  0.00    -0.350 OA
HETATM   30  C   UNK N   1      29.411  17.491   9.659  0.00  0.00     0.180 A 
ENDBRANCH  18  21
ENDBRANCH  17  18
ENDBRANCH   1  17
BRANCH   1  31
HETATM   31  C   UNK N   1      33.800  17.979   8.203  0.00  0.00     0.419 C 
HETATM   32  F   UNK N   1      33.796  17.278   9.392  0.00  0.00    -0.168 F 
HETATM   33  F   UNK N   1      34.964  18.724   8.160  0.00  0.00    -0.168 F 
HETATM   34  F   UNK N   1      32.700  18.820   8.213  0.00  0.00    -0.168 F 
ENDBRANCH   1  31
BRANCH   1  35
HETATM   35  O   UNK N   1      33.697  17.792   5.842  0.00  0.00    -0.379 OA
HETATM   36  H   UNK N   1      33.729  18.654   5.399  0.00  0.00     0.211 HD
ENDBRANCH   1  35
TORSDOF 8
ENDMDL
MODEL 2
REMARK VINA RESULT:      -8.0      5.723     10.851
REMARK  8 active torsions:
REMARK  status: ('A' for Active; 'I' for Inactive)
REMARK    1  A    between atoms: C_12  and  N_13 
REMARK    2  A    between atoms: N_13  and  C_14 
REMARK    3  A    between atoms: C_15  and  C_14 
REMARK    4  A    between atoms: C_15  and  C_16 
REMARK    5  A    between atoms: C_15  and  C_30 
REMARK    6  A    between atoms: C_15  and  O_34 
REMARK    7  A    between atoms: C_16  and  C_17 
REMARK    8  A    between atoms: C_17  and  C_20 
ROOT
HETATM    1  C   UNK N   1      26.671  19.540   4.981  0.00  0.00     0.172 C 
ENDROOT
BRANCH   1   2
HETATM    2  C   UNK N   1      25.524  20.236   4.225  0.00  0.00     0.167 C 
BRANCH   2   3
HETATM    3  N   UNK N   1      24.722  19.289   3.486  0.00  0.00    -0.386 N 
HETATM    4  H   UNK N   1      25.157  18.575   2.967  0.00  0.00     0.159 HD
BRANCH   3   5
HETATM    5  C   UNK N   1      23.310  19.391   3.510  0.00  0.00     0.040 A 
HETATM    6  C   UNK N   1      22.660  20.382   2.763  0.00  0.00     0.030 A 
HETATM    7  C   UNK N   1      21.263  20.454   2.753  0.00  0.00     0.005 A 
HETATM    8  C   UNK N   1      20.503  19.513   3.455  0.00  0.00     0.030 A 
HETATM    9  C   UNK N   1      21.139  18.509   4.186  0.00  0.00     0.044 A 
HETATM   10  C   UNK N   1      22.548  18.456   4.233  0.00  0.00     0.017 A 
HETATM   11  N   UNK N   1      20.405  17.557   4.831  0.00  0.00    -0.359 N 
HETATM   12  C   UNK N   1      23.157  17.440   4.964  0.00  0.00     0.018 A 
HETATM   13  C   UNK N   1      22.388  16.479   5.612  0.00  0.00     0.025 A 
HETATM   14  C   UNK N   1      21.000  16.550   5.526  0.00  0.00     0.005 A 
HETATM   15  C   UNK N   1      20.172  15.507   6.184  0.00  0.00     0.068 C 
ATOM     16  HN  UNK N   1      19.386  17.603   4.792  1.00  0.00     0.166 HD
ENDBRANCH   3   5
ENDBRANCH   2   3
ENDBRANCH   1   2
BRANCH   1  17
HETATM   17  C   UNK N   1      27.333  18.554   3.988  0.00  0.00     0.062 C 
BRANCH  17  18
HETATM   18  C   UNK N   1      27.758  17.153   4.473  0.00  0.00    -0.015 C 
HETATM   19  C   UNK N   1      28.104  16.338   3.242  0.00  0.00     0.020 C 
HETATM   20  C   UNK N   1      26.600  16.426   5.154  0.00  0.00     0.020 C 
BRANCH  18  21
HETATM   21  C   UNK N   1      28.997  17.185   5.365  0.00  0.00    -0.013 A 
HETATM   22  C   UNK N   1      30.279  17.222   4.772  0.00  0.00     0.053 A 
HETATM   23  C   UNK N   1      31.439  17.278   5.566  0.00  0.00     0.117 A 
HETATM   24  C   UNK N   1      31.336  17.315   6.963  0.00  0.00     0.052 A 
HETATM   25  F   UNK N   1      32.658  17.305   4.980  0.00  0.00    -0.206 F 
HETATM   26  C   UNK N   1      30.068  17.301   7.533  0.00  0.00    -0.019 A 
HETATM   27  C   UNK N   1      28.945  17.244   6.779  0.00  0.00     0.082 A 
HETATM   28  C   UNK N   1      29.720  17.370   8.967  0.00  0.00     0.068 A 
HETATM   29  O   UNK N   1      27.854  17.287   7.539  0.00  0.00    -0.350 OA
HETATM   30  C   UNK N   1      28.170  17.362   8.887  0.00  0.00     0.180 A 
ENDBRANCH  18  21
ENDBRANCH  17  18
ENDBRANCH   1  17
BRANCH   1  31
HETATM   31  C   UNK N   1      27.724  20.532   5.519  0.00  0.00     0.419 C 
HETATM   32  F   UNK N   1      27.240  21.824   5.476  0.00  0.00    -0.168 F 
HETATM   33  F   UNK N   1      28.039  20.245   6.834  0.00  0.00    -0.168 F 
HETATM   34  F   UNK N   1      28.867  20.491   4.739  0.00  0.00    -0.168 F 
ENDBRANCH   1  31
BRANCH   1  35
HETATM   35  O   UNK N   1      26.125  18.876   6.084  0.00  0.00    -0.379 OA
HETATM   36  H   UNK N   1      25.746  18.884   6.977  0.00  0.00     0.211 HD
ENDBRANCH   1  35
TORSDOF 8
ENDMDL
MODEL 3
REMARK VINA RESULT:      -8.0      1.437      2.021
REMARK  8 active torsions:
REMARK  status: ('A' for Active; 'I' for Inactive)
REMARK    1  A    between atoms: C_12  and  N_13 
REMARK    2  A    between atoms: N_13  and  C_14 
REMARK    3  A    between atoms: C_15  and  C_14 
REMARK    4  A    between atoms: C_15  and  C_16 
REMARK    5  A    between atoms: C_15  and  C_30 
REMARK    6  A    between atoms: C_15  and  O_34 
REMARK    7  A    between atoms: C_16  and  C_17 
REMARK    8  A    between atoms: C_17  and  C_20 
ROOT
HETATM    1  C   UNK N   1      33.859  16.753   7.082  0.00  0.00     0.172 C 
ENDROOT
BRANCH   1   2
HETATM    2  C   UNK N   1      34.973  15.710   6.879  0.00  0.00     0.167 C 
BRANCH   2   3
HETATM    3  N   UNK N   1      34.867  14.626   7.827  0.00  0.00    -0.386 N 
HETATM    4  H   UNK N   1      33.989  14.225   8.020  0.00  0.00     0.159 HD
BRANCH   3   5
HETATM    5  C   UNK N   1      36.028  14.141   8.476  0.00  0.00     0.040 A 
HETATM    6  C   UNK N   1      37.158  13.782   7.730  0.00  0.00     0.030 A 
HETATM    7  C   UNK N   1      38.320  13.345   8.375  0.00  0.00     0.005 A 
HETATM    8  C   UNK N   1      38.376  13.302   9.772  0.00  0.00     0.030 A 
HETATM    9  C   UNK N   1      37.264  13.677  10.527  0.00  0.00     0.044 A 
HETATM   10  C   UNK N   1      36.077  14.080   9.881  0.00  0.00     0.017 A 
HETATM   11  N   UNK N   1      37.329  13.687  11.890  0.00  0.00    -0.359 N 
HETATM   12  C   UNK N   1      34.984  14.455  10.657  0.00  0.00     0.018 A 
HETATM   13  C   UNK N   1      35.074  14.459  12.046  0.00  0.00     0.025 A 
HETATM   14  C   UNK N   1      36.269  14.077  12.649  0.00  0.00     0.005 A 
HETATM   15  C   UNK N   1      36.385  14.114  14.130  0.00  0.00     0.068 C 
ATOM     16  HN  UNK N   1      38.191  13.394  12.350  1.00  0.00     0.166 HD
ENDBRANCH   3   5
ENDBRANCH   2   3
ENDBRANCH   1   2
BRANCH   1  17
HETATM   17  C   UNK N   1      32.513  15.989   7.042  0.00  0.00     0.062 C 
BRANCH  17  18
HETATM   18  C   UNK N   1      31.417  16.426   6.048  0.00  0.00    -0.015 C 
HETATM   19  C   UNK N   1      30.758  15.165   5.523  0.00  0.00     0.020 C 
HETATM   20  C   UNK N   1      32.018  17.131   4.833  0.00  0.00     0.020 C 
BRANCH  18  21
HETATM   21  C   UNK N   1      30.328  17.273   6.703  0.00  0.00    -0.013 A 
HETATM   22  C   UNK N   1      30.419  17.581   8.078  0.00  0.00     0.053 A 
HETATM   23  C   UNK N   1      29.446  18.381   8.704  0.00  0.00     0.117 A 
HETATM   24  C   UNK N   1      28.375  18.898   7.963  0.00  0.00     0.052 A 
HETATM   25  F   UNK N   1      29.546  18.658  10.025  0.00  0.00    -0.206 F 
HETATM   26  C   UNK N   1      28.309  18.607   6.605  0.00  0.00    -0.019 A 
HETATM   27  C   UNK N   1      29.239  17.836   5.993  0.00  0.00     0.082 A 
HETATM   28  C   UNK N   1      27.302  19.070   5.628  0.00  0.00     0.068 A 
HETATM   29  O   UNK N   1      28.993  17.733   4.689  0.00  0.00    -0.350 OA
HETATM   30  C   UNK N   1      27.850  18.428   4.325  0.00  0.00     0.180 A 
ENDBRANCH  18  21
ENDBRANCH  17  18
ENDBRANCH   1  17
BRANCH   1  31
HETATM   31  C   UNK N   1      33.989  17.518   8.417  0.00  0.00     0.419 C 
HETATM   32  F   UNK N   1      33.218  16.922   9.394  0.00  0.00    -0.168 F 
HETATM   33  F   UNK N   1      35.300  17.515   8.856  0.00  0.00    -0.168 F 
HETATM   34  F   UNK N   1      33.541  18.820   8.271  0.00  0.00    -0.168 F 
ENDBRANCH   1  31
BRANCH   1  35
HETATM   35  O   UNK N   1      33.951  17.696   6.053  0.00  0.00    -0.379 OA
HETATM   36  H   UNK N   1      33.647  18.506   5.615  0.00  0.00     0.211 HD
ENDBRANCH   1  35
TORSDOF 8
ENDMDL
MODEL 4
REMARK VINA RESULT:      -7.9      8.784     11.854
REMARK  8 active torsions:
REMARK  status: ('A' for Active; 'I' for Inactive)
REMARK    1  A    between atoms: C_12  and  N_13 
REMARK    2  A    between atoms: N_13  and  C_14 
REMARK    3  A    between atoms: C_15  and  C_14 
REMARK    4  A    between atoms: C_15  and  C_16 
REMARK    5  A    between atoms: C_15  and  C_30 
REMARK    6  A    between atoms: C_15  and  O_34 
REMARK    7  A    between atoms: C_16  and  C_17 
REMARK    8  A    between atoms: C_17  and  C_20 
ROOT
HETATM    1  C   UNK N   1      25.497  15.166   5.033  0.00  0.00     0.172 C 
ENDROOT
BRANCH   1   2
HETATM    2  C   UNK N   1      26.357  16.432   5.204  0.00  0.00     0.167 C 
BRANCH   2   3
HETATM    3  N   UNK N   1      25.560  17.568   5.602  0.00  0.00    -0.386 N 
HETATM    4  H   UNK N   1      25.187  17.613   6.513  0.00  0.00     0.159 HD
BRANCH   3   5
HETATM    5  C   UNK N   1      25.316  18.615   4.682  0.00  0.00     0.040 A 
HETATM    6  C   UNK N   1      26.385  19.299   4.089  0.00  0.00     0.030 A 
HETATM    7  C   UNK N   1      26.143  20.304   3.146  0.00  0.00     0.005 A 
HETATM    8  C   UNK N   1      24.834  20.607   2.759  0.00  0.00     0.030 A 
HETATM    9  C   UNK N   1      23.761  19.919   3.329  0.00  0.00     0.044 A 
HETATM   10  C   UNK N   1      23.997  18.933   4.309  0.00  0.00     0.017 A 
HETATM   11  N   UNK N   1      22.485  20.173   2.918  0.00  0.00    -0.359 N 
HETATM   12  C   UNK N   1      22.910  18.257   4.856  0.00  0.00     0.018 A 
HETATM   13  C   UNK N   1      21.617  18.531   4.421  0.00  0.00     0.025 A 
HETATM   14  C   UNK N   1      21.424  19.496   3.436  0.00  0.00     0.005 A 
HETATM   15  C   UNK N   1      20.051  19.769   2.939  0.00  0.00     0.068 C 
ATOM     16  HN  UNK N   1      22.323  20.888   2.209  1.00  0.00     0.166 HD
ENDBRANCH   3   5
ENDBRANCH   2   3
ENDBRANCH   1   2
BRANCH   1  17
HETATM   17  C   UNK N   1      24.358  15.251   6.078  0.00  0.00     0.062 C 
BRANCH  17  18
HETATM   18  C   UNK N   1      24.050  14.032   6.972  0.00  0.00    -0.015 C 
HETATM   19  C   UNK N   1      25.225  13.860   7.915  0.00  0.00     0.020 C 
HETATM   20  C   UNK N   1      23.971  12.747   6.151  0.00  0.00     0.020 C 
BRANCH  18  21
HETATM   21  C   UNK N   1      22.800  14.225   7.827  0.00  0.00    -0.013 A 
HETATM   22  C   UNK N   1      21.876  15.238   7.489  0.00  0.00     0.053 A 
HETATM   23  C   UNK N   1      20.702  15.424   8.242  0.00  0.00     0.117 A 
HETATM   24  C   UNK N   1      20.425  14.592   9.334  0.00  0.00     0.052 A 
HETATM   25  F   UNK N   1      19.833  16.406   7.906  0.00  0.00    -0.206 F 
HETATM   26  C   UNK N   1      21.332  13.584   9.643  0.00  0.00    -0.019 A 
HETATM   27  C   UNK N   1      22.466  13.397   8.927  0.00  0.00     0.082 A 
HETATM   28  C   UNK N   1      21.230  12.573  10.716  0.00  0.00     0.068 A 
HETATM   29  O   UNK N   1      23.152  12.350   9.378  0.00  0.00    -0.350 OA
HETATM   30  C   UNK N   1      22.524  11.753  10.461  0.00  0.00     0.180 A 
ENDBRANCH  18  21
ENDBRANCH  17  18
ENDBRANCH   1  17
BRANCH   1  31
HETATM   31  C   UNK N   1      24.902  15.031   3.615  0.00  0.00     0.419 C 
HETATM   32  F   UNK N   1      25.472  15.953   2.761  0.00  0.00    -0.168 F 
HETATM   33  F   UNK N   1      25.148  13.772   3.099  0.00  0.00    -0.168 F 
HETATM   34  F   UNK N   1      23.539  15.274   3.639  0.00  0.00    -0.168 F 
ENDBRANCH   1  31
BRANCH   1  35
HETATM   35  O   UNK N   1      26.315  14.051   5.247  0.00  0.00    -0.379 OA
HETATM   36  H   UNK N   1      26.429  13.103   5.417  0.00  0.00     0.211 HD
ENDBRANCH   1  35
TORSDOF 8
ENDMDL
MODEL 5
REMARK VINA RESULT:      -7.9      4.730      8.001
REMARK  8 active torsions:
REMARK  status: ('A' for Active; 'I' for Inactive)
REMARK    1  A    between atoms: C_12  and  N_13 
REMARK    2  A    between atoms: N_13  and  C_14 
REMARK    3  A    between atoms: C_15  and  C_14 
REMARK    4  A    between atoms: C_15  and  C_16 
REMARK    5  A    between atoms: C_15  and  C_30 
REMARK    6  A    between atoms: C_15  and  O_34 
REMARK    7  A    between atoms: C_16  and  C_17 
REMARK    8  A    between atoms: C_17  and  C_20 
ROOT
HETATM    1  C   UNK N   1      26.493  16.963   4.485  0.00  0.00     0.172 C 
ENDROOT
BRANCH   1   2
HETATM    2  C   UNK N   1      27.913  17.492   4.761  0.00  0.00     0.167 C 
BRANCH   2   3
HETATM    3  N   UNK N   1      28.600  16.687   5.744  0.00  0.00    -0.386 N 
HETATM    4  H   UNK N   1      28.800  15.742   5.554  0.00  0.00     0.159 HD
BRANCH   3   5
HETATM    5  C   UNK N   1      28.984  17.260   6.980  0.00  0.00     0.040 A 
HETATM    6  C   UNK N   1      28.021  17.547   7.956  0.00  0.00     0.030 A 
HETATM    7  C   UNK N   1      28.407  18.072   9.194  0.00  0.00     0.005 A 
HETATM    8  C   UNK N   1      29.760  18.276   9.482  0.00  0.00     0.030 A 
HETATM    9  C   UNK N   1      30.730  17.975   8.525  0.00  0.00     0.044 A 
HETATM   10  C   UNK N   1      30.344  17.484   7.261  0.00  0.00     0.017 A 
HETATM   11  N   UNK N   1      32.054  18.123   8.818  0.00  0.00    -0.359 N 
HETATM   12  C   UNK N   1      31.332  17.184   6.327  0.00  0.00     0.018 A 
HETATM   13  C   UNK N   1      32.677  17.341   6.648  0.00  0.00     0.025 A 
HETATM   14  C   UNK N   1      33.022  17.808   7.914  0.00  0.00     0.005 A 
HETATM   15  C   UNK N   1      34.455  17.944   8.278  0.00  0.00     0.068 C 
ATOM     16  HN  UNK N   1      32.325  18.479   9.735  1.00  0.00     0.166 HD
ENDBRANCH   3   5
ENDBRANCH   2   3
ENDBRANCH   1   2
BRANCH   1  17
HETATM   17  C   UNK N   1      25.842  17.928   3.466  0.00  0.00     0.062 C 
BRANCH  17  18
HETATM   18  C   UNK N   1      25.279  19.281   3.949  0.00  0.00    -0.015 C 
HETATM   19  C   UNK N   1      25.864  20.356   3.052  0.00  0.00     0.020 C 
HETATM   20  C   UNK N   1      25.751  19.605   5.365  0.00  0.00     0.020 C 
BRANCH  18  21
HETATM   21  C   UNK N   1      23.759  19.366   3.834  0.00  0.00    -0.013 A 
HETATM   22  C   UNK N   1      23.180  20.284   2.931  0.00  0.00     0.053 A 
HETATM   23  C   UNK N   1      21.783  20.368   2.784  0.00  0.00     0.117 A 
HETATM   24  C   UNK N   1      20.944  19.525   3.524  0.00  0.00     0.052 A 
HETATM   25  F   UNK N   1      21.247  21.260   1.919  0.00  0.00    -0.206 F 
HETATM   26  C   UNK N   1      21.528  18.609   4.393  0.00  0.00    -0.019 A 
HETATM   27  C   UNK N   1      22.871  18.522   4.545  0.00  0.00     0.082 A 
HETATM   28  C   UNK N   1      20.849  17.605   5.238  0.00  0.00     0.068 A 
HETATM   29  O   UNK N   1      23.195  17.548   5.391  0.00  0.00    -0.350 OA
HETATM   30  C   UNK N   1      22.072  16.907   5.892  0.00  0.00     0.180 A 
ENDBRANCH  18  21
ENDBRANCH  17  18
ENDBRANCH   1  17
BRANCH   1  31
HETATM   31  C   UNK N   1      26.487  15.524   3.925  0.00  0.00     0.419 C 
HETATM   32  F   UNK N   1      25.351  15.301   3.175  0.00  0.00    -0.168 F 
HETATM   33  F   UNK N   1      27.580  15.314   3.104  0.00  0.00    -0.168 F 
HETATM   34  F   UNK N   1      26.489  14.604   4.960  0.00  0.00    -0.168 F 
ENDBRANCH   1  31
BRANCH   1  35
HETATM   35  O   UNK N   1      25.795  16.939   5.697  0.00  0.00    -0.379 OA
HETATM   36  H   UNK N   1      25.291  17.386   6.395  0.00  0.00     0.211 HD
ENDBRANCH   1  35
TORSDOF 8
ENDMDL
MODEL 6
REMARK VINA RESULT:      -7.9      5.057     10.147
REMARK  8 active torsions:
REMARK  status: ('A' for Active; 'I' for Inactive)
REMARK    1  A    between atoms: C_12  and  N_13 
REMARK    2  A    between atoms: N_13  and  C_14 
REMARK    3  A    between atoms: C_15  and  C_14 
REMARK    4  A    between atoms: C_15  and  C_16 
REMARK    5  A    between atoms: C_15  and  C_30 
REMARK    6  A    between atoms: C_15  and  O_34 
REMARK    7  A    between atoms: C_16  and  C_17 
REMARK    8  A    between atoms: C_17  and  C_20 
ROOT
HETATM    1  C   UNK N   1      27.056  18.294   4.852  0.00  0.00     0.172 C 
ENDROOT
BRANCH   1   2
HETATM    2  C   UNK N   1      26.182  17.895   3.649  0.00  0.00     0.167 C 
BRANCH   2   3
HETATM    3  N   UNK N   1      25.093  17.032   4.045  0.00  0.00    -0.386 N 
HETATM    4  H   UNK N   1      25.227  16.058   4.085  0.00  0.00     0.159 HD
BRANCH   3   5
HETATM    5  C   UNK N   1      23.836  17.591   4.376  0.00  0.00     0.040 A 
HETATM    6  C   UNK N   1      23.342  18.692   3.664  0.00  0.00     0.030 A 
HETATM    7  C   UNK N   1      22.079  19.215   3.962  0.00  0.00     0.005 A 
HETATM    8  C   UNK N   1      21.283  18.619   4.945  0.00  0.00     0.030 A 
HETATM    9  C   UNK N   1      21.756  17.510   5.648  0.00  0.00     0.044 A 
HETATM   10  C   UNK N   1      23.044  17.003   5.379  0.00  0.00     0.017 A 
HETATM   11  N   UNK N   1      20.965  16.892   6.571  0.00  0.00    -0.359 N 
HETATM   12  C   UNK N   1      23.489  15.890   6.089  0.00  0.00     0.018 A 
HETATM   13  C   UNK N   1      22.664  15.276   7.025  0.00  0.00     0.025 A 
HETATM   14  C   UNK N   1      21.390  15.791   7.248  0.00  0.00     0.005 A 
HETATM   15  C   UNK N   1      20.489  15.118   8.219  0.00  0.00     0.068 C 
ATOM     16  HN  UNK N   1      20.034  17.265   6.759  1.00  0.00     0.166 HD
ENDBRANCH   3   5
ENDBRANCH   2   3
ENDBRANCH   1   2
BRANCH   1  17
HETATM   17  C   UNK N   1      28.512  17.902   4.500  0.00  0.00     0.062 C 
BRANCH  17  18
HETATM   18  C   UNK N   1      29.170  16.698   5.206  0.00  0.00    -0.015 C 
HETATM   19  C   UNK N   1      30.008  15.974   4.170  0.00  0.00     0.020 C 
HETATM   20  C   UNK N   1      28.122  15.694   5.683  0.00  0.00     0.020 C 
BRANCH  18  21
HETATM   21  C   UNK N   1      30.103  17.113   6.341  0.00  0.00    -0.013 A 
HETATM   22  C   UNK N   1      31.499  17.107   6.131  0.00  0.00     0.053 A 
HETATM   23  C   UNK N   1      32.383  17.509   7.149  0.00  0.00     0.117 A 
HETATM   24  C   UNK N   1      31.886  17.938   8.387  0.00  0.00     0.052 A 
HETATM   25  F   UNK N   1      33.719  17.489   6.930  0.00  0.00    -0.206 F 
HETATM   26  C   UNK N   1      30.508  17.960   8.573  0.00  0.00    -0.019 A 
HETATM   27  C   UNK N   1      29.648  17.573   7.601  0.00  0.00     0.082 A 
HETATM   28  C   UNK N   1      29.764  18.406   9.769  0.00  0.00     0.068 A 
HETATM   29  O   UNK N   1      28.385  17.723   7.992  0.00  0.00    -0.350 OA
HETATM   30  C   UNK N   1      28.301  18.217   9.285  0.00  0.00     0.180 A 
ENDBRANCH  18  21
ENDBRANCH  17  18
ENDBRANCH   1  17
BRANCH   1  31
HETATM   31  C   UNK N   1      26.981  19.802   5.175  0.00  0.00     0.419 C 
HETATM   32  F   UNK N   1      27.966  20.154   6.075  0.00  0.00    -0.168 F 
HETATM   33  F   UNK N   1      27.168  20.556   4.031  0.00  0.00    -0.168 F 
HETATM   34  F   UNK N   1      25.761  20.111   5.752  0.00  0.00    -0.168 F 
ENDBRANCH   1  31
BRANCH   1  35
HETATM   35  O   UNK N   1      26.591  17.605   5.977  0.00  0.00    -0.379 OA
HETATM   36  H   UNK N   1      26.242  17.596   6.882  0.00  0.00     0.211 HD
ENDBRANCH   1  35
TORSDOF 8
ENDMDL
MODEL 7
REMARK VINA RESULT:      -7.9     14.678     17.760
REMARK  8 active torsions:
REMARK  status: ('A' for Active; 'I' for Inactive)
REMARK    1  A    between atoms: C_12  and  N_13 
REMARK    2  A    between atoms: N_13  and  C_14 
REMARK    3  A    between atoms: C_15  and  C_14 
REMARK    4  A    between atoms: C_15  and  C_16 
REMARK    5  A    between atoms: C_15  and  C_30 
REMARK    6  A    between atoms: C_15  and  O_34 
REMARK    7  A    between atoms: C_16  and  C_17 
REMARK    8  A    between atoms: C_17  and  C_20 
ROOT
HETATM    1  C   UNK N   1      26.352  27.071  -4.931  0.00  0.00     0.172 C 
ENDROOT
BRANCH   1   2
HETATM    2  C   UNK N   1      27.179  25.997  -4.200  0.00  0.00     0.167 C 
BRANCH   2   3
HETATM    3  N   UNK N   1      27.986  25.230  -5.119  0.00  0.00    -0.386 N 
HETATM    4  H   UNK N   1      27.904  25.378  -6.089  0.00  0.00     0.159 HD
BRANCH   3   5
HETATM    5  C   UNK N   1      28.896  24.266  -4.622  0.00  0.00     0.040 A 
HETATM    6  C   UNK N   1      29.484  24.432  -3.362  0.00  0.00     0.030 A 
HETATM    7  C   UNK N   1      30.349  23.457  -2.853  0.00  0.00     0.005 A 
HETATM    8  C   UNK N   1      30.601  22.289  -3.581  0.00  0.00     0.030 A 
HETATM    9  C   UNK N   1      30.005  22.104  -4.830  0.00  0.00     0.044 A 
HETATM   10  C   UNK N   1      29.165  23.102  -5.365  0.00  0.00     0.017 A 
HETATM   11  N   UNK N   1      30.206  20.945  -5.522  0.00  0.00    -0.359 N 
HETATM   12  C   UNK N   1      28.577  22.888  -6.609  0.00  0.00     0.018 A 
HETATM   13  C   UNK N   1      28.794  21.698  -7.296  0.00  0.00     0.025 A 
HETATM   14  C   UNK N   1      29.613  20.726  -6.727  0.00  0.00     0.005 A 
HETATM   15  C   UNK N   1      29.820  19.437  -7.437  0.00  0.00     0.068 C 
ATOM     16  HN  UNK N   1      30.815  20.228  -5.128  1.00  0.00     0.166 HD
ENDBRANCH   3   5
ENDBRANCH   2   3
ENDBRANCH   1   2
BRANCH   1  17
HETATM   17  C   UNK N   1      27.309  27.783  -5.918  0.00  0.00     0.062 C 
BRANCH  17  18
HETATM   18  C   UNK N   1      28.065  29.050  -5.468  0.00  0.00    -0.015 C 
HETATM   19  C   UNK N   1      27.067  29.936  -4.748  0.00  0.00     0.020 C 
HETATM   20  C   UNK N   1      28.563  29.855  -6.667  0.00  0.00     0.020 C 
BRANCH  18  21
HETATM   21  C   UNK N   1      29.198  28.748  -4.490  0.00  0.00    -0.013 A 
HETATM   22  C   UNK N   1      29.164  29.306  -3.193  0.00  0.00     0.053 A 
HETATM   23  C   UNK N   1      30.179  29.026  -2.261  0.00  0.00     0.117 A 
HETATM   24  C   UNK N   1      31.235  28.172  -2.603  0.00  0.00     0.052 A 
HETATM   25  F   UNK N   1      30.133  29.577  -1.025  0.00  0.00    -0.206 F 
HETATM   26  C   UNK N   1      31.245  27.610  -3.875  0.00  0.00    -0.019 A 
HETATM   27  C   UNK N   1      30.274  27.875  -4.782  0.00  0.00     0.082 A 
HETATM   28  C   UNK N   1      32.228  26.661  -4.438  0.00  0.00     0.068 A 
HETATM   29  O   UNK N   1      30.470  27.193  -5.907  0.00  0.00    -0.350 OA
HETATM   30  C   UNK N   1      31.617  26.415  -5.844  0.00  0.00     0.180 A 
ENDBRANCH  18  21
ENDBRANCH  17  18
ENDBRANCH   1  17
BRANCH   1  31
HETATM   31  C   UNK N   1      25.147  26.482  -5.698  0.00  0.00     0.419 C 
HETATM   32  F   UNK N   1      24.042  27.297  -5.563  0.00  0.00    -0.168 F 
HETATM   33  F   UNK N   1      25.431  26.379  -7.047  0.00  0.00    -0.168 F 
HETATM   34  F   UNK N   1      24.812  25.239  -5.188  0.00  0.00    -0.168 F 
ENDBRANCH   1  31
BRANCH   1  35
HETATM   35  O   UNK N   1      25.842  27.955  -3.974  0.00  0.00    -0.379 OA
HETATM   36  H   UNK N   1      25.108  28.463  -3.594  0.00  0.00     0.211 HD
ENDBRANCH   1  35
TORSDOF 8
ENDMDL
MODEL 8
REMARK VINA RESULT:      -7.9      5.436     10.527
REMARK  8 active torsions:
REMARK  status: ('A' for Active; 'I' for Inactive)
REMARK    1  A    between atoms: C_12  and  N_13 
REMARK    2  A    between atoms: N_13  and  C_14 
REMARK    3  A    between atoms: C_15  and  C_14 
REMARK    4  A    between atoms: C_15  and  C_16 
REMARK    5  A    between atoms: C_15  and  C_30 
REMARK    6  A    between atoms: C_15  and  O_34 
REMARK    7  A    between atoms: C_16  and  C_17 
REMARK    8  A    between atoms: C_17  and  C_20 
ROOT
HETATM    1  C   UNK N   1      26.829  18.630   5.239  0.00  0.00     0.172 C 
ENDROOT
BRANCH   1   2
HETATM    2  C   UNK N   1      25.345  18.825   4.874  0.00  0.00     0.167 C 
BRANCH   2   3
HETATM    3  N   UNK N   1      24.531  17.732   5.353  0.00  0.00    -0.386 N 
HETATM    4  H   UNK N   1      24.818  17.212   6.138  0.00  0.00     0.159 HD
BRANCH   3   5
HETATM    5  C   UNK N   1      23.322  17.411   4.691  0.00  0.00     0.040 A 
HETATM    6  C   UNK N   1      22.151  18.127   4.971  0.00  0.00     0.030 A 
HETATM    7  C   UNK N   1      20.967  17.839   4.284  0.00  0.00     0.005 A 
HETATM    8  C   UNK N   1      20.953  16.861   3.284  0.00  0.00     0.030 A 
HETATM    9  C   UNK N   1      22.118  16.155   2.982  0.00  0.00     0.044 A 
HETATM   10  C   UNK N   1      23.305  16.414   3.699  0.00  0.00     0.017 A 
HETATM   11  N   UNK N   1      22.124  15.238   1.972  0.00  0.00    -0.359 N 
HETATM   12  C   UNK N   1      24.455  15.701   3.372  0.00  0.00     0.018 A 
HETATM   13  C   UNK N   1      24.438  14.771   2.338  0.00  0.00     0.025 A 
HETATM   14  C   UNK N   1      23.254  14.558   1.637  0.00  0.00     0.005 A 
HETATM   15  C   UNK N   1      23.237  13.594   0.507  0.00  0.00     0.068 C 
ATOM     16  HN  UNK N   1      21.261  15.057   1.458  1.00  0.00     0.166 HD
ENDBRANCH   3   5
ENDBRANCH   2   3
ENDBRANCH   1   2
BRANCH   1  17
HETATM   17  C   UNK N   1      27.493  17.893   4.051  0.00  0.00     0.062 C 
BRANCH  17  18
HETATM   18  C   UNK N   1      28.268  16.583   4.303  0.00  0.00    -0.015 C 
HETATM   19  C   UNK N   1      28.269  15.806   3.001  0.00  0.00     0.020 C 
HETATM   20  C   UNK N   1      27.552  15.702   5.324  0.00  0.00     0.020 C 
BRANCH  18  21
HETATM   21  C   UNK N   1      29.724  16.822   4.695  0.00  0.00    -0.013 A 
HETATM   22  C   UNK N   1      30.709  16.915   3.688  0.00  0.00     0.053 A 
HETATM   23  C   UNK N   1      32.055  17.160   4.015  0.00  0.00     0.117 A 
HETATM   24  C   UNK N   1      32.435  17.333   5.353  0.00  0.00     0.052 A 
HETATM   25  F   UNK N   1      32.986  17.238   3.036  0.00  0.00    -0.206 F 
HETATM   26  C   UNK N   1      31.452  17.262   6.333  0.00  0.00    -0.019 A 
HETATM   27  C   UNK N   1      30.154  17.023   6.030  0.00  0.00     0.082 A 
HETATM   28  C   UNK N   1      31.612  17.447   7.790  0.00  0.00     0.068 A 
HETATM   29  O   UNK N   1      29.394  17.044   7.121  0.00  0.00    -0.350 OA
HETATM   30  C   UNK N   1      30.142  17.289   8.263  0.00  0.00     0.180 A 
ENDBRANCH  18  21
ENDBRANCH  17  18
ENDBRANCH   1  17
BRANCH   1  31
HETATM   31  C   UNK N   1      27.561  19.963   5.507  0.00  0.00     0.419 C 
HETATM   32  F   UNK N   1      28.186  19.934   6.737  0.00  0.00    -0.168 F 
HETATM   33  F   UNK N   1      28.531  20.189   4.549  0.00  0.00    -0.168 F 
HETATM   34  F   UNK N   1      26.659  21.013   5.524  0.00  0.00    -0.168 F 
ENDBRANCH   1  31
BRANCH   1  35
HETATM   35  O   UNK N   1      26.893  17.878   6.417  0.00  0.00    -0.379 OA
HETATM   36  H   UNK N   1      27.334  17.228   6.985  0.00  0.00     0.211 HD
ENDBRANCH   1  35
TORSDOF 8
ENDMDL
MODEL 9
REMARK VINA RESULT:      -7.8      5.546     11.095
REMARK  8 active torsions:
REMARK  status: ('A' for Active; 'I' for Inactive)
REMARK    1  A    between atoms: C_12  and  N_13 
REMARK    2  A    between atoms: N_13  and  C_14 
REMARK    3  A    between atoms: C_15  and  C_14 
REMARK    4  A    between atoms: C_15  and  C_16 
REMARK    5  A    between atoms: C_15  and  C_30 
REMARK    6  A    between atoms: C_15  and  O_34 
REMARK    7  A    between atoms: C_16  and  C_17 
REMARK    8  A    between atoms: C_17  and  C_20 
ROOT
HETATM    1  C   UNK N   1      26.973  18.727   4.996  0.00  0.00     0.172 C 
ENDROOT
BRANCH   1   2
HETATM    2  C   UNK N   1      25.696  18.232   4.292  0.00  0.00     0.167 C 
BRANCH   2   3
HETATM    3  N   UNK N   1      24.508  18.589   5.032  0.00  0.00    -0.386 N 
HETATM    4  H   UNK N   1      24.539  18.646   6.015  0.00  0.00     0.159 HD
BRANCH   3   5
HETATM    5  C   UNK N   1      23.302  18.858   4.342  0.00  0.00     0.040 A 
HETATM    6  C   UNK N   1      23.250  19.873   3.377  0.00  0.00     0.030 A 
HETATM    7  C   UNK N   1      22.070  20.108   2.664  0.00  0.00     0.005 A 
HETATM    8  C   UNK N   1      20.944  19.306   2.880  0.00  0.00     0.030 A 
HETATM    9  C   UNK N   1      20.990  18.280   3.825  0.00  0.00     0.044 A 
HETATM   10  C   UNK N   1      22.165  18.064   4.575  0.00  0.00     0.017 A 
HETATM   11  N   UNK N   1      19.913  17.461   4.003  0.00  0.00    -0.359 N 
HETATM   12  C   UNK N   1      22.186  17.028   5.505  0.00  0.00     0.018 A 
HETATM   13  C   UNK N   1      21.077  16.205   5.669  0.00  0.00     0.025 A 
HETATM   14  C   UNK N   1      19.942  16.434   4.896  0.00  0.00     0.005 A 
HETATM   15  C   UNK N   1      18.767  15.537   5.038  0.00  0.00     0.068 C 
ATOM     16  HN  UNK N   1      19.068  17.624   3.457  1.00  0.00     0.166 HD
ENDBRANCH   3   5
ENDBRANCH   2   3
ENDBRANCH   1   2
BRANCH   1  17
HETATM   17  C   UNK N   1      28.050  17.631   4.799  0.00  0.00     0.062 C 
BRANCH  17  18
HETATM   18  C   UNK N   1      28.368  16.659   5.954  0.00  0.00    -0.015 C 
HETATM   19  C   UNK N   1      28.865  15.369   5.329  0.00  0.00     0.020 C 
HETATM   20  C   UNK N   1      27.107  16.295   6.736  0.00  0.00     0.020 C 
BRANCH  18  21
HETATM   21  C   UNK N   1      29.468  17.175   6.877  0.00  0.00    -0.013 A 
HETATM   22  C   UNK N   1      29.133  17.632   8.170  0.00  0.00     0.053 A 
HETATM   23  C   UNK N   1      30.127  18.089   9.054  0.00  0.00     0.117 A 
HETATM   24  C   UNK N   1      31.473  18.082   8.666  0.00  0.00     0.052 A 
HETATM   25  F   UNK N   1      29.785  18.531  10.287  0.00  0.00    -0.206 F 
HETATM   26  C   UNK N   1      31.793  17.607   7.399  0.00  0.00    -0.019 A 
HETATM   27  C   UNK N   1      30.844  17.168   6.539  0.00  0.00     0.082 A 
HETATM   28  C   UNK N   1      33.135  17.472   6.795  0.00  0.00     0.068 A 
HETATM   29  O   UNK N   1      31.388  16.723   5.409  0.00  0.00    -0.350 OA
HETATM   30  C   UNK N   1      32.770  16.847   5.422  0.00  0.00     0.180 A 
ENDBRANCH  18  21
ENDBRANCH  17  18
ENDBRANCH   1  17
BRANCH   1  31
HETATM   31  C   UNK N   1      27.484  20.073   4.436  0.00  0.00     0.419 C 
HETATM   32  F   UNK N   1      26.964  21.127   5.160  0.00  0.00    -0.168 F 
HETATM   33  F   UNK N   1      28.862  20.145   4.520  0.00  0.00    -0.168 F 
HETATM   34  F   UNK N   1      27.081  20.232   3.122  0.00  0.00    -0.168 F 
ENDBRANCH   1  31
BRANCH   1  35
HETATM   35  O   UNK N   1      26.677  18.926   6.348  0.00  0.00    -0.379 OA
HETATM   36  H   UNK N   1      26.357  18.600   7.204  0.00  0.00     0.211 HD
ENDBRANCH   1  35
TORSDOF 8
ENDMDL
