MODEL 1
REMARK VINA RESULT:      -7.7      0.000      0.000
REMARK  28 active torsions:
REMARK  status: ('A' for Active; 'I' for Inactive)
REMARK    1  A    between atoms: C_2  and  C_3 
REMARK    2  A    between atoms: C_3  and  C_5 
REMARK    3  A    between atoms: C_5  and  C_6 
REMARK    4  A    between atoms: C_5  and  N_32 
REMARK       I    between atoms: C_6  and  N_8 
REMARK    5  A    between atoms: C_9  and  N_8 
REMARK    6  A    between atoms: C_9  and  C_10 
REMARK    7  A    between atoms: C_9  and  C_17 
REMARK    8  A    between atoms: C_10  and  C_11 
REMARK       I    between atoms: C_17  and  N_19 
REMARK    9  A    between atoms: C_23  and  C_24 
REMARK       I    between atoms: C_24  and  N_26 
REMARK   10  A    between atoms: N_26  and  C_27 
REMARK   11  A    between atoms: C_27  and  C_29 
REMARK   12  A    between atoms: C_29  and  O_31 
REMARK       I    between atoms: N_32  and  C_33 
REMARK   13  A    between atoms: C_33  and  C_35 
REMARK   14  A    between atoms: C_35  and  C_36 
REMARK   15  A    between atoms: C_35  and  N_44 
REMARK   16  A    between atoms: C_36  and  C_37 
REMARK   17  A    between atoms: C_40  and  O_43 
REMARK       I    between atoms: N_44  and  C_45 
REMARK   18  A    between atoms: C_45  and  C_47 
REMARK   19  A    between atoms: C_47  and  C_48 
REMARK   20  A    between atoms: C_47  and  N_51 
REMARK       I    between atoms: N_51  and  C_52 
REMARK   21  A    between atoms: C_52  and  C_54 
REMARK   22  A    between atoms: C_54  and  C_55 
REMARK   23  A    between atoms: C_54  and  N_63 
REMARK   24  A    between atoms: C_55  and  C_56 
REMARK   25  A    between atoms: C_56  and  C_57 
REMARK   26  A    between atoms: C_57  and  N_58 
REMARK       I    between atoms: N_58  and  C_59 
REMARK       I    between atoms: C_59  and  N_62 
REMARK       I    between atoms: N_63  and  C_64 
REMARK   27  A    between atoms: C_64  and  C_66 
REMARK   28  A    between atoms: C_66  and  N_67 
ROOT
HETATM    1  C   UNK N   1      23.325  17.509   5.132  0.00  0.00     0.180 C 
ENDROOT
BRANCH   1   2
HETATM    2  C   UNK N   1      22.959  16.241   5.865  0.00  0.00     0.241 C 
HETATM    3  N   UNK N   1      21.663  16.002   6.179  0.00  0.00    -0.346 N 
HETATM    4  H   UNK N   1      20.988  16.644   5.858  0.00  0.00     0.163 HD
HETATM    5  O   UNK N   1      23.838  15.463   6.194  0.00  0.00    -0.271 OA
BRANCH   3   6
HETATM    6  C   UNK N   1      21.204  14.872   6.951  0.00  0.00     0.180 C 
BRANCH   6   7
HETATM    7  C   UNK N   1      20.558  15.053   8.330  0.00  0.00     0.013 C 
HETATM    8  C   UNK N   1      20.142  16.480   8.618  0.00  0.00     0.012 C 
BRANCH   7   9
HETATM    9  C   UNK N   1      21.367  14.467   9.471  0.00  0.00     0.002 C 
HETATM   10  C   UNK N   1      20.640  13.287  10.091  0.00  0.00     0.005 C 
ENDBRANCH   7   9
ENDBRANCH   6   7
BRANCH   6  11
HETATM   11  C   UNK N   1      20.820  13.663   6.183  0.00  0.00     0.241 C 
HETATM   12  O   UNK N   1      19.805  13.047   6.465  0.00  0.00    -0.271 OA
HETATM   13  N   UNK N   1      21.768  13.147   5.376  0.00  0.00    -0.346 N 
HETATM   14  H   UNK N   1      22.394  13.795   4.979  0.00  0.00     0.163 HD
BRANCH  13  15
HETATM   15  C   UNK N   1      21.982  11.764   5.017  0.00  0.00     0.182 C 
BRANCH  15  16
HETATM   16  C   UNK N   1      23.322  11.171   5.472  0.00  0.00     0.093 C 
BRANCH  16  17
HETATM   17  C   UNK N   1      23.776  11.687   6.795  0.00  0.00     0.028 A 
HETATM   18  C   UNK N   1      23.399  11.224   8.030  0.00  0.00     0.114 A 
HETATM   19  N   UNK N   1      24.050  11.953   8.955  0.00  0.00    -0.360 N 
HETATM   20  C   UNK N   1      24.806  12.837   8.269  0.00  0.00     0.180 A 
ATOM     21  HN  UNK N   1      23.986  11.858   9.969  1.00  0.00     0.166 HD
HETATM   22  N   UNK N   1      24.657  12.690   6.938  0.00  0.00    -0.354 N 
HETATM   23  H   UNK N   1      25.097  13.206   6.224  0.00  0.00     0.166 HD
ENDBRANCH  16  17
ENDBRANCH  15  16
BRANCH  15  24
HETATM   24  C   UNK N   1      21.759  11.821   3.526  0.00  0.00     0.243 C 
HETATM   25  O   UNK N   1      21.183  10.890   2.995  0.00  0.00    -0.271 OA
HETATM   26  N   UNK N   1      21.980  12.984   2.830  0.00  0.00    -0.337 N 
HETATM   27  C   UNK N   1      21.401  13.208   1.530  0.00  0.00     0.127 C 
HETATM   28  C   UNK N   1      22.851  14.042   3.274  0.00  0.00     0.179 C 
HETATM   29  C   UNK N   1      21.810  14.625   1.153  0.00  0.00     0.022 C 
HETATM   30  C   UNK N   1      22.487  15.220   2.386  0.00  0.00     0.037 C 
BRANCH  28  31
HETATM   31  C   UNK N   1      24.246  13.586   2.920  0.00  0.00     0.241 C 
HETATM   32  O   UNK N   1      24.425  12.618   2.197  0.00  0.00    -0.271 OA
HETATM   33  N   UNK N   1      25.284  14.366   3.315  0.00  0.00    -0.345 N 
HETATM   34  H   UNK N   1      25.080  15.117   3.919  0.00  0.00     0.163 HD
BRANCH  33  35
HETATM   35  C   UNK N   1      26.653  14.187   2.926  0.00  0.00     0.178 C 
HETATM   36  C   UNK N   1      26.844  14.843   1.571  0.00  0.00     0.043 C 
BRANCH  35  37
HETATM   37  C   UNK N   1      27.514  14.894   3.920  0.00  0.00     0.163 C 
HETATM   38  O   UNK N   1      28.484  15.527   3.540  0.00  0.00    -0.648 OA
BRANCH  37  39
HETATM   39  O   UNK N   1      27.224  14.835   5.236  0.00  0.00    -0.775 OA
HETATM   40  H   UNK N   1      27.290  14.399   6.062  0.00  0.00     0.167 HD
ENDBRANCH  37  39
ENDBRANCH  35  37
ENDBRANCH  33  35
ENDBRANCH  28  31
ENDBRANCH  15  24
ENDBRANCH  13  15
ENDBRANCH   6  11
ENDBRANCH   3   6
ENDBRANCH   1   2
BRANCH   1  41
HETATM   41  C   UNK N   1      22.184  18.530   5.172  0.00  0.00     0.073 C 
BRANCH  41  42
HETATM   42  C   UNK N   1      21.788  18.946   3.792  0.00  0.00    -0.056 A 
HETATM   43  C   UNK N   1      20.701  18.342   3.148  0.00  0.00     0.010 A 
HETATM   44  C   UNK N   1      20.288  18.804   1.896  0.00  0.00     0.037 A 
HETATM   45  C   UNK N   1      20.954  19.874   1.291  0.00  0.00     0.065 A 
HETATM   46  C   UNK N   1      22.047  20.468   1.927  0.00  0.00     0.037 A 
HETATM   47  C   UNK N   1      22.462  20.007   3.179  0.00  0.00     0.010 A 
BRANCH  45  48
HETATM   48  O   UNK N   1      20.543  20.333   0.098  0.00  0.00    -0.361 OA
HETATM   49  H   UNK N   1      21.073  20.341  -0.675  0.00  0.00     0.217 HD
ENDBRANCH  45  48
ENDBRANCH  41  42
ENDBRANCH   1  41
BRANCH   1  50
HETATM   50  N   UNK N   1      24.575  18.132   5.566  0.00  0.00    -0.346 N 
HETATM   51  C   UNK N   1      25.781  18.060   4.933  0.00  0.00     0.241 C 
HETATM   52  O   UNK N   1      25.913  17.386   3.922  0.00  0.00    -0.271 OA
HETATM   53  H   UNK N   1      24.542  18.655   6.400  0.00  0.00     0.163 HD
BRANCH  51  54
HETATM   54  C   UNK N   1      26.979  18.843   5.451  0.00  0.00     0.180 C 
BRANCH  54  55
HETATM   55  C   UNK N   1      27.241  20.146   4.679  0.00  0.00     0.009 C 
HETATM   56  C   UNK N   1      27.093  21.347   5.596  0.00  0.00     0.012 C 
HETATM   57  C   UNK N   1      26.242  20.314   3.547  0.00  0.00     0.012 C 
ENDBRANCH  54  55
BRANCH  54  58
HETATM   58  N   UNK N   1      28.148  17.976   5.440  0.00  0.00    -0.346 N 
HETATM   59  C   UNK N   1      28.886  17.684   6.550  0.00  0.00     0.241 C 
HETATM   60  O   UNK N   1      28.527  18.051   7.660  0.00  0.00    -0.271 OA
HETATM   61  H   UNK N   1      28.422  17.579   4.582  0.00  0.00     0.163 HD
BRANCH  59  62
HETATM   62  C   UNK N   1      30.247  17.091   6.376  0.00  0.00     0.176 C 
BRANCH  62  63
HETATM   63  C   UNK N   1      31.278  17.518   7.428  0.00  0.00     0.036 C 
BRANCH  63  64
HETATM   64  C   UNK N   1      32.734  17.559   6.962  0.00  0.00     0.023 C 
BRANCH  64  65
HETATM   65  C   UNK N   1      33.718  17.733   8.117  0.00  0.00     0.138 C 
BRANCH  65  66
HETATM   66  N   UNK N   1      33.335  16.962   9.281  0.00  0.00    -0.227 N 
HETATM   67  C   UNK N   1      34.091  15.871   9.784  0.00  0.00     0.665 C 
HETATM   68  N   UNK N   1      35.217  15.555   9.257  0.00  0.00    -0.235 N 
HETATM   69  N   UNK N   1      33.564  15.084  10.829  0.00  0.00    -0.235 N 
HETATM   70  H   UNK N   1      35.453  15.358   8.322  0.00  0.00     0.174 HD
ATOM     71  HN  UNK N   1      35.994  15.499   9.914  1.00  0.00     0.174 HD
HETATM   72  H   UNK N   1      34.137  14.752  11.557  0.00  0.00     0.174 HD
HETATM   73  H   UNK N   1      32.604  14.863  10.831  0.00  0.00     0.174 HD
HETATM   74  H   UNK N   1      32.504  17.208   9.750  0.00  0.00     0.177 HD
ENDBRANCH  65  66
ENDBRANCH  64  65
ENDBRANCH  63  64
ENDBRANCH  62  63
BRANCH  62  75
HETATM   75  N   UNK N   1      30.068  15.660   6.156  0.00  0.00    -0.346 N 
HETATM   76  C   UNK N   1      30.820  14.779   5.441  0.00  0.00     0.235 C 
HETATM   77  O   UNK N   1      30.562  13.592   5.520  0.00  0.00    -0.272 OA
HETATM   78  H   UNK N   1      29.277  15.270   6.594  0.00  0.00     0.163 HD
BRANCH  76  79
HETATM   79  C   UNK N   1      31.960  15.182   4.574  0.00  0.00     0.216 C 
BRANCH  79  80
HETATM   80  N   UNK N   1      31.458  15.811   3.367  0.00  0.00    -0.417 N 
HETATM   81  C   UNK N   1      32.486  16.734   2.926  0.00  0.00     0.140 C 
HETATM   82  H   UNK N   1      30.558  15.639   2.916  0.00  0.00     0.153 HD
ENDBRANCH  79  80
ENDBRANCH  76  79
ENDBRANCH  62  75
ENDBRANCH  59  62
ENDBRANCH  54  58
ENDBRANCH  51  54
ENDBRANCH   1  50
TORSDOF 28
ENDMDL
MODEL 2
REMARK VINA RESULT:      -7.7      1.701      3.410
REMARK  28 active torsions:
REMARK  status: ('A' for Active; 'I' for Inactive)
REMARK    1  A    between atoms: C_2  and  C_3 
REMARK    2  A    between atoms: C_3  and  C_5 
REMARK    3  A    between atoms: C_5  and  C_6 
REMARK    4  A    between atoms: C_5  and  N_32 
REMARK       I    between atoms: C_6  and  N_8 
REMARK    5  A    between atoms: C_9  and  N_8 
REMARK    6  A    between atoms: C_9  and  C_10 
REMARK    7  A    between atoms: C_9  and  C_17 
REMARK    8  A    between atoms: C_10  and  C_11 
REMARK       I    between atoms: C_17  and  N_19 
REMARK    9  A    between atoms: C_23  and  C_24 
REMARK       I    between atoms: C_24  and  N_26 
REMARK   10  A    between atoms: N_26  and  C_27 
REMARK   11  A    between atoms: C_27  and  C_29 
REMARK   12  A    between atoms: C_29  and  O_31 
REMARK       I    between atoms: N_32  and  C_33 
REMARK   13  A    between atoms: C_33  and  C_35 
REMARK   14  A    between atoms: C_35  and  C_36 
REMARK   15  A    between atoms: C_35  and  N_44 
REMARK   16  A    between atoms: C_36  and  C_37 
REMARK   17  A    between atoms: C_40  and  O_43 
REMARK       I    between atoms: N_44  and  C_45 
REMARK   18  A    between atoms: C_45  and  C_47 
REMARK   19  A    between atoms: C_47  and  C_48 
REMARK   20  A    between atoms: C_47  and  N_51 
REMARK       I    between atoms: N_51  and  C_52 
REMARK   21  A    between atoms: C_52  and  C_54 
REMARK   22  A    between atoms: C_54  and  C_55 
REMARK   23  A    between atoms: C_54  and  N_63 
REMARK   24  A    between atoms: C_55  and  C_56 
REMARK   25  A    between atoms: C_56  and  C_57 
REMARK   26  A    between atoms: C_57  and  N_58 
REMARK       I    between atoms: N_58  and  C_59 
REMARK       I    between atoms: C_59  and  N_62 
REMARK       I    between atoms: N_63  and  C_64 
REMARK   27  A    between atoms: C_64  and  C_66 
REMARK   28  A    between atoms: C_66  and  N_67 
ROOT
HETATM    1  C   UNK N   1      23.457  17.235   5.179  0.00  0.00     0.180 C 
ENDROOT
BRANCH   1   2
HETATM    2  C   UNK N   1      23.202  16.024   6.043  0.00  0.00     0.241 C 
HETATM    3  N   UNK N   1      21.932  15.711   6.394  0.00  0.00    -0.346 N 
HETATM    4  H   UNK N   1      21.203  16.258   6.018  0.00  0.00     0.163 HD
HETATM    5  O   UNK N   1      24.144  15.359   6.438  0.00  0.00    -0.271 OA
BRANCH   3   6
HETATM    6  C   UNK N   1      21.572  14.633   7.284  0.00  0.00     0.180 C 
BRANCH   6   7
HETATM    7  C   UNK N   1      20.698  14.871   8.521  0.00  0.00     0.013 C 
HETATM    8  C   UNK N   1      20.268  16.313   8.686  0.00  0.00     0.012 C 
BRANCH   7   9
HETATM    9  C   UNK N   1      21.281  14.313   9.804  0.00  0.00     0.002 C 
HETATM   10  C   UNK N   1      20.511  13.083  10.251  0.00  0.00     0.005 C 
ENDBRANCH   7   9
ENDBRANCH   6   7
BRANCH   6  11
HETATM   11  C   UNK N   1      21.538  13.274   6.690  0.00  0.00     0.241 C 
HETATM   12  O   UNK N   1      20.482  12.672   6.580  0.00  0.00    -0.271 OA
HETATM   13  N   UNK N   1      22.729  12.659   6.547  0.00  0.00    -0.346 N 
HETATM   14  H   UNK N   1      23.498  13.248   6.369  0.00  0.00     0.163 HD
BRANCH  13  15
HETATM   15  C   UNK N   1      23.021  11.246   6.622  0.00  0.00     0.182 C 
BRANCH  15  16
HETATM   16  C   UNK N   1      23.558  10.760   7.974  0.00  0.00     0.093 C 
BRANCH  16  17
HETATM   17  C   UNK N   1      24.137  11.855   8.805  0.00  0.00     0.028 A 
HETATM   18  C   UNK N   1      24.072  11.971  10.170  0.00  0.00     0.114 A 
HETATM   19  N   UNK N   1      24.734  13.091  10.517  0.00  0.00    -0.360 N 
HETATM   20  C   UNK N   1      25.188  13.626   9.363  0.00  0.00     0.180 A 
ATOM     21  HN  UNK N   1      24.866  13.459  11.458  1.00  0.00     0.166 HD
HETATM   22  N   UNK N   1      24.836  12.882   8.297  0.00  0.00    -0.354 N 
HETATM   23  H   UNK N   1      25.045  13.053   7.351  0.00  0.00     0.166 HD
ENDBRANCH  16  17
ENDBRANCH  15  16
BRANCH  15  24
HETATM   24  C   UNK N   1      23.955  11.088   5.447  0.00  0.00     0.243 C 
HETATM   25  O   UNK N   1      25.147  11.244   5.635  0.00  0.00    -0.271 OA
HETATM   26  N   UNK N   1      23.505  10.553   4.264  0.00  0.00    -0.337 N 
HETATM   27  C   UNK N   1      24.415  10.007   3.290  0.00  0.00     0.127 C 
HETATM   28  C   UNK N   1      22.126  10.550   3.847  0.00  0.00     0.179 C 
HETATM   29  C   UNK N   1      23.524   9.447   2.188  0.00  0.00     0.022 C 
HETATM   30  C   UNK N   1      22.089   9.558   2.697  0.00  0.00     0.037 C 
BRANCH  28  31
HETATM   31  C   UNK N   1      21.873  11.933   3.296  0.00  0.00     0.241 C 
HETATM   32  O   UNK N   1      22.739  12.794   3.341  0.00  0.00    -0.271 OA
HETATM   33  N   UNK N   1      20.710  12.143   2.631  0.00  0.00    -0.345 N 
HETATM   34  H   UNK N   1      20.041  11.422   2.652  0.00  0.00     0.163 HD
BRANCH  33  35
HETATM   35  C   UNK N   1      20.375  13.329   1.898  0.00  0.00     0.178 C 
HETATM   36  C   UNK N   1      20.754  13.105   0.445  0.00  0.00     0.043 C 
BRANCH  35  37
HETATM   37  C   UNK N   1      18.896  13.522   1.976  0.00  0.00     0.163 C 
HETATM   38  O   UNK N   1      18.268  13.034   2.898  0.00  0.00    -0.648 OA
BRANCH  37  39
HETATM   39  O   UNK N   1      18.253  14.236   1.028  0.00  0.00    -0.775 OA
HETATM   40  H   UNK N   1      18.119  14.451   0.126  0.00  0.00     0.167 HD
ENDBRANCH  37  39
ENDBRANCH  35  37
ENDBRANCH  33  35
ENDBRANCH  28  31
ENDBRANCH  15  24
ENDBRANCH  13  15
ENDBRANCH   6  11
ENDBRANCH   3   6
ENDBRANCH   1   2
BRANCH   1  41
HETATM   41  C   UNK N   1      22.376  18.303   5.375  0.00  0.00     0.073 C 
BRANCH  41  42
HETATM   42  C   UNK N   1      21.840  18.769   4.060  0.00  0.00    -0.056 A 
HETATM   43  C   UNK N   1      22.459  19.818   3.367  0.00  0.00     0.010 A 
HETATM   44  C   UNK N   1      22.000  20.181   2.099  0.00  0.00     0.037 A 
HETATM   45  C   UNK N   1      20.929  19.494   1.518  0.00  0.00     0.065 A 
HETATM   46  C   UNK N   1      20.303  18.457   2.215  0.00  0.00     0.037 A 
HETATM   47  C   UNK N   1      20.760  18.093   3.484  0.00  0.00     0.010 A 
BRANCH  45  48
HETATM   48  O   UNK N   1      20.503  19.829   0.290  0.00  0.00    -0.361 OA
HETATM   49  H   UNK N   1      20.734  19.367  -0.492  0.00  0.00     0.217 HD
ENDBRANCH  45  48
ENDBRANCH  41  42
ENDBRANCH   1  41
BRANCH   1  50
HETATM   50  N   UNK N   1      24.785  17.829   5.330  0.00  0.00    -0.346 N 
HETATM   51  C   UNK N   1      25.798  17.797   4.417  0.00  0.00     0.241 C 
HETATM   52  O   UNK N   1      25.668  17.188   3.365  0.00  0.00    -0.271 OA
HETATM   53  H   UNK N   1      24.966  18.298   6.177  0.00  0.00     0.163 HD
BRANCH  51  54
HETATM   54  C   UNK N   1      27.098  18.546   4.672  0.00  0.00     0.180 C 
BRANCH  54  55
HETATM   55  C   UNK N   1      27.070  20.007   4.194  0.00  0.00     0.009 C 
HETATM   56  C   UNK N   1      26.700  20.934   5.337  0.00  0.00     0.012 C 
HETATM   57  C   UNK N   1      26.032  20.197   3.101  0.00  0.00     0.012 C 
ENDBRANCH  54  55
BRANCH  54  58
HETATM   58  N   UNK N   1      28.193  17.809   4.058  0.00  0.00    -0.346 N 
HETATM   59  C   UNK N   1      29.292  17.375   4.741  0.00  0.00     0.241 C 
HETATM   60  O   UNK N   1      29.362  17.484   5.957  0.00  0.00    -0.271 OA
HETATM   61  H   UNK N   1      28.138  17.613   3.095  0.00  0.00     0.163 HD
BRANCH  59  62
HETATM   62  C   UNK N   1      30.501  16.955   3.970  0.00  0.00     0.176 C 
BRANCH  62  63
HETATM   63  C   UNK N   1      31.755  17.802   4.220  0.00  0.00     0.036 C 
BRANCH  63  64
HETATM   64  C   UNK N   1      32.997  17.041   4.685  0.00  0.00     0.023 C 
BRANCH  64  65
HETATM   65  C   UNK N   1      33.326  17.292   6.155  0.00  0.00     0.138 C 
BRANCH  65  66
HETATM   66  N   UNK N   1      32.141  17.559   6.942  0.00  0.00    -0.227 N 
HETATM   67  C   UNK N   1      32.097  17.447   8.357  0.00  0.00     0.665 C 
HETATM   68  N   UNK N   1      33.154  17.167   9.027  0.00  0.00    -0.235 N 
HETATM   69  N   UNK N   1      30.861  17.580   9.025  0.00  0.00    -0.235 N 
HETATM   70  H   UNK N   1      33.791  16.422   8.934  0.00  0.00     0.174 HD
ATOM     71  HN  UNK N   1      33.370  17.822   9.778  1.00  0.00     0.174 HD
HETATM   72  H   UNK N   1      30.793  18.059   9.882  0.00  0.00     0.174 HD
HETATM   73  H   UNK N   1      30.052  17.184   8.626  0.00  0.00     0.174 HD
HETATM   74  H   UNK N   1      31.321  17.833   6.472  0.00  0.00     0.177 HD
ENDBRANCH  65  66
ENDBRANCH  64  65
ENDBRANCH  63  64
ENDBRANCH  62  63
BRANCH  62  75
HETATM   75  N   UNK N   1      30.628  15.509   4.123  0.00  0.00    -0.346 N 
HETATM   76  C   UNK N   1      30.100  14.497   3.382  0.00  0.00     0.235 C 
HETATM   77  O   UNK N   1      30.464  13.357   3.607  0.00  0.00    -0.272 OA
HETATM   78  H   UNK N   1      31.182  15.221   4.883  0.00  0.00     0.163 HD
BRANCH  76  79
HETATM   79  C   UNK N   1      29.108  14.703   2.292  0.00  0.00     0.216 C 
BRANCH  79  80
HETATM   80  N   UNK N   1      28.104  13.656   2.340  0.00  0.00    -0.417 N 
HETATM   81  C   UNK N   1      27.118  14.078   3.317  0.00  0.00     0.140 C 
HETATM   82  H   UNK N   1      28.094  12.792   1.796  0.00  0.00     0.153 HD
ENDBRANCH  79  80
ENDBRANCH  76  79
ENDBRANCH  62  75
ENDBRANCH  59  62
ENDBRANCH  54  58
ENDBRANCH  51  54
ENDBRANCH   1  50
TORSDOF 28
ENDMDL
MODEL 3
REMARK VINA RESULT:      -7.3      2.885      8.677
REMARK  28 active torsions:
REMARK  status: ('A' for Active; 'I' for Inactive)
REMARK    1  A    between atoms: C_2  and  C_3 
REMARK    2  A    between atoms: C_3  and  C_5 
REMARK    3  A    between atoms: C_5  and  C_6 
REMARK    4  A    between atoms: C_5  and  N_32 
REMARK       I    between atoms: C_6  and  N_8 
REMARK    5  A    between atoms: C_9  and  N_8 
REMARK    6  A    between atoms: C_9  and  C_10 
REMARK    7  A    between atoms: C_9  and  C_17 
REMARK    8  A    between atoms: C_10  and  C_11 
REMARK       I    between atoms: C_17  and  N_19 
REMARK    9  A    between atoms: C_23  and  C_24 
REMARK       I    between atoms: C_24  and  N_26 
REMARK   10  A    between atoms: N_26  and  C_27 
REMARK   11  A    between atoms: C_27  and  C_29 
REMARK   12  A    between atoms: C_29  and  O_31 
REMARK       I    between atoms: N_32  and  C_33 
REMARK   13  A    between atoms: C_33  and  C_35 
REMARK   14  A    between atoms: C_35  and  C_36 
REMARK   15  A    between atoms: C_35  and  N_44 
REMARK   16  A    between atoms: C_36  and  C_37 
REMARK   17  A    between atoms: C_40  and  O_43 
REMARK       I    between atoms: N_44  and  C_45 
REMARK   18  A    between atoms: C_45  and  C_47 
REMARK   19  A    between atoms: C_47  and  C_48 
REMARK   20  A    between atoms: C_47  and  N_51 
REMARK       I    between atoms: N_51  and  C_52 
REMARK   21  A    between atoms: C_52  and  C_54 
REMARK   22  A    between atoms: C_54  and  C_55 
REMARK   23  A    between atoms: C_54  and  N_63 
REMARK   24  A    between atoms: C_55  and  C_56 
REMARK   25  A    between atoms: C_56  and  C_57 
REMARK   26  A    between atoms: C_57  and  N_58 
REMARK       I    between atoms: N_58  and  C_59 
REMARK       I    between atoms: C_59  and  N_62 
REMARK       I    between atoms: N_63  and  C_64 
REMARK   27  A    between atoms: C_64  and  C_66 
REMARK   28  A    between atoms: C_66  and  N_67 
ROOT
HETATM    1  C   UNK N   1      29.845  17.466   6.765  0.00  0.00     0.180 C 
ENDROOT
BRANCH   1   2
HETATM    2  C   UNK N   1      28.451  18.037   6.673  0.00  0.00     0.241 C 
HETATM    3  N   UNK N   1      27.847  18.130   5.464  0.00  0.00    -0.346 N 
HETATM    4  H   UNK N   1      28.321  17.760   4.684  0.00  0.00     0.163 HD
HETATM    5  O   UNK N   1      27.897  18.435   7.683  0.00  0.00    -0.271 OA
BRANCH   3   6
HETATM    6  C   UNK N   1      26.555  18.736   5.241  0.00  0.00     0.180 C 
BRANCH   6   7
HETATM    7  C   UNK N   1      26.419  20.211   4.844  0.00  0.00     0.013 C 
HETATM    8  C   UNK N   1      26.637  20.460   3.367  0.00  0.00     0.012 C 
BRANCH   7   9
HETATM    9  C   UNK N   1      27.243  21.156   5.697  0.00  0.00     0.002 C 
HETATM   10  C   UNK N   1      26.478  21.553   6.947  0.00  0.00     0.005 C 
ENDBRANCH   7   9
ENDBRANCH   6   7
BRANCH   6  11
HETATM   11  C   UNK N   1      25.466  17.823   4.816  0.00  0.00     0.241 C 
HETATM   12  O   UNK N   1      25.634  17.045   3.892  0.00  0.00    -0.271 OA
HETATM   13  N   UNK N   1      24.239  18.096   5.306  0.00  0.00    -0.346 N 
HETATM   14  H   UNK N   1      24.215  18.495   6.206  0.00  0.00     0.163 HD
BRANCH  13  15
HETATM   15  C   UNK N   1      22.957  17.875   4.680  0.00  0.00     0.182 C 
BRANCH  15  16
HETATM   16  C   UNK N   1      22.544  18.931   3.647  0.00  0.00     0.093 C 
BRANCH  16  17
HETATM   17  C   UNK N   1      21.175  18.713   3.097  0.00  0.00     0.028 A 
HETATM   18  C   UNK N   1      20.725  17.600   2.433  0.00  0.00     0.114 A 
HETATM   19  N   UNK N   1      19.431  17.804   2.123  0.00  0.00    -0.360 N 
HETATM   20  C   UNK N   1      19.123  19.028   2.604  0.00  0.00     0.180 A 
ATOM     21  HN  UNK N   1      18.810  17.166   1.627  1.00  0.00     0.166 HD
HETATM   22  N   UNK N   1      20.179  19.605   3.210  0.00  0.00    -0.354 N 
HETATM   23  H   UNK N   1      20.213  20.489   3.642  0.00  0.00     0.166 HD
ENDBRANCH  16  17
ENDBRANCH  15  16
BRANCH  15  24
HETATM   24  C   UNK N   1      22.067  17.757   5.893  0.00  0.00     0.243 C 
HETATM   25  O   UNK N   1      21.821  18.766   6.527  0.00  0.00    -0.271 OA
HETATM   26  N   UNK N   1      21.365  16.601   6.135  0.00  0.00    -0.337 N 
HETATM   27  C   UNK N   1      20.219  16.583   7.007  0.00  0.00     0.127 C 
HETATM   28  C   UNK N   1      21.734  15.306   5.622  0.00  0.00     0.179 C 
HETATM   29  C   UNK N   1      19.689  15.156   6.934  0.00  0.00     0.022 C 
HETATM   30  C   UNK N   1      20.496  14.453   5.845  0.00  0.00     0.037 C 
BRANCH  28  31
HETATM   31  C   UNK N   1      22.829  14.811   6.536  0.00  0.00     0.241 C 
HETATM   32  O   UNK N   1      22.585  14.482   7.686  0.00  0.00    -0.271 OA
HETATM   33  N   UNK N   1      24.059  14.614   5.996  0.00  0.00    -0.345 N 
HETATM   34  H   UNK N   1      24.201  14.924   5.073  0.00  0.00     0.163 HD
BRANCH  33  35
HETATM   35  C   UNK N   1      25.167  13.992   6.661  0.00  0.00     0.178 C 
HETATM   36  C   UNK N   1      25.576  12.776   5.850  0.00  0.00     0.043 C 
BRANCH  35  37
HETATM   37  C   UNK N   1      26.305  14.958   6.670  0.00  0.00     0.163 C 
HETATM   38  O   UNK N   1      27.188  14.864   5.835  0.00  0.00    -0.648 OA
BRANCH  37  39
HETATM   39  O   UNK N   1      26.360  15.936   7.598  0.00  0.00    -0.775 OA
HETATM   40  H   UNK N   1      26.660  16.780   7.870  0.00  0.00     0.167 HD
ENDBRANCH  37  39
ENDBRANCH  35  37
ENDBRANCH  33  35
ENDBRANCH  28  31
ENDBRANCH  15  24
ENDBRANCH  13  15
ENDBRANCH   6  11
ENDBRANCH   3   6
ENDBRANCH   1   2
BRANCH   1  41
HETATM   41  C   UNK N   1      30.399  17.562   8.190  0.00  0.00     0.073 C 
BRANCH  41  42
HETATM   42  C   UNK N   1      31.766  16.965   8.275  0.00  0.00    -0.056 A 
HETATM   43  C   UNK N   1      32.879  17.656   7.779  0.00  0.00     0.010 A 
HETATM   44  C   UNK N   1      34.161  17.125   7.948  0.00  0.00     0.037 A 
HETATM   45  C   UNK N   1      34.332  15.910   8.617  0.00  0.00     0.065 A 
HETATM   46  C   UNK N   1      33.220  15.214   9.100  0.00  0.00     0.037 A 
HETATM   47  C   UNK N   1      31.938  15.743   8.931  0.00  0.00     0.010 A 
BRANCH  45  48
HETATM   48  O   UNK N   1      35.565  15.411   8.800  0.00  0.00    -0.361 OA
HETATM   49  H   UNK N   1      36.303  15.622   8.263  0.00  0.00     0.217 HD
ENDBRANCH  45  48
ENDBRANCH  41  42
ENDBRANCH   1  41
BRANCH   1  50
HETATM   50  N   UNK N   1      29.985  16.100   6.260  0.00  0.00    -0.346 N 
HETATM   51  C   UNK N   1      30.259  15.734   4.975  0.00  0.00     0.241 C 
HETATM   52  O   UNK N   1      30.364  16.577   4.096  0.00  0.00    -0.271 OA
HETATM   53  H   UNK N   1      29.869  15.373   6.913  0.00  0.00     0.163 HD
BRANCH  51  54
HETATM   54  C   UNK N   1      30.475  14.271   4.613  0.00  0.00     0.180 C 
BRANCH  54  55
HETATM   55  C   UNK N   1      31.949  13.907   4.374  0.00  0.00     0.009 C 
HETATM   56  C   UNK N   1      32.851  14.702   5.301  0.00  0.00     0.012 C 
HETATM   57  C   UNK N   1      32.361  14.236   2.949  0.00  0.00     0.012 C 
ENDBRANCH  54  55
BRANCH  54  58
HETATM   58  N   UNK N   1      29.655  13.948   3.455  0.00  0.00    -0.346 N 
HETATM   59  C   UNK N   1      28.850  12.849   3.379  0.00  0.00     0.241 C 
HETATM   60  O   UNK N   1      28.682  12.121   4.348  0.00  0.00    -0.271 OA
HETATM   61  H   UNK N   1      29.684  14.556   2.682  0.00  0.00     0.163 HD
BRANCH  59  62
HETATM   62  C   UNK N   1      28.338  12.420   2.041  0.00  0.00     0.176 C 
BRANCH  62  63
HETATM   63  C   UNK N   1      29.319  11.582   1.211  0.00  0.00     0.036 C 
BRANCH  63  64
HETATM   64  C   UNK N   1      29.908  12.266  -0.023  0.00  0.00     0.023 C 
BRANCH  64  65
HETATM   65  C   UNK N   1      30.147  11.294  -1.177  0.00  0.00     0.138 C 
BRANCH  65  66
HETATM   66  N   UNK N   1      30.968  11.874  -2.218  0.00  0.00    -0.227 N 
HETATM   67  C   UNK N   1      32.035  11.184  -2.852  0.00  0.00     0.665 C 
HETATM   68  N   UNK N   1      32.281   9.956  -2.573  0.00  0.00    -0.235 N 
HETATM   69  N   UNK N   1      32.876  11.879  -3.747  0.00  0.00    -0.235 N 
HETATM   70  H   UNK N   1      32.439   9.516  -1.706  0.00  0.00     0.174 HD
ATOM     71  HN  UNK N   1      32.318   9.335  -3.380  1.00  0.00     0.174 HD
HETATM   72  H   UNK N   1      33.200  11.456  -4.574  0.00  0.00     0.174 HD
HETATM   73  H   UNK N   1      33.144  12.803  -3.539  0.00  0.00     0.174 HD
HETATM   74  H   UNK N   1      30.777  12.797  -2.503  0.00  0.00     0.177 HD
ENDBRANCH  65  66
ENDBRANCH  64  65
ENDBRANCH  63  64
ENDBRANCH  62  63
BRANCH  62  75
HETATM   75  N   UNK N   1      27.000  11.877   2.246  0.00  0.00    -0.346 N 
HETATM   76  C   UNK N   1      25.784  12.485   2.179  0.00  0.00     0.235 C 
HETATM   77  O   UNK N   1      24.782  11.796   2.242  0.00  0.00    -0.272 OA
HETATM   78  H   UNK N   1      26.972  10.919   2.469  0.00  0.00     0.163 HD
BRANCH  76  79
HETATM   79  C   UNK N   1      25.603  13.953   2.016  0.00  0.00     0.216 C 
BRANCH  79  80
HETATM   80  N   UNK N   1      24.362  14.218   1.314  0.00  0.00    -0.417 N 
HETATM   81  C   UNK N   1      23.473  14.846   2.272  0.00  0.00     0.140 C 
HETATM   82  H   UNK N   1      24.153  14.003   0.337  0.00  0.00     0.153 HD
ENDBRANCH  79  80
ENDBRANCH  76  79
ENDBRANCH  62  75
ENDBRANCH  59  62
ENDBRANCH  54  58
ENDBRANCH  51  54
ENDBRANCH   1  50
TORSDOF 28
ENDMDL
MODEL 4
REMARK VINA RESULT:      -7.2      2.709     10.688
REMARK  28 active torsions:
REMARK  status: ('A' for Active; 'I' for Inactive)
REMARK    1  A    between atoms: C_2  and  C_3 
REMARK    2  A    between atoms: C_3  and  C_5 
REMARK    3  A    between atoms: C_5  and  C_6 
REMARK    4  A    between atoms: C_5  and  N_32 
REMARK       I    between atoms: C_6  and  N_8 
REMARK    5  A    between atoms: C_9  and  N_8 
REMARK    6  A    between atoms: C_9  and  C_10 
REMARK    7  A    between atoms: C_9  and  C_17 
REMARK    8  A    between atoms: C_10  and  C_11 
REMARK       I    between atoms: C_17  and  N_19 
REMARK    9  A    between atoms: C_23  and  C_24 
REMARK       I    between atoms: C_24  and  N_26 
REMARK   10  A    between atoms: N_26  and  C_27 
REMARK   11  A    between atoms: C_27  and  C_29 
REMARK   12  A    between atoms: C_29  and  O_31 
REMARK       I    between atoms: N_32  and  C_33 
REMARK   13  A    between atoms: C_33  and  C_35 
REMARK   14  A    between atoms: C_35  and  C_36 
REMARK   15  A    between atoms: C_35  and  N_44 
REMARK   16  A    between atoms: C_36  and  C_37 
REMARK   17  A    between atoms: C_40  and  O_43 
REMARK       I    between atoms: N_44  and  C_45 
REMARK   18  A    between atoms: C_45  and  C_47 
REMARK   19  A    between atoms: C_47  and  C_48 
REMARK   20  A    between atoms: C_47  and  N_51 
REMARK       I    between atoms: N_51  and  C_52 
REMARK   21  A    between atoms: C_52  and  C_54 
REMARK   22  A    between atoms: C_54  and  C_55 
REMARK   23  A    between atoms: C_54  and  N_63 
REMARK   24  A    between atoms: C_55  and  C_56 
REMARK   25  A    between atoms: C_56  and  C_57 
REMARK   26  A    between atoms: C_57  and  N_58 
REMARK       I    between atoms: N_58  and  C_59 
REMARK       I    between atoms: C_59  and  N_62 
REMARK       I    between atoms: N_63  and  C_64 
REMARK   27  A    between atoms: C_64  and  C_66 
REMARK   28  A    between atoms: C_66  and  N_67 
ROOT
HETATM    1  C   UNK N   1      27.678  16.235   4.330  0.00  0.00     0.180 C 
ENDROOT
BRANCH   1   2
HETATM    2  C   UNK N   1      28.978  15.543   4.660  0.00  0.00     0.241 C 
HETATM    3  N   UNK N   1      30.091  16.283   4.883  0.00  0.00    -0.346 N 
HETATM    4  H   UNK N   1      29.997  17.264   4.883  0.00  0.00     0.163 HD
HETATM    5  O   UNK N   1      29.019  14.325   4.691  0.00  0.00    -0.271 OA
BRANCH   3   6
HETATM    6  C   UNK N   1      31.404  15.733   5.119  0.00  0.00     0.180 C 
BRANCH   6   7
HETATM    7  C   UNK N   1      32.522  15.850   4.076  0.00  0.00     0.013 C 
HETATM    8  C   UNK N   1      32.335  17.008   3.120  0.00  0.00     0.012 C 
BRANCH   7   9
HETATM    9  C   UNK N   1      32.813  14.558   3.338  0.00  0.00     0.002 C 
HETATM   10  C   UNK N   1      34.083  14.685   2.515  0.00  0.00     0.005 C 
ENDBRANCH   7   9
ENDBRANCH   6   7
BRANCH   6  11
HETATM   11  C   UNK N   1      31.820  15.611   6.538  0.00  0.00     0.241 C 
HETATM   12  O   UNK N   1      31.465  14.655   7.208  0.00  0.00    -0.271 OA
HETATM   13  N   UNK N   1      32.355  16.715   7.097  0.00  0.00    -0.346 N 
HETATM   14  H   UNK N   1      32.864  17.300   6.490  0.00  0.00     0.163 HD
BRANCH  13  15
HETATM   15  C   UNK N   1      32.277  17.149   8.472  0.00  0.00     0.182 C 
BRANCH  15  16
HETATM   16  C   UNK N   1      31.424  18.402   8.715  0.00  0.00     0.093 C 
BRANCH  16  17
HETATM   17  C   UNK N   1      30.012  18.091   9.080  0.00  0.00     0.028 A 
HETATM   18  C   UNK N   1      28.889  18.747   8.645  0.00  0.00     0.114 A 
HETATM   19  N   UNK N   1      27.822  18.140   9.198  0.00  0.00    -0.360 N 
HETATM   20  C   UNK N   1      28.316  17.134   9.951  0.00  0.00     0.180 A 
ATOM     21  HN  UNK N   1      26.841  18.390   9.074  1.00  0.00     0.166 HD
HETATM   22  N   UNK N   1      29.661  17.081   9.891  0.00  0.00    -0.354 N 
HETATM   23  H   UNK N   1      30.257  16.442  10.344  0.00  0.00     0.166 HD
ENDBRANCH  16  17
ENDBRANCH  15  16
BRANCH  15  24
HETATM   24  C   UNK N   1      33.742  17.273   8.813  0.00  0.00     0.243 C 
HETATM   25  O   UNK N   1      34.340  18.261   8.430  0.00  0.00    -0.271 OA
HETATM   26  N   UNK N   1      34.321  16.423   9.725  0.00  0.00    -0.337 N 
HETATM   27  C   UNK N   1      35.560  16.753  10.380  0.00  0.00     0.127 C 
HETATM   28  C   UNK N   1      33.809  15.118  10.056  0.00  0.00     0.179 C 
HETATM   29  C   UNK N   1      35.805  15.612  11.359  0.00  0.00     0.022 C 
HETATM   30  C   UNK N   1      34.550  14.742  11.329  0.00  0.00     0.037 C 
BRANCH  28  31
HETATM   31  C   UNK N   1      34.276  14.212   8.943  0.00  0.00     0.241 C 
HETATM   32  O   UNK N   1      34.906  14.656   7.995  0.00  0.00    -0.271 OA
HETATM   33  N   UNK N   1      34.095  12.876   9.099  0.00  0.00    -0.345 N 
HETATM   34  H   UNK N   1      33.557  12.581   9.869  0.00  0.00     0.163 HD
BRANCH  33  35
HETATM   35  C   UNK N   1      34.623  11.860   8.236  0.00  0.00     0.178 C 
HETATM   36  C   UNK N   1      34.638  10.553   9.007  0.00  0.00     0.043 C 
BRANCH  35  37
HETATM   37  C   UNK N   1      33.698  11.712   7.073  0.00  0.00     0.163 C 
HETATM   38  O   UNK N   1      32.767  10.928   7.134  0.00  0.00    -0.648 OA
BRANCH  37  39
HETATM   39  O   UNK N   1      33.889  12.443   5.955  0.00  0.00    -0.775 OA
HETATM   40  H   UNK N   1      33.562  12.795   5.151  0.00  0.00     0.167 HD
ENDBRANCH  37  39
ENDBRANCH  35  37
ENDBRANCH  33  35
ENDBRANCH  28  31
ENDBRANCH  15  24
ENDBRANCH  13  15
ENDBRANCH   6  11
ENDBRANCH   3   6
ENDBRANCH   1   2
BRANCH   1  41
HETATM   41  C   UNK N   1      27.907  17.477   3.464  0.00  0.00     0.073 C 
BRANCH  41  42
HETATM   42  C   UNK N   1      27.441  18.713   4.164  0.00  0.00    -0.056 A 
HETATM   43  C   UNK N   1      26.122  19.161   4.019  0.00  0.00     0.010 A 
HETATM   44  C   UNK N   1      25.677  20.265   4.752  0.00  0.00     0.037 A 
HETATM   45  C   UNK N   1      26.546  20.916   5.634  0.00  0.00     0.065 A 
HETATM   46  C   UNK N   1      27.865  20.476   5.768  0.00  0.00     0.037 A 
HETATM   47  C   UNK N   1      28.312  19.373   5.036  0.00  0.00     0.010 A 
BRANCH  45  48
HETATM   48  O   UNK N   1      26.112  21.962   6.354  0.00  0.00    -0.361 OA
HETATM   49  H   UNK N   1      26.656  22.475   6.918  0.00  0.00     0.217 HD
ENDBRANCH  45  48
ENDBRANCH  41  42
ENDBRANCH   1  41
BRANCH   1  50
HETATM   50  N   UNK N   1      26.661  15.377   3.723  0.00  0.00    -0.346 N 
HETATM   51  C   UNK N   1      25.332  15.352   4.028  0.00  0.00     0.241 C 
HETATM   52  O   UNK N   1      24.886  16.057   4.921  0.00  0.00    -0.271 OA
HETATM   53  H   UNK N   1      26.968  14.754   3.025  0.00  0.00     0.163 HD
BRANCH  51  54
HETATM   54  C   UNK N   1      24.371  14.472   3.241  0.00  0.00     0.180 C 
BRANCH  54  55
HETATM   55  C   UNK N   1      24.860  14.141   1.823  0.00  0.00     0.009 C 
HETATM   56  C   UNK N   1      23.731  14.301   0.820  0.00  0.00     0.012 C 
HETATM   57  C   UNK N   1      25.341  12.703   1.740  0.00  0.00     0.012 C 
ENDBRANCH  54  55
BRANCH  54  58
HETATM   58  N   UNK N   1      23.064  15.112   3.215  0.00  0.00    -0.346 N 
HETATM   59  C   UNK N   1      22.030  14.761   4.033  0.00  0.00     0.241 C 
HETATM   60  O   UNK N   1      22.187  13.947   4.933  0.00  0.00    -0.271 OA
HETATM   61  H   UNK N   1      22.917  15.840   2.568  0.00  0.00     0.163 HD
BRANCH  59  62
HETATM   62  C   UNK N   1      20.649  15.219   3.690  0.00  0.00     0.176 C 
BRANCH  62  63
HETATM   63  C   UNK N   1      20.119  16.374   4.549  0.00  0.00     0.036 C 
BRANCH  63  64
HETATM   64  C   UNK N   1      19.217  15.979   5.719  0.00  0.00     0.023 C 
BRANCH  64  65
HETATM   65  C   UNK N   1      19.990  15.802   7.025  0.00  0.00     0.138 C 
BRANCH  65  66
HETATM   66  N   UNK N   1      20.127  17.046   7.752  0.00  0.00    -0.227 N 
HETATM   67  C   UNK N   1      19.278  17.426   8.824  0.00  0.00     0.665 C 
HETATM   68  N   UNK N   1      18.371  16.630   9.258  0.00  0.00    -0.235 N 
HETATM   69  N   UNK N   1      19.391  18.721   9.373  0.00  0.00    -0.235 N 
HETATM   70  H   UNK N   1      17.647  16.163   8.780  0.00  0.00     0.174 HD
ATOM     71  HN  UNK N   1      18.404  16.450  10.261  1.00  0.00     0.174 HD
HETATM   72  H   UNK N   1      19.316  18.873  10.342  0.00  0.00     0.174 HD
HETATM   73  H   UNK N   1      19.548  19.487   8.774  0.00  0.00     0.174 HD
HETATM   74  H   UNK N   1      20.848  17.662   7.488  0.00  0.00     0.177 HD
ENDBRANCH  65  66
ENDBRANCH  64  65
ENDBRANCH  63  64
ENDBRANCH  62  63
BRANCH  62  75
HETATM   75  N   UNK N   1      20.599  15.385   2.241  0.00  0.00    -0.346 N 
HETATM   76  C   UNK N   1      20.461  16.511   1.489  0.00  0.00     0.235 C 
HETATM   77  O   UNK N   1      20.595  16.427   0.282  0.00  0.00    -0.272 OA
HETATM   78  H   UNK N   1      20.675  14.550   1.726  0.00  0.00     0.163 HD
BRANCH  76  79
HETATM   79  C   UNK N   1      20.171  17.854   2.060  0.00  0.00     0.216 C 
BRANCH  79  80
HETATM   80  N   UNK N   1      20.295  18.863   1.023  0.00  0.00    -0.417 N 
HETATM   81  C   UNK N   1      20.780  20.064   1.676  0.00  0.00     0.140 C 
HETATM   82  H   UNK N   1      20.083  18.750   0.031  0.00  0.00     0.153 HD
ENDBRANCH  79  80
ENDBRANCH  76  79
ENDBRANCH  62  75
ENDBRANCH  59  62
ENDBRANCH  54  58
ENDBRANCH  51  54
ENDBRANCH   1  50
TORSDOF 28
ENDMDL
MODEL 5
REMARK VINA RESULT:      -7.2      3.235     11.560
REMARK  28 active torsions:
REMARK  status: ('A' for Active; 'I' for Inactive)
REMARK    1  A    between atoms: C_2  and  C_3 
REMARK    2  A    between atoms: C_3  and  C_5 
REMARK    3  A    between atoms: C_5  and  C_6 
REMARK    4  A    between atoms: C_5  and  N_32 
REMARK       I    between atoms: C_6  and  N_8 
REMARK    5  A    between atoms: C_9  and  N_8 
REMARK    6  A    between atoms: C_9  and  C_10 
REMARK    7  A    between atoms: C_9  and  C_17 
REMARK    8  A    between atoms: C_10  and  C_11 
REMARK       I    between atoms: C_17  and  N_19 
REMARK    9  A    between atoms: C_23  and  C_24 
REMARK       I    between atoms: C_24  and  N_26 
REMARK   10  A    between atoms: N_26  and  C_27 
REMARK   11  A    between atoms: C_27  and  C_29 
REMARK   12  A    between atoms: C_29  and  O_31 
REMARK       I    between atoms: N_32  and  C_33 
REMARK   13  A    between atoms: C_33  and  C_35 
REMARK   14  A    between atoms: C_35  and  C_36 
REMARK   15  A    between atoms: C_35  and  N_44 
REMARK   16  A    between atoms: C_36  and  C_37 
REMARK   17  A    between atoms: C_40  and  O_43 
REMARK       I    between atoms: N_44  and  C_45 
REMARK   18  A    between atoms: C_45  and  C_47 
REMARK   19  A    between atoms: C_47  and  C_48 
REMARK   20  A    between atoms: C_47  and  N_51 
REMARK       I    between atoms: N_51  and  C_52 
REMARK   21  A    between atoms: C_52  and  C_54 
REMARK   22  A    between atoms: C_54  and  C_55 
REMARK   23  A    between atoms: C_54  and  N_63 
REMARK   24  A    between atoms: C_55  and  C_56 
REMARK   25  A    between atoms: C_56  and  C_57 
REMARK   26  A    between atoms: C_57  and  N_58 
REMARK       I    between atoms: N_58  and  C_59 
REMARK       I    between atoms: C_59  and  N_62 
REMARK       I    between atoms: N_63  and  C_64 
REMARK   27  A    between atoms: C_64  and  C_66 
REMARK   28  A    between atoms: C_66  and  N_67 
ROOT
HETATM    1  C   UNK N   1      29.032  16.186   5.667  0.00  0.00     0.180 C 
ENDROOT
BRANCH   1   2
HETATM    2  C   UNK N   1      30.037  15.076   5.475  0.00  0.00     0.241 C 
HETATM    3  N   UNK N   1      31.355  15.376   5.395  0.00  0.00    -0.346 N 
HETATM    4  H   UNK N   1      31.622  16.315   5.528  0.00  0.00     0.163 HD
HETATM    5  O   UNK N   1      29.647  13.926   5.365  0.00  0.00    -0.271 OA
BRANCH   3   6
HETATM    6  C   UNK N   1      32.397  14.413   5.126  0.00  0.00     0.180 C 
BRANCH   6   7
HETATM    7  C   UNK N   1      33.178  14.424   3.806  0.00  0.00     0.013 C 
HETATM    8  C   UNK N   1      33.378  15.812   3.236  0.00  0.00     0.012 C 
BRANCH   7   9
HETATM    9  C   UNK N   1      32.638  13.465   2.764  0.00  0.00     0.002 C 
HETATM   10  C   UNK N   1      33.737  13.043   1.804  0.00  0.00     0.005 C 
ENDBRANCH   7   9
ENDBRANCH   6   7
BRANCH   6  11
HETATM   11  C   UNK N   1      33.087  13.843   6.309  0.00  0.00     0.241 C 
HETATM   12  O   UNK N   1      32.522  13.033   7.026  0.00  0.00    -0.271 OA
HETATM   13  N   UNK N   1      34.223  14.463   6.689  0.00  0.00    -0.346 N 
HETATM   14  H   UNK N   1      34.754  14.868   5.966  0.00  0.00     0.163 HD
BRANCH  13  15
HETATM   15  C   UNK N   1      34.760  14.607   8.022  0.00  0.00     0.182 C 
BRANCH  15  16
HETATM   16  C   UNK N   1      34.634  16.011   8.629  0.00  0.00     0.093 C 
BRANCH  16  17
HETATM   17  C   UNK N   1      33.229  16.511   8.668  0.00  0.00     0.028 A 
HETATM   18  C   UNK N   1      32.142  15.863   9.196  0.00  0.00     0.114 A 
HETATM   19  N   UNK N   1      31.073  16.666   9.041  0.00  0.00    -0.360 N 
HETATM   20  C   UNK N   1      31.530  17.779   8.429  0.00  0.00     0.180 A 
ATOM     21  HN  UNK N   1      30.113  16.474   9.327  1.00  0.00     0.166 HD
HETATM   22  N   UNK N   1      32.855  17.709   8.193  0.00  0.00    -0.354 N 
HETATM   23  H   UNK N   1      33.425  18.388   7.764  0.00  0.00     0.166 HD
ENDBRANCH  16  17
ENDBRANCH  15  16
BRANCH  15  24
HETATM   24  C   UNK N   1      36.168  14.104   7.815  0.00  0.00     0.243 C 
HETATM   25  O   UNK N   1      36.686  14.274   6.728  0.00  0.00    -0.271 OA
HETATM   26  N   UNK N   1      36.923  13.684   8.884  0.00  0.00    -0.337 N 
HETATM   27  C   UNK N   1      38.359  13.599   8.804  0.00  0.00     0.127 C 
HETATM   28  C   UNK N   1      36.375  13.225  10.135  0.00  0.00     0.179 C 
HETATM   29  C   UNK N   1      38.808  13.188  10.201  0.00  0.00     0.022 C 
HETATM   30  C   UNK N   1      37.563  13.230  11.083  0.00  0.00     0.037 C 
BRANCH  28  31
HETATM   31  C   UNK N   1      35.963  11.793   9.888  0.00  0.00     0.241 C 
HETATM   32  O   UNK N   1      36.799  10.926   9.682  0.00  0.00    -0.271 OA
HETATM   33  N   UNK N   1      34.652  11.480  10.041  0.00  0.00    -0.345 N 
HETATM   34  H   UNK N   1      34.023  12.225  10.179  0.00  0.00     0.163 HD
BRANCH  33  35
HETATM   35  C   UNK N   1      34.107  10.154  10.017  0.00  0.00     0.178 C 
HETATM   36  C   UNK N   1      33.559   9.849  11.400  0.00  0.00     0.043 C 
BRANCH  35  37
HETATM   37  C   UNK N   1      32.973  10.134   9.046  0.00  0.00     0.163 C 
HETATM   38  O   UNK N   1      31.899  10.617   9.356  0.00  0.00    -0.648 OA
BRANCH  37  39
HETATM   39  O   UNK N   1      33.135   9.585   7.824  0.00  0.00    -0.775 OA
HETATM   40  H   UNK N   1      33.372   8.853   7.289  0.00  0.00     0.167 HD
ENDBRANCH  37  39
ENDBRANCH  35  37
ENDBRANCH  33  35
ENDBRANCH  28  31
ENDBRANCH  15  24
ENDBRANCH  13  15
ENDBRANCH   6  11
ENDBRANCH   3   6
ENDBRANCH   1   2
BRANCH   1  41
HETATM   41  C   UNK N   1      29.557  17.519   5.124  0.00  0.00     0.073 C 
BRANCH  41  42
HETATM   42  C   UNK N   1      28.704  18.657   5.580  0.00  0.00    -0.056 A 
HETATM   43  C   UNK N   1      28.115  19.525   4.652  0.00  0.00     0.010 A 
HETATM   44  C   UNK N   1      27.246  20.529   5.089  0.00  0.00     0.037 A 
HETATM   45  C   UNK N   1      26.960  20.661   6.452  0.00  0.00     0.065 A 
HETATM   46  C   UNK N   1      27.559  19.804   7.379  0.00  0.00     0.037 A 
HETATM   47  C   UNK N   1      28.427  18.800   6.943  0.00  0.00     0.010 A 
BRANCH  45  48
HETATM   48  O   UNK N   1      26.109  21.611   6.870  0.00  0.00    -0.361 OA
HETATM   49  H   UNK N   1      25.236  21.443   7.166  0.00  0.00     0.217 HD
ENDBRANCH  45  48
ENDBRANCH  41  42
ENDBRANCH   1  41
BRANCH   1  50
HETATM   50  N   UNK N   1      27.701  15.911   5.128  0.00  0.00    -0.346 N 
HETATM   51  C   UNK N   1      26.553  15.745   5.844  0.00  0.00     0.241 C 
HETATM   52  O   UNK N   1      26.573  15.769   7.066  0.00  0.00    -0.271 OA
HETATM   53  H   UNK N   1      27.627  15.837   4.149  0.00  0.00     0.163 HD
BRANCH  51  54
HETATM   54  C   UNK N   1      25.216  15.561   5.140  0.00  0.00     0.180 C 
BRANCH  54  55
HETATM   55  C   UNK N   1      25.185  16.144   3.718  0.00  0.00     0.009 C 
HETATM   56  C   UNK N   1      24.691  17.580   3.743  0.00  0.00     0.012 C 
HETATM   57  C   UNK N   1      24.238  15.354   2.831  0.00  0.00     0.012 C 
ENDBRANCH  54  55
BRANCH  54  58
HETATM   58  N   UNK N   1      24.165  16.131   5.969  0.00  0.00    -0.346 N 
HETATM   59  C   UNK N   1      23.085  15.427   6.416  0.00  0.00     0.241 C 
HETATM   60  O   UNK N   1      23.000  14.221   6.234  0.00  0.00    -0.271 OA
HETATM   61  H   UNK N   1      24.238  17.080   6.222  0.00  0.00     0.163 HD
BRANCH  59  62
HETATM   62  C   UNK N   1      21.905  16.175   6.945  0.00  0.00     0.176 C 
BRANCH  62  63
HETATM   63  C   UNK N   1      21.127  16.984   5.899  0.00  0.00     0.036 C 
BRANCH  63  64
HETATM   64  C   UNK N   1      20.568  16.189   4.718  0.00  0.00     0.023 C 
BRANCH  64  65
HETATM   65  C   UNK N   1      20.942  16.799   3.368  0.00  0.00     0.138 C 
BRANCH  65  66
HETATM   66  N   UNK N   1      20.069  16.350   2.305  0.00  0.00    -0.227 N 
HETATM   67  C   UNK N   1      19.727  17.146   1.180  0.00  0.00     0.665 C 
HETATM   68  N   UNK N   1      20.249  18.306   1.014  0.00  0.00    -0.235 N 
HETATM   69  N   UNK N   1      18.751  16.683   0.273  0.00  0.00    -0.235 N 
HETATM   70  H   UNK N   1      20.289  19.082   1.619  0.00  0.00     0.174 HD
ATOM     71  HN  UNK N   1      20.694  18.448   0.108  1.00  0.00     0.174 HD
HETATM   72  H   UNK N   1      18.853  16.816  -0.697  0.00  0.00     0.174 HD
HETATM   73  H   UNK N   1      17.953  16.219   0.617  0.00  0.00     0.174 HD
HETATM   74  H   UNK N   1      19.691  15.443   2.364  0.00  0.00     0.177 HD
ENDBRANCH  65  66
ENDBRANCH  64  65
ENDBRANCH  63  64
ENDBRANCH  62  63
BRANCH  62  75
HETATM   75  N   UNK N   1      21.144  15.247   7.775  0.00  0.00    -0.346 N 
HETATM   76  C   UNK N   1      20.105  15.475   8.624  0.00  0.00     0.235 C 
HETATM   77  O   UNK N   1      19.521  14.521   9.104  0.00  0.00    -0.272 OA
HETATM   78  H   UNK N   1      21.428  14.307   7.711  0.00  0.00     0.163 HD
BRANCH  76  79
HETATM   79  C   UNK N   1      19.622  16.835   8.991  0.00  0.00     0.216 C 
BRANCH  79  80
HETATM   80  N   UNK N   1      18.306  17.056   8.422  0.00  0.00    -0.417 N 
HETATM   81  C   UNK N   1      17.437  17.418   9.526  0.00  0.00     0.140 C 
HETATM   82  H   UNK N   1      18.042  16.974   7.440  0.00  0.00     0.153 HD
ENDBRANCH  79  80
ENDBRANCH  76  79
ENDBRANCH  62  75
ENDBRANCH  59  62
ENDBRANCH  54  58
ENDBRANCH  51  54
ENDBRANCH   1  50
TORSDOF 28
ENDMDL
MODEL 6
REMARK VINA RESULT:      -7.2      2.790      7.415
REMARK  28 active torsions:
REMARK  status: ('A' for Active; 'I' for Inactive)
REMARK    1  A    between atoms: C_2  and  C_3 
REMARK    2  A    between atoms: C_3  and  C_5 
REMARK    3  A    between atoms: C_5  and  C_6 
REMARK    4  A    between atoms: C_5  and  N_32 
REMARK       I    between atoms: C_6  and  N_8 
REMARK    5  A    between atoms: C_9  and  N_8 
REMARK    6  A    between atoms: C_9  and  C_10 
REMARK    7  A    between atoms: C_9  and  C_17 
REMARK    8  A    between atoms: C_10  and  C_11 
REMARK       I    between atoms: C_17  and  N_19 
REMARK    9  A    between atoms: C_23  and  C_24 
REMARK       I    between atoms: C_24  and  N_26 
REMARK   10  A    between atoms: N_26  and  C_27 
REMARK   11  A    between atoms: C_27  and  C_29 
REMARK   12  A    between atoms: C_29  and  O_31 
REMARK       I    between atoms: N_32  and  C_33 
REMARK   13  A    between atoms: C_33  and  C_35 
REMARK   14  A    between atoms: C_35  and  C_36 
REMARK   15  A    between atoms: C_35  and  N_44 
REMARK   16  A    between atoms: C_36  and  C_37 
REMARK   17  A    between atoms: C_40  and  O_43 
REMARK       I    between atoms: N_44  and  C_45 
REMARK   18  A    between atoms: C_45  and  C_47 
REMARK   19  A    between atoms: C_47  and  C_48 
REMARK   20  A    between atoms: C_47  and  N_51 
REMARK       I    between atoms: N_51  and  C_52 
REMARK   21  A    between atoms: C_52  and  C_54 
REMARK   22  A    between atoms: C_54  and  C_55 
REMARK   23  A    between atoms: C_54  and  N_63 
REMARK   24  A    between atoms: C_55  and  C_56 
REMARK   25  A    between atoms: C_56  and  C_57 
REMARK   26  A    between atoms: C_57  and  N_58 
REMARK       I    between atoms: N_58  and  C_59 
REMARK       I    between atoms: C_59  and  N_62 
REMARK       I    between atoms: N_63  and  C_64 
REMARK   27  A    between atoms: C_64  and  C_66 
REMARK   28  A    between atoms: C_66  and  N_67 
ROOT
HETATM    1  C   UNK N   1      29.453  16.439   5.245  0.00  0.00     0.180 C 
ENDROOT
BRANCH   1   2
HETATM    2  C   UNK N   1      28.091  16.974   5.618  0.00  0.00     0.241 C 
HETATM    3  N   UNK N   1      27.290  17.488   4.656  0.00  0.00    -0.346 N 
HETATM    4  H   UNK N   1      27.603  17.438   3.723  0.00  0.00     0.163 HD
HETATM    5  O   UNK N   1      27.742  16.964   6.787  0.00  0.00    -0.271 OA
BRANCH   3   6
HETATM    6  C   UNK N   1      26.009  18.105   4.903  0.00  0.00     0.180 C 
BRANCH   6   7
HETATM    7  C   UNK N   1      25.838  19.630   4.896  0.00  0.00     0.013 C 
HETATM    8  C   UNK N   1      25.254  20.165   3.606  0.00  0.00     0.012 C 
BRANCH   7   9
HETATM    9  C   UNK N   1      27.085  20.390   5.301  0.00  0.00     0.002 C 
HETATM   10  C   UNK N   1      27.108  20.619   6.802  0.00  0.00     0.005 C 
ENDBRANCH   7   9
ENDBRANCH   6   7
BRANCH   6  11
HETATM   11  C   UNK N   1      24.812  17.295   4.568  0.00  0.00     0.241 C 
HETATM   12  O   UNK N   1      24.712  16.761   3.475  0.00  0.00    -0.271 OA
HETATM   13  N   UNK N   1      23.761  17.416   5.403  0.00  0.00    -0.346 N 
HETATM   14  H   UNK N   1      23.980  17.591   6.347  0.00  0.00     0.163 HD
BRANCH  13  15
HETATM   15  C   UNK N   1      22.354  17.321   5.090  0.00  0.00     0.182 C 
BRANCH  15  16
HETATM   16  C   UNK N   1      21.601  18.657   5.052  0.00  0.00     0.093 C 
BRANCH  16  17
HETATM   17  C   UNK N   1      21.117  19.021   3.689  0.00  0.00     0.028 A 
HETATM   18  C   UNK N   1      20.021  18.509   3.043  0.00  0.00     0.114 A 
HETATM   19  N   UNK N   1      19.932  19.116   1.846  0.00  0.00    -0.360 N 
HETATM   20  C   UNK N   1      20.966  19.983   1.790  0.00  0.00     0.180 A 
ATOM     21  HN  UNK N   1      19.226  18.956   1.127  1.00  0.00     0.166 HD
HETATM   22  N   UNK N   1      21.708  19.945   2.914  0.00  0.00    -0.354 N 
HETATM   23  H   UNK N   1      22.509  20.477   3.123  0.00  0.00     0.166 HD
ENDBRANCH  16  17
ENDBRANCH  15  16
BRANCH  15  24
HETATM   24  C   UNK N   1      21.897  16.337   6.140  0.00  0.00     0.243 C 
HETATM   25  O   UNK N   1      21.697  16.750   7.266  0.00  0.00    -0.271 OA
HETATM   26  N   UNK N   1      21.491  15.074   5.783  0.00  0.00    -0.337 N 
HETATM   27  C   UNK N   1      20.676  14.270   6.656  0.00  0.00     0.127 C 
HETATM   28  C   UNK N   1      21.888  14.406   4.569  0.00  0.00     0.179 C 
HETATM   29  C   UNK N   1      20.379  13.003   5.864  0.00  0.00     0.022 C 
HETATM   30  C   UNK N   1      20.923  13.238   4.457  0.00  0.00     0.037 C 
BRANCH  28  31
HETATM   31  C   UNK N   1      23.270  13.864   4.846  0.00  0.00     0.241 C 
HETATM   32  O   UNK N   1      23.592  13.511   5.970  0.00  0.00    -0.271 OA
HETATM   33  N   UNK N   1      24.088  13.654   3.784  0.00  0.00    -0.345 N 
HETATM   34  H   UNK N   1      23.784  13.983   2.908  0.00  0.00     0.163 HD
BRANCH  33  35
HETATM   35  C   UNK N   1      25.358  12.990   3.834  0.00  0.00     0.178 C 
HETATM   36  C   UNK N   1      25.691  12.510   2.433  0.00  0.00     0.043 C 
BRANCH  35  37
HETATM   37  C   UNK N   1      26.388  13.989   4.247  0.00  0.00     0.163 C 
HETATM   38  O   UNK N   1      27.108  14.502   3.408  0.00  0.00    -0.648 OA
BRANCH  37  39
HETATM   39  O   UNK N   1      26.525  14.326   5.547  0.00  0.00    -0.775 OA
HETATM   40  H   UNK N   1      26.972  14.235   6.365  0.00  0.00     0.167 HD
ENDBRANCH  37  39
ENDBRANCH  35  37
ENDBRANCH  33  35
ENDBRANCH  28  31
ENDBRANCH  15  24
ENDBRANCH  13  15
ENDBRANCH   6  11
ENDBRANCH   3   6
ENDBRANCH   1   2
BRANCH   1  41
HETATM   41  C   UNK N   1      29.857  16.869   3.832  0.00  0.00     0.073 C 
BRANCH  41  42
HETATM   42  C   UNK N   1      31.049  16.101   3.358  0.00  0.00    -0.056 A 
HETATM   43  C   UNK N   1      32.249  16.759   3.058  0.00  0.00     0.010 A 
HETATM   44  C   UNK N   1      33.380  16.019   2.705  0.00  0.00     0.037 A 
HETATM   45  C   UNK N   1      33.316  14.623   2.658  0.00  0.00     0.065 A 
HETATM   46  C   UNK N   1      32.115  13.968   2.945  0.00  0.00     0.037 A 
HETATM   47  C   UNK N   1      30.983  14.706   3.298  0.00  0.00     0.010 A 
BRANCH  45  48
HETATM   48  O   UNK N   1      34.408  13.910   2.340  0.00  0.00    -0.361 OA
HETATM   49  H   UNK N   1      35.210  14.284   2.033  0.00  0.00     0.217 HD
ENDBRANCH  45  48
ENDBRANCH  41  42
ENDBRANCH   1  41
BRANCH   1  50
HETATM   50  N   UNK N   1      30.520  16.757   6.194  0.00  0.00    -0.346 N 
HETATM   51  C   UNK N   1      31.296  15.865   6.872  0.00  0.00     0.241 C 
HETATM   52  O   UNK N   1      31.105  14.663   6.760  0.00  0.00    -0.271 OA
HETATM   53  H   UNK N   1      30.694  17.712   6.359  0.00  0.00     0.163 HD
BRANCH  51  54
HETATM   54  C   UNK N   1      32.440  16.343   7.756  0.00  0.00     0.180 C 
BRANCH  54  55
HETATM   55  C   UNK N   1      33.169  17.578   7.203  0.00  0.00     0.009 C 
HETATM   56  C   UNK N   1      34.140  17.176   6.108  0.00  0.00     0.012 C 
HETATM   57  C   UNK N   1      33.974  18.262   8.295  0.00  0.00     0.012 C 
ENDBRANCH  54  55
BRANCH  54  58
HETATM   58  N   UNK N   1      33.361  15.237   7.972  0.00  0.00    -0.346 N 
HETATM   59  C   UNK N   1      33.713  14.774   9.206  0.00  0.00     0.241 C 
HETATM   60  O   UNK N   1      33.171  15.198  10.217  0.00  0.00    -0.271 OA
HETATM   61  H   UNK N   1      33.753  14.799   7.183  0.00  0.00     0.163 HD
BRANCH  59  62
HETATM   62  C   UNK N   1      34.915  13.894   9.331  0.00  0.00     0.176 C 
BRANCH  62  63
HETATM   63  C   UNK N   1      34.688  12.596  10.117  0.00  0.00     0.036 C 
BRANCH  63  64
HETATM   64  C   UNK N   1      35.624  12.359  11.303  0.00  0.00     0.023 C 
BRANCH  64  65
HETATM   65  C   UNK N   1      35.001  12.770  12.636  0.00  0.00     0.138 C 
BRANCH  65  66
HETATM   66  N   UNK N   1      35.613  13.964  13.179  0.00  0.00    -0.227 N 
HETATM   67  C   UNK N   1      36.636  13.942  14.164  0.00  0.00     0.665 C 
HETATM   68  N   UNK N   1      37.128  12.832  14.575  0.00  0.00    -0.235 N 
HETATM   69  N   UNK N   1      37.065  15.155  14.744  0.00  0.00    -0.235 N 
HETATM   70  H   UNK N   1      36.686  12.032  14.941  0.00  0.00     0.174 HD
ATOM     71  HN  UNK N   1      38.144  12.767  14.514  1.00  0.00     0.174 HD
HETATM   72  H   UNK N   1      38.016  15.318  14.940  0.00  0.00     0.174 HD
HETATM   73  H   UNK N   1      36.401  15.850  14.958  0.00  0.00     0.174 HD
HETATM   74  H   UNK N   1      35.304  14.838  12.849  0.00  0.00     0.177 HD
ENDBRANCH  65  66
ENDBRANCH  64  65
ENDBRANCH  63  64
ENDBRANCH  62  63
BRANCH  62  75
HETATM   75  N   UNK N   1      35.502  13.777   8.000  0.00  0.00    -0.346 N 
HETATM   76  C   UNK N   1      36.799  13.607   7.623  0.00  0.00     0.235 C 
HETATM   77  O   UNK N   1      37.043  13.384   6.452  0.00  0.00    -0.272 OA
HETATM   78  H   UNK N   1      34.859  13.829   7.258  0.00  0.00     0.163 HD
BRANCH  76  79
HETATM   79  C   UNK N   1      37.947  13.662   8.569  0.00  0.00     0.216 C 
BRANCH  79  80
HETATM   80  N   UNK N   1      38.441  12.320   8.816  0.00  0.00    -0.417 N 
HETATM   81  C   UNK N   1      39.835  12.314   8.415  0.00  0.00     0.140 C 
HETATM   82  H   UNK N   1      37.912  11.534   9.197  0.00  0.00     0.153 HD
ENDBRANCH  79  80
ENDBRANCH  76  79
ENDBRANCH  62  75
ENDBRANCH  59  62
ENDBRANCH  54  58
ENDBRANCH  51  54
ENDBRANCH   1  50
TORSDOF 28
ENDMDL
MODEL 7
REMARK VINA RESULT:      -7.1      2.071      3.551
REMARK  28 active torsions:
REMARK  status: ('A' for Active; 'I' for Inactive)
REMARK    1  A    between atoms: C_2  and  C_3 
REMARK    2  A    between atoms: C_3  and  C_5 
REMARK    3  A    between atoms: C_5  and  C_6 
REMARK    4  A    between atoms: C_5  and  N_32 
REMARK       I    between atoms: C_6  and  N_8 
REMARK    5  A    between atoms: C_9  and  N_8 
REMARK    6  A    between atoms: C_9  and  C_10 
REMARK    7  A    between atoms: C_9  and  C_17 
REMARK    8  A    between atoms: C_10  and  C_11 
REMARK       I    between atoms: C_17  and  N_19 
REMARK    9  A    between atoms: C_23  and  C_24 
REMARK       I    between atoms: C_24  and  N_26 
REMARK   10  A    between atoms: N_26  and  C_27 
REMARK   11  A    between atoms: C_27  and  C_29 
REMARK   12  A    between atoms: C_29  and  O_31 
REMARK       I    between atoms: N_32  and  C_33 
REMARK   13  A    between atoms: C_33  and  C_35 
REMARK   14  A    between atoms: C_35  and  C_36 
REMARK   15  A    between atoms: C_35  and  N_44 
REMARK   16  A    between atoms: C_36  and  C_37 
REMARK   17  A    between atoms: C_40  and  O_43 
REMARK       I    between atoms: N_44  and  C_45 
REMARK   18  A    between atoms: C_45  and  C_47 
REMARK   19  A    between atoms: C_47  and  C_48 
REMARK   20  A    between atoms: C_47  and  N_51 
REMARK       I    between atoms: N_51  and  C_52 
REMARK   21  A    between atoms: C_52  and  C_54 
REMARK   22  A    between atoms: C_54  and  C_55 
REMARK   23  A    between atoms: C_54  and  N_63 
REMARK   24  A    between atoms: C_55  and  C_56 
REMARK   25  A    between atoms: C_56  and  C_57 
REMARK   26  A    between atoms: C_57  and  N_58 
REMARK       I    between atoms: N_58  and  C_59 
REMARK       I    between atoms: C_59  and  N_62 
REMARK       I    between atoms: N_63  and  C_64 
REMARK   27  A    between atoms: C_64  and  C_66 
REMARK   28  A    between atoms: C_66  and  N_67 
ROOT
HETATM    1  C   UNK N   1      23.363  17.499   4.914  0.00  0.00     0.180 C 
ENDROOT
BRANCH   1   2
HETATM    2  C   UNK N   1      22.968  16.225   5.620  0.00  0.00     0.241 C 
HETATM    3  N   UNK N   1      21.660  15.982   5.877  0.00  0.00    -0.346 N 
HETATM    4  H   UNK N   1      20.998  16.625   5.534  0.00  0.00     0.163 HD
HETATM    5  O   UNK N   1      23.833  15.444   5.979  0.00  0.00    -0.271 OA
BRANCH   3   6
HETATM    6  C   UNK N   1      21.171  14.845   6.620  0.00  0.00     0.180 C 
BRANCH   6   7
HETATM    7  C   UNK N   1      20.534  15.007   8.006  0.00  0.00     0.013 C 
HETATM    8  C   UNK N   1      19.972  16.390   8.253  0.00  0.00     0.012 C 
BRANCH   7   9
HETATM    9  C   UNK N   1      21.420  14.552   9.148  0.00  0.00     0.002 C 
HETATM   10  C   UNK N   1      21.248  13.064   9.400  0.00  0.00     0.005 C 
ENDBRANCH   7   9
ENDBRANCH   6   7
BRANCH   6  11
HETATM   11  C   UNK N   1      20.749  13.669   5.821  0.00  0.00     0.241 C 
HETATM   12  O   UNK N   1      19.764  13.024   6.139  0.00  0.00    -0.271 OA
HETATM   13  N   UNK N   1      21.647  13.207   4.926  0.00  0.00    -0.346 N 
HETATM   14  H   UNK N   1      22.236  13.884   4.521  0.00  0.00     0.163 HD
BRANCH  13  15
HETATM   15  C   UNK N   1      21.852  11.847   4.486  0.00  0.00     0.182 C 
BRANCH  15  16
HETATM   16  C   UNK N   1      21.894  10.798   5.604  0.00  0.00     0.093 C 
BRANCH  16  17
HETATM   17  C   UNK N   1      21.415   9.454   5.169  0.00  0.00     0.028 A 
HETATM   18  C   UNK N   1      20.166   8.924   5.369  0.00  0.00     0.114 A 
HETATM   19  N   UNK N   1      20.147   7.701   4.807  0.00  0.00    -0.360 N 
HETATM   20  C   UNK N   1      21.375   7.516   4.278  0.00  0.00     0.180 A 
ATOM     21  HN  UNK N   1      19.364   7.048   4.785  1.00  0.00     0.166 HD
HETATM   22  N   UNK N   1      22.172   8.583   4.485  0.00  0.00    -0.354 N 
HETATM   23  H   UNK N   1      23.106   8.698   4.197  0.00  0.00     0.166 HD
ENDBRANCH  16  17
ENDBRANCH  15  16
BRANCH  15  24
HETATM   24  C   UNK N   1      23.118  12.000   3.678  0.00  0.00     0.243 C 
HETATM   25  O   UNK N   1      24.091  12.490   4.220  0.00  0.00    -0.271 OA
HETATM   26  N   UNK N   1      23.242  11.391   2.453  0.00  0.00    -0.337 N 
HETATM   27  C   UNK N   1      24.532  11.159   1.854  0.00  0.00     0.127 C 
HETATM   28  C   UNK N   1      22.130  11.000   1.625  0.00  0.00     0.179 C 
HETATM   29  C   UNK N   1      24.238  10.396   0.568  0.00  0.00     0.022 C 
HETATM   30  C   UNK N   1      22.747  10.071   0.592  0.00  0.00     0.037 C 
BRANCH  28  31
HETATM   31  C   UNK N   1      21.686  12.265   0.930  0.00  0.00     0.241 C 
HETATM   32  O   UNK N   1      22.387  12.793   0.080  0.00  0.00    -0.271 OA
HETATM   33  N   UNK N   1      20.430  12.713   1.180  0.00  0.00    -0.345 N 
HETATM   34  H   UNK N   1      19.924  12.263   1.894  0.00  0.00     0.163 HD
BRANCH  33  35
HETATM   35  C   UNK N   1      19.779  13.788   0.489  0.00  0.00     0.178 C 
HETATM   36  C   UNK N   1      18.281  13.553   0.563  0.00  0.00     0.043 C 
BRANCH  35  37
HETATM   37  C   UNK N   1      20.094  15.059   1.207  0.00  0.00     0.163 C 
HETATM   38  O   UNK N   1      20.892  15.845   0.728  0.00  0.00    -0.648 OA
BRANCH  37  39
HETATM   39  O   UNK N   1      19.497  15.341   2.383  0.00  0.00    -0.775 OA
HETATM   40  H   UNK N   1      19.348  15.930   3.096  0.00  0.00     0.167 HD
ENDBRANCH  37  39
ENDBRANCH  35  37
ENDBRANCH  33  35
ENDBRANCH  28  31
ENDBRANCH  15  24
ENDBRANCH  13  15
ENDBRANCH   6  11
ENDBRANCH   3   6
ENDBRANCH   1   2
BRANCH   1  41
HETATM   41  C   UNK N   1      22.338  18.613   5.150  0.00  0.00     0.073 C 
BRANCH  41  42
HETATM   42  C   UNK N   1      21.828  19.156   3.854  0.00  0.00    -0.056 A 
HETATM   43  C   UNK N   1      22.559  20.119   3.147  0.00  0.00     0.010 A 
HETATM   44  C   UNK N   1      22.114  20.549   1.894  0.00  0.00     0.037 A 
HETATM   45  C   UNK N   1      20.945  20.013   1.344  0.00  0.00     0.065 A 
HETATM   46  C   UNK N   1      20.209  19.062   2.057  0.00  0.00     0.037 A 
HETATM   47  C   UNK N   1      20.653  18.631   3.309  0.00  0.00     0.010 A 
BRANCH  45  48
HETATM   48  O   UNK N   1      20.530  20.410   0.131  0.00  0.00    -0.361 OA
HETATM   49  H   UNK N   1      20.013  19.884  -0.447  0.00  0.00     0.217 HD
ENDBRANCH  45  48
ENDBRANCH  41  42
ENDBRANCH   1  41
BRANCH   1  50
HETATM   50  N   UNK N   1      24.710  17.980   5.220  0.00  0.00    -0.346 N 
HETATM   51  C   UNK N   1      25.810  17.875   4.421  0.00  0.00     0.241 C 
HETATM   52  O   UNK N   1      25.747  17.291   3.349  0.00  0.00    -0.271 OA
HETATM   53  H   UNK N   1      24.834  18.422   6.090  0.00  0.00     0.163 HD
BRANCH  51  54
HETATM   54  C   UNK N   1      27.131  18.512   4.830  0.00  0.00     0.180 C 
BRANCH  54  55
HETATM   55  C   UNK N   1      27.225  20.007   4.487  0.00  0.00     0.009 C 
HETATM   56  C   UNK N   1      26.795  20.853   5.672  0.00  0.00     0.012 C 
HETATM   57  C   UNK N   1      26.308  20.353   3.326  0.00  0.00     0.012 C 
ENDBRANCH  54  55
BRANCH  54  58
HETATM   58  N   UNK N   1      28.221  17.760   4.226  0.00  0.00    -0.346 N 
HETATM   59  C   UNK N   1      29.360  17.410   4.890  0.00  0.00     0.241 C 
HETATM   60  O   UNK N   1      29.477  17.613   6.091  0.00  0.00    -0.271 OA
HETATM   61  H   UNK N   1      28.132  17.491   3.283  0.00  0.00     0.163 HD
BRANCH  59  62
HETATM   62  C   UNK N   1      30.549  16.965   4.101  0.00  0.00     0.176 C 
BRANCH  62  63
HETATM   63  C   UNK N   1      31.843  17.736   4.390  0.00  0.00     0.036 C 
BRANCH  63  64
HETATM   64  C   UNK N   1      33.058  16.889   4.771  0.00  0.00     0.023 C 
BRANCH  64  65
HETATM   65  C   UNK N   1      33.204  16.714   6.282  0.00  0.00     0.138 C 
BRANCH  65  66
HETATM   66  N   UNK N   1      32.275  17.544   7.020  0.00  0.00    -0.227 N 
HETATM   67  C   UNK N   1      32.062  17.430   8.419  0.00  0.00     0.665 C 
HETATM   68  N   UNK N   1      32.754  16.613   9.124  0.00  0.00    -0.235 N 
HETATM   69  N   UNK N   1      31.029  18.176   9.026  0.00  0.00    -0.235 N 
HETATM   70  H   UNK N   1      32.910  15.647   9.015  0.00  0.00     0.174 HD
ATOM     71  HN  UNK N   1      33.218  17.032   9.929  1.00  0.00     0.174 HD
HETATM   72  H   UNK N   1      31.152  18.593   9.909  0.00  0.00     0.174 HD
HETATM   73  H   UNK N   1      30.169  18.280   8.557  0.00  0.00     0.174 HD
HETATM   74  H   UNK N   1      31.763  18.224   6.525  0.00  0.00     0.177 HD
ENDBRANCH  65  66
ENDBRANCH  64  65
ENDBRANCH  63  64
ENDBRANCH  62  63
BRANCH  62  75
HETATM   75  N   UNK N   1      30.603  15.510   4.186  0.00  0.00    -0.346 N 
HETATM   76  C   UNK N   1      30.069  14.560   3.371  0.00  0.00     0.235 C 
HETATM   77  O   UNK N   1      30.369  13.395   3.555  0.00  0.00    -0.272 OA
HETATM   78  H   UNK N   1      31.104  15.159   4.957  0.00  0.00     0.163 HD
BRANCH  76  79
HETATM   79  C   UNK N   1      29.144  14.865   2.245  0.00  0.00     0.216 C 
BRANCH  79  80
HETATM   80  N   UNK N   1      27.779  14.917   2.735  0.00  0.00    -0.417 N 
HETATM   81  C   UNK N   1      27.098  13.765   2.174  0.00  0.00     0.140 C 
HETATM   82  H   UNK N   1      27.376  15.624   3.351  0.00  0.00     0.153 HD
ENDBRANCH  79  80
ENDBRANCH  76  79
ENDBRANCH  62  75
ENDBRANCH  59  62
ENDBRANCH  54  58
ENDBRANCH  51  54
ENDBRANCH   1  50
TORSDOF 28
ENDMDL
MODEL 8
REMARK VINA RESULT:      -7.1      2.926      7.787
REMARK  28 active torsions:
REMARK  status: ('A' for Active; 'I' for Inactive)
REMARK    1  A    between atoms: C_2  and  C_3 
REMARK    2  A    between atoms: C_3  and  C_5 
REMARK    3  A    between atoms: C_5  and  C_6 
REMARK    4  A    between atoms: C_5  and  N_32 
REMARK       I    between atoms: C_6  and  N_8 
REMARK    5  A    between atoms: C_9  and  N_8 
REMARK    6  A    between atoms: C_9  and  C_10 
REMARK    7  A    between atoms: C_9  and  C_17 
REMARK    8  A    between atoms: C_10  and  C_11 
REMARK       I    between atoms: C_17  and  N_19 
REMARK    9  A    between atoms: C_23  and  C_24 
REMARK       I    between atoms: C_24  and  N_26 
REMARK   10  A    between atoms: N_26  and  C_27 
REMARK   11  A    between atoms: C_27  and  C_29 
REMARK   12  A    between atoms: C_29  and  O_31 
REMARK       I    between atoms: N_32  and  C_33 
REMARK   13  A    between atoms: C_33  and  C_35 
REMARK   14  A    between atoms: C_35  and  C_36 
REMARK   15  A    between atoms: C_35  and  N_44 
REMARK   16  A    between atoms: C_36  and  C_37 
REMARK   17  A    between atoms: C_40  and  O_43 
REMARK       I    between atoms: N_44  and  C_45 
REMARK   18  A    between atoms: C_45  and  C_47 
REMARK   19  A    between atoms: C_47  and  C_48 
REMARK   20  A    between atoms: C_47  and  N_51 
REMARK       I    between atoms: N_51  and  C_52 
REMARK   21  A    between atoms: C_52  and  C_54 
REMARK   22  A    between atoms: C_54  and  C_55 
REMARK   23  A    between atoms: C_54  and  N_63 
REMARK   24  A    between atoms: C_55  and  C_56 
REMARK   25  A    between atoms: C_56  and  C_57 
REMARK   26  A    between atoms: C_57  and  N_58 
REMARK       I    between atoms: N_58  and  C_59 
REMARK       I    between atoms: C_59  and  N_62 
REMARK       I    between atoms: N_63  and  C_64 
REMARK   27  A    between atoms: C_64  and  C_66 
REMARK   28  A    between atoms: C_66  and  N_67 
ROOT
HETATM    1  C   UNK N   1      29.735  16.608   5.377  0.00  0.00     0.180 C 
ENDROOT
BRANCH   1   2
HETATM    2  C   UNK N   1      28.346  17.148   5.622  0.00  0.00     0.241 C 
HETATM    3  N   UNK N   1      27.752  17.914   4.676  0.00  0.00    -0.346 N 
HETATM    4  H   UNK N   1      28.229  18.042   3.824  0.00  0.00     0.163 HD
HETATM    5  O   UNK N   1      27.789  16.913   6.681  0.00  0.00    -0.271 OA
BRANCH   3   6
HETATM    6  C   UNK N   1      26.469  18.556   4.832  0.00  0.00     0.180 C 
BRANCH   6   7
HETATM    7  C   UNK N   1      26.298  20.066   4.631  0.00  0.00     0.013 C 
HETATM    8  C   UNK N   1      26.263  20.480   3.175  0.00  0.00     0.012 C 
BRANCH   7   9
HETATM    9  C   UNK N   1      27.275  20.908   5.427  0.00  0.00     0.002 C 
HETATM   10  C   UNK N   1      26.992  20.795   6.915  0.00  0.00     0.005 C 
ENDBRANCH   7   9
ENDBRANCH   6   7
BRANCH   6  11
HETATM   11  C   UNK N   1      25.276  17.708   4.592  0.00  0.00     0.241 C 
HETATM   12  O   UNK N   1      25.293  16.842   3.733  0.00  0.00    -0.271 OA
HETATM   13  N   UNK N   1      24.127  18.125   5.163  0.00  0.00    -0.346 N 
HETATM   14  H   UNK N   1      24.221  18.600   6.020  0.00  0.00     0.163 HD
BRANCH  13  15
HETATM   15  C   UNK N   1      22.777  17.963   4.677  0.00  0.00     0.182 C 
BRANCH  15  16
HETATM   16  C   UNK N   1      22.171  19.202   4.004  0.00  0.00     0.093 C 
BRANCH  16  17
HETATM   17  C   UNK N   1      20.955  18.898   3.197  0.00  0.00     0.028 A 
HETATM   18  C   UNK N   1      19.898  19.739   2.957  0.00  0.00     0.114 A 
HETATM   19  N   UNK N   1      19.023  19.081   2.174  0.00  0.00    -0.360 N 
HETATM   20  C   UNK N   1      19.564  17.864   1.952  0.00  0.00     0.180 A 
ATOM     21  HN  UNK N   1      18.133  19.431   1.818  1.00  0.00     0.166 HD
HETATM   22  N   UNK N   1      20.754  17.729   2.569  0.00  0.00    -0.354 N 
HETATM   23  H   UNK N   1      21.348  16.944   2.561  0.00  0.00     0.166 HD
ENDBRANCH  16  17
ENDBRANCH  15  16
BRANCH  15  24
HETATM   24  C   UNK N   1      22.081  17.486   5.928  0.00  0.00     0.243 C 
HETATM   25  O   UNK N   1      21.735  18.317   6.746  0.00  0.00    -0.271 OA
HETATM   26  N   UNK N   1      21.640  16.189   6.031  0.00  0.00    -0.337 N 
HETATM   27  C   UNK N   1      20.634  15.809   6.989  0.00  0.00     0.127 C 
HETATM   28  C   UNK N   1      22.174  15.087   5.271  0.00  0.00     0.179 C 
HETATM   29  C   UNK N   1      20.371  14.332   6.721  0.00  0.00     0.022 C 
HETATM   30  C   UNK N   1      21.151  13.979   5.457  0.00  0.00     0.037 C 
BRANCH  28  31
HETATM   31  C   UNK N   1      23.446  14.692   5.981  0.00  0.00     0.241 C 
HETATM   32  O   UNK N   1      23.516  14.711   7.200  0.00  0.00    -0.271 OA
HETATM   33  N   UNK N   1      24.456  14.185   5.229  0.00  0.00    -0.345 N 
HETATM   34  H   UNK N   1      24.352  14.221   4.251  0.00  0.00     0.163 HD
BRANCH  33  35
HETATM   35  C   UNK N   1      25.661  13.601   5.743  0.00  0.00     0.178 C 
HETATM   36  C   UNK N   1      25.456  12.099   5.824  0.00  0.00     0.043 C 
BRANCH  35  37
HETATM   37  C   UNK N   1      26.761  13.876   4.771  0.00  0.00     0.163 C 
HETATM   38  O   UNK N   1      27.917  13.654   5.084  0.00  0.00    -0.648 OA
BRANCH  37  39
HETATM   39  O   UNK N   1      26.479  14.367   3.546  0.00  0.00    -0.775 OA
HETATM   40  H   UNK N   1      26.148  14.242   2.679  0.00  0.00     0.167 HD
ENDBRANCH  37  39
ENDBRANCH  35  37
ENDBRANCH  33  35
ENDBRANCH  28  31
ENDBRANCH  15  24
ENDBRANCH  13  15
ENDBRANCH   6  11
ENDBRANCH   3   6
ENDBRANCH   1   2
BRANCH   1  41
HETATM   41  C   UNK N   1      30.233  16.955   3.971  0.00  0.00     0.073 C 
BRANCH  41  42
HETATM   42  C   UNK N   1      31.338  16.040   3.553  0.00  0.00    -0.056 A 
HETATM   43  C   UNK N   1      31.140  14.654   3.508  0.00  0.00     0.010 A 
HETATM   44  C   UNK N   1      32.154  13.821   3.028  0.00  0.00     0.037 A 
HETATM   45  C   UNK N   1      33.361  14.371   2.587  0.00  0.00     0.065 A 
HETATM   46  C   UNK N   1      33.564  15.752   2.644  0.00  0.00     0.037 A 
HETATM   47  C   UNK N   1      32.551  16.587   3.124  0.00  0.00     0.010 A 
BRANCH  45  48
HETATM   48  O   UNK N   1      34.327  13.572   2.105  0.00  0.00    -0.361 OA
HETATM   49  H   UNK N   1      34.623  13.581   1.216  0.00  0.00     0.217 HD
ENDBRANCH  45  48
ENDBRANCH  41  42
ENDBRANCH   1  41
BRANCH   1  50
HETATM   50  N   UNK N   1      30.731  16.997   6.375  0.00  0.00    -0.346 N 
HETATM   51  C   UNK N   1      31.536  16.158   7.089  0.00  0.00     0.241 C 
HETATM   52  O   UNK N   1      31.435  14.946   6.966  0.00  0.00    -0.271 OA
HETATM   53  H   UNK N   1      30.829  17.961   6.550  0.00  0.00     0.163 HD
BRANCH  51  54
HETATM   54  C   UNK N   1      32.599  16.713   8.026  0.00  0.00     0.180 C 
BRANCH  54  55
HETATM   55  C   UNK N   1      33.377  17.901   7.439  0.00  0.00     0.009 C 
HETATM   56  C   UNK N   1      33.949  17.543   6.079  0.00  0.00     0.012 C 
HETATM   57  C   UNK N   1      34.544  18.278   8.336  0.00  0.00     0.012 C 
ENDBRANCH  54  55
BRANCH  54  58
HETATM   58  N   UNK N   1      33.495  15.632   8.411  0.00  0.00    -0.346 N 
HETATM   59  C   UNK N   1      33.381  14.931   9.576  0.00  0.00     0.241 C 
HETATM   60  O   UNK N   1      32.427  15.101  10.323  0.00  0.00    -0.271 OA
HETATM   61  H   UNK N   1      34.226  15.394   7.796  0.00  0.00     0.163 HD
BRANCH  59  62
HETATM   62  C   UNK N   1      34.538  14.105  10.038  0.00  0.00     0.176 C 
BRANCH  62  63
HETATM   63  C   UNK N   1      35.871  14.414   9.346  0.00  0.00     0.036 C 
BRANCH  63  64
HETATM   64  C   UNK N   1      36.420  13.321   8.428  0.00  0.00     0.023 C 
BRANCH  64  65
HETATM   65  C   UNK N   1      37.831  12.882   8.814  0.00  0.00     0.138 C 
BRANCH  65  66
HETATM   66  N   UNK N   1      38.844  13.773   8.289  0.00  0.00    -0.227 N 
HETATM   67  C   UNK N   1      39.583  13.510   7.106  0.00  0.00     0.665 C 
HETATM   68  N   UNK N   1      39.329  12.478   6.389  0.00  0.00    -0.235 N 
HETATM   69  N   UNK N   1      40.653  14.360   6.754  0.00  0.00    -0.235 N 
HETATM   70  H   UNK N   1      39.280  11.525   6.633  0.00  0.00     0.174 HD
ATOM     71  HN  UNK N   1      39.150  12.675   5.405  1.00  0.00     0.174 HD
HETATM   72  H   UNK N   1      40.816  14.615   5.817  0.00  0.00     0.174 HD
HETATM   73  H   UNK N   1      41.250  14.703   7.459  0.00  0.00     0.174 HD
HETATM   74  H   UNK N   1      39.031  14.606   8.779  0.00  0.00     0.177 HD
ENDBRANCH  65  66
ENDBRANCH  64  65
ENDBRANCH  63  64
ENDBRANCH  62  63
BRANCH  62  75
HETATM   75  N   UNK N   1      34.521  14.118  11.496  0.00  0.00    -0.346 N 
HETATM   76  C   UNK N   1      34.884  13.156  12.389  0.00  0.00     0.235 C 
HETATM   77  O   UNK N   1      34.928  13.442  13.571  0.00  0.00    -0.272 OA
HETATM   78  H   UNK N   1      34.195  14.954  11.899  0.00  0.00     0.163 HD
BRANCH  76  79
HETATM   79  C   UNK N   1      35.251  11.767  12.001  0.00  0.00     0.216 C 
BRANCH  79  80
HETATM   80  N   UNK N   1      34.107  10.892  12.178  0.00  0.00    -0.417 N 
HETATM   81  C   UNK N   1      33.797  10.350  10.869  0.00  0.00     0.140 C 
HETATM   82  H   UNK N   1      33.616  10.696  13.052  0.00  0.00     0.153 HD
ENDBRANCH  79  80
ENDBRANCH  76  79
ENDBRANCH  62  75
ENDBRANCH  59  62
ENDBRANCH  54  58
ENDBRANCH  51  54
ENDBRANCH   1  50
TORSDOF 28
ENDMDL
MODEL 9
REMARK VINA RESULT:      -7.1      2.915      7.802
REMARK  28 active torsions:
REMARK  status: ('A' for Active; 'I' for Inactive)
REMARK    1  A    between atoms: C_2  and  C_3 
REMARK    2  A    between atoms: C_3  and  C_5 
REMARK    3  A    between atoms: C_5  and  C_6 
REMARK    4  A    between atoms: C_5  and  N_32 
REMARK       I    between atoms: C_6  and  N_8 
REMARK    5  A    between atoms: C_9  and  N_8 
REMARK    6  A    between atoms: C_9  and  C_10 
REMARK    7  A    between atoms: C_9  and  C_17 
REMARK    8  A    between atoms: C_10  and  C_11 
REMARK       I    between atoms: C_17  and  N_19 
REMARK    9  A    between atoms: C_23  and  C_24 
REMARK       I    between atoms: C_24  and  N_26 
REMARK   10  A    between atoms: N_26  and  C_27 
REMARK   11  A    between atoms: C_27  and  C_29 
REMARK   12  A    between atoms: C_29  and  O_31 
REMARK       I    between atoms: N_32  and  C_33 
REMARK   13  A    between atoms: C_33  and  C_35 
REMARK   14  A    between atoms: C_35  and  C_36 
REMARK   15  A    between atoms: C_35  and  N_44 
REMARK   16  A    between atoms: C_36  and  C_37 
REMARK   17  A    between atoms: C_40  and  O_43 
REMARK       I    between atoms: N_44  and  C_45 
REMARK   18  A    between atoms: C_45  and  C_47 
REMARK   19  A    between atoms: C_47  and  C_48 
REMARK   20  A    between atoms: C_47  and  N_51 
REMARK       I    between atoms: N_51  and  C_52 
REMARK   21  A    between atoms: C_52  and  C_54 
REMARK   22  A    between atoms: C_54  and  C_55 
REMARK   23  A    between atoms: C_54  and  N_63 
REMARK   24  A    between atoms: C_55  and  C_56 
REMARK   25  A    between atoms: C_56  and  C_57 
REMARK   26  A    between atoms: C_57  and  N_58 
REMARK       I    between atoms: N_58  and  C_59 
REMARK       I    between atoms: C_59  and  N_62 
REMARK       I    between atoms: N_63  and  C_64 
REMARK   27  A    between atoms: C_64  and  C_66 
REMARK   28  A    between atoms: C_66  and  N_67 
ROOT
HETATM    1  C   UNK N   1      29.787  16.865   5.766  0.00  0.00     0.180 C 
ENDROOT
BRANCH   1   2
HETATM    2  C   UNK N   1      28.432  17.497   5.971  0.00  0.00     0.241 C 
HETATM    3  N   UNK N   1      27.656  17.776   4.896  0.00  0.00    -0.346 N 
HETATM    4  H   UNK N   1      27.982  17.496   4.010  0.00  0.00     0.163 HD
HETATM    5  O   UNK N   1      28.064  17.777   7.099  0.00  0.00    -0.271 OA
BRANCH   3   6
HETATM    6  C   UNK N   1      26.384  18.456   4.961  0.00  0.00     0.180 C 
BRANCH   6   7
HETATM    7  C   UNK N   1      26.258  19.951   4.643  0.00  0.00     0.013 C 
HETATM    8  C   UNK N   1      26.230  20.252   3.160  0.00  0.00     0.012 C 
BRANCH   7   9
HETATM    9  C   UNK N   1      27.263  20.823   5.370  0.00  0.00     0.002 C 
HETATM   10  C   UNK N   1      26.669  21.365   6.658  0.00  0.00     0.005 C 
ENDBRANCH   7   9
ENDBRANCH   6   7
BRANCH   6  11
HETATM   11  C   UNK N   1      25.179  17.620   4.743  0.00  0.00     0.241 C 
HETATM   12  O   UNK N   1      25.208  16.681   3.964  0.00  0.00    -0.271 OA
HETATM   13  N   UNK N   1      24.020  18.113   5.223  0.00  0.00    -0.346 N 
HETATM   14  H   UNK N   1      24.091  18.660   6.040  0.00  0.00     0.163 HD
BRANCH  13  15
HETATM   15  C   UNK N   1      22.687  17.942   4.694  0.00  0.00     0.182 C 
BRANCH  15  16
HETATM   16  C   UNK N   1      22.162  19.113   3.853  0.00  0.00     0.093 C 
BRANCH  16  17
HETATM   17  C   UNK N   1      20.915  18.787   3.103  0.00  0.00     0.028 A 
HETATM   18  C   UNK N   1      19.801  19.577   2.981  0.00  0.00     0.114 A 
HETATM   19  N   UNK N   1      18.915  18.917   2.211  0.00  0.00    -0.360 N 
HETATM   20  C   UNK N   1      19.507  17.750   1.881  0.00  0.00     0.180 A 
ATOM     21  HN  UNK N   1      17.987  19.235   1.933  1.00  0.00     0.166 HD
HETATM   22  N   UNK N   1      20.740  17.648   2.416  0.00  0.00    -0.354 N 
HETATM   23  H   UNK N   1      21.374  16.901   2.323  0.00  0.00     0.166 HD
ENDBRANCH  16  17
ENDBRANCH  15  16
BRANCH  15  24
HETATM   24  C   UNK N   1      21.918  17.641   5.957  0.00  0.00     0.243 C 
HETATM   25  O   UNK N   1      21.625  18.568   6.687  0.00  0.00    -0.271 OA
HETATM   26  N   UNK N   1      21.360  16.401   6.156  0.00  0.00    -0.337 N 
HETATM   27  C   UNK N   1      20.298  16.196   7.107  0.00  0.00     0.127 C 
HETATM   28  C   UNK N   1      21.813  15.194   5.512  0.00  0.00     0.179 C 
HETATM   29  C   UNK N   1      19.911  14.730   6.958  0.00  0.00     0.022 C 
HETATM   30  C   UNK N   1      20.691  14.199   5.758  0.00  0.00     0.037 C 
BRANCH  28  31
HETATM   31  C   UNK N   1      23.026  14.754   6.298  0.00  0.00     0.241 C 
HETATM   32  O   UNK N   1      23.039  14.817   7.518  0.00  0.00    -0.271 OA
HETATM   33  N   UNK N   1      24.038  14.162   5.615  0.00  0.00    -0.345 N 
HETATM   34  H   UNK N   1      23.982  14.165   4.632  0.00  0.00     0.163 HD
BRANCH  33  35
HETATM   35  C   UNK N   1      25.181  13.530   6.208  0.00  0.00     0.178 C 
HETATM   36  C   UNK N   1      25.705  12.496   5.228  0.00  0.00     0.043 C 
BRANCH  35  37
HETATM   37  C   UNK N   1      26.234  14.569   6.407  0.00  0.00     0.163 C 
HETATM   38  O   UNK N   1      27.212  14.589   5.681  0.00  0.00    -0.648 OA
BRANCH  37  39
HETATM   39  O   UNK N   1      26.107  15.488   7.387  0.00  0.00    -0.775 OA
HETATM   40  H   UNK N   1      26.369  15.826   8.221  0.00  0.00     0.167 HD
ENDBRANCH  37  39
ENDBRANCH  35  37
ENDBRANCH  33  35
ENDBRANCH  28  31
ENDBRANCH  15  24
ENDBRANCH  13  15
ENDBRANCH   6  11
ENDBRANCH   3   6
ENDBRANCH   1   2
BRANCH   1  41
HETATM   41  C   UNK N   1      30.380  16.366   7.087  0.00  0.00     0.073 C 
BRANCH  41  42
HETATM   42  C   UNK N   1      31.720  16.978   7.339  0.00  0.00    -0.056 A 
HETATM   43  C   UNK N   1      32.726  16.920   6.366  0.00  0.00     0.010 A 
HETATM   44  C   UNK N   1      33.941  17.576   6.580  0.00  0.00     0.037 A 
HETATM   45  C   UNK N   1      34.149  18.295   7.762  0.00  0.00     0.065 A 
HETATM   46  C   UNK N   1      33.150  18.340   8.738  0.00  0.00     0.037 A 
HETATM   47  C   UNK N   1      31.935  17.685   8.525  0.00  0.00     0.010 A 
BRANCH  45  48
HETATM   48  O   UNK N   1      35.308  18.943   7.958  0.00  0.00    -0.361 OA
HETATM   49  H   UNK N   1      35.376  19.864   8.115  0.00  0.00     0.217 HD
ENDBRANCH  45  48
ENDBRANCH  41  42
ENDBRANCH   1  41
BRANCH   1  50
HETATM   50  N   UNK N   1      29.824  15.802   4.762  0.00  0.00    -0.346 N 
HETATM   51  C   UNK N   1      30.486  15.833   3.570  0.00  0.00     0.241 C 
HETATM   52  O   UNK N   1      31.091  16.836   3.221  0.00  0.00    -0.271 OA
HETATM   53  H   UNK N   1      29.319  14.982   4.967  0.00  0.00     0.163 HD
BRANCH  51  54
HETATM   54  C   UNK N   1      30.517  14.609   2.666  0.00  0.00     0.180 C 
BRANCH  54  55
HETATM   55  C   UNK N   1      29.167  13.880   2.572  0.00  0.00     0.009 C 
HETATM   56  C   UNK N   1      29.235  12.765   1.543  0.00  0.00     0.012 C 
HETATM   57  C   UNK N   1      28.068  14.833   2.136  0.00  0.00     0.012 C 
ENDBRANCH  54  55
BRANCH  54  58
HETATM   58  N   UNK N   1      31.571  13.715   3.121  0.00  0.00    -0.346 N 
HETATM   59  C   UNK N   1      31.547  13.061   4.319  0.00  0.00     0.241 C 
HETATM   60  O   UNK N   1      30.561  13.103   5.040  0.00  0.00    -0.271 OA
HETATM   61  H   UNK N   1      32.346  13.574   2.531  0.00  0.00     0.163 HD
BRANCH  59  62
HETATM   62  C   UNK N   1      32.815  12.465   4.841  0.00  0.00     0.176 C 
BRANCH  62  63
HETATM   63  C   UNK N   1      33.171  11.091   4.259  0.00  0.00     0.036 C 
BRANCH  63  64
HETATM   64  C   UNK N   1      34.049  10.198   5.137  0.00  0.00     0.023 C 
BRANCH  64  65
HETATM   65  C   UNK N   1      33.237   9.354   6.117  0.00  0.00     0.138 C 
BRANCH  65  66
HETATM   66  N   UNK N   1      31.949   8.975   5.574  0.00  0.00    -0.227 N 
HETATM   67  C   UNK N   1      30.787   8.788   6.369  0.00  0.00     0.665 C 
HETATM   68  N   UNK N   1      30.809   9.023   7.630  0.00  0.00    -0.235 N 
HETATM   69  N   UNK N   1      29.616   8.272   5.775  0.00  0.00    -0.235 N 
HETATM   70  H   UNK N   1      31.410   8.686   8.333  0.00  0.00     0.174 HD
ATOM     71  HN  UNK N   1      30.086   9.663   7.956  1.00  0.00     0.174 HD
HETATM   72  H   UNK N   1      28.727   8.616   6.017  0.00  0.00     0.174 HD
HETATM   73  H   UNK N   1      29.691   7.553   5.105  0.00  0.00     0.174 HD
HETATM   74  H   UNK N   1      31.875   8.839   4.602  0.00  0.00     0.177 HD
ENDBRANCH  65  66
ENDBRANCH  64  65
ENDBRANCH  63  64
ENDBRANCH  62  63
BRANCH  62  75
HETATM   75  N   UNK N   1      33.837  13.503   4.778  0.00  0.00    -0.346 N 
HETATM   76  C   UNK N   1      34.710  13.936   5.728  0.00  0.00     0.235 C 
HETATM   77  O   UNK N   1      35.583  14.721   5.406  0.00  0.00    -0.272 OA
HETATM   78  H   UNK N   1      33.905  13.965   3.912  0.00  0.00     0.163 HD
BRANCH  76  79
HETATM   79  C   UNK N   1      34.672  13.491   7.148  0.00  0.00     0.216 C 
BRANCH  79  80
HETATM   80  N   UNK N   1      35.617  14.268   7.929  0.00  0.00    -0.417 N 
HETATM   81  C   UNK N   1      34.854  14.898   8.989  0.00  0.00     0.140 C 
HETATM   82  H   UNK N   1      36.621  14.354   7.765  0.00  0.00     0.153 HD
ENDBRANCH  79  80
ENDBRANCH  76  79
ENDBRANCH  62  75
ENDBRANCH  59  62
ENDBRANCH  54  58
ENDBRANCH  51  54
ENDBRANCH   1  50
TORSDOF 28
ENDMDL
