MODEL 1
REMARK VINA RESULT:      -7.6      0.000      0.000
REMARK  11 active torsions:
REMARK  status: ('A' for Active; 'I' for Inactive)
REMARK    1  A    between atoms: C_2  and  O_3 
REMARK    2  A    between atoms: O_3  and  C_4 
REMARK    3  A    between atoms: C_9  and  O_10 
REMARK    4  A    between atoms: O_10  and  C_11 
REMARK    5  A    between atoms: C_14  and  N_15 
REMARK    6  A    between atoms: N_17  and  C_19 
REMARK    7  A    between atoms: C_19  and  C_20 
REMARK    8  A    between atoms: C_20  and  C_22 
REMARK    9  A    between atoms: C_24  and  C_36 
REMARK   10  A    between atoms: C_25  and  O_34 
REMARK   11  A    between atoms: C_26  and  N_28 
ROOT
HETATM    1  C   UNK N   1      34.319  15.867   7.124  0.00  0.00     0.208 C 
ENDROOT
BRANCH   1   2
HETATM    2  N   UNK N   1      33.816  15.401   8.406  0.00  0.00    -0.355 N 
HETATM    3  C   UNK N   1      34.263  15.930   9.654  0.00  0.00     0.111 C 
HETATM    4  C   UNK N   1      34.662  14.836  10.483  0.00  0.00     0.057 A 
HETATM    5  C   UNK N   1      34.280  13.693   9.843  0.00  0.00    -0.020 A 
HETATM    6  C   UNK N   1      35.395  14.807  11.667  0.00  0.00     0.167 A 
HETATM    7  C   UNK N   1      34.576  12.448  10.347  0.00  0.00     0.049 A 
HETATM    8  C   UNK N   1      33.621  13.973   8.532  0.00  0.00     0.164 C 
HETATM    9  C   UNK N   1      35.302  12.345  11.535  0.00  0.00     0.105 A 
HETATM   10  C   UNK N   1      35.743  13.534  12.210  0.00  0.00     0.141 A 
HETATM   11  F   UNK N   1      35.798  15.973  12.233  0.00  0.00    -0.202 F 
BRANCH   3  12
HETATM   12  N   UNK N   1      34.541  17.161   9.876  0.00  0.00    -0.385 N 
HETATM   13  H   UNK N   1      33.839  17.851   9.827  0.00  0.00     0.157 HD
ATOM     14  HN  UNK N   1      35.498  17.430  10.106  1.00  0.00     0.157 HD
ENDBRANCH   3  12
BRANCH   9  15
HETATM   15  O   UNK N   1      35.577  11.090  11.960  0.00  0.00    -0.349 OA
BRANCH  15  16
HETATM   16  C   UNK N   1      34.656  10.110  12.228  0.00  0.00     0.171 C 
HETATM   17  C   UNK N   1      33.952  10.463  13.521  0.00  0.00     0.034 C 
ENDBRANCH  15  16
ENDBRANCH   9  15
BRANCH  10  18
HETATM   18  O   UNK N   1      36.508  13.418  13.328  0.00  0.00    -0.346 OA
BRANCH  18  19
HETATM   19  C   UNK N   1      36.056  13.601  14.615  0.00  0.00     0.171 C 
HETATM   20  C   UNK N   1      36.466  12.419  15.466  0.00  0.00     0.034 C 
ENDBRANCH  18  19
ENDBRANCH  10  18
ENDBRANCH   1   2
BRANCH   1  21
HETATM   21  C   UNK N   1      33.470  16.907   6.456  0.00  0.00     0.177 C 
HETATM   22  O   UNK N   1      33.956  17.946   6.029  0.00  0.00    -0.291 OA
BRANCH  21  23
HETATM   23  C   UNK N   1      32.032  16.679   6.434  0.00  0.00     0.014 A 
HETATM   24  C   UNK N   1      31.246  17.387   7.321  0.00  0.00     0.026 A 
HETATM   25  C   UNK N   1      29.863  17.283   7.331  0.00  0.00    -0.014 A 
HETATM   26  C   UNK N   1      29.237  16.451   6.352  0.00  0.00     0.101 A 
HETATM   27  C   UNK N   1      30.045  15.737   5.403  0.00  0.00     0.065 A 
HETATM   28  C   UNK N   1      31.441  15.855   5.489  0.00  0.00     0.047 A 
BRANCH  25  29
HETATM   29  C   UNK N   1      29.099  18.113   8.365  0.00  0.00    -0.021 C 
HETATM   30  C   UNK N   1      28.343  19.234   7.679  0.00  0.00     0.019 C 
HETATM   31  C   UNK N   1      28.135  17.252   9.156  0.00  0.00     0.019 C 
HETATM   32  C   UNK N   1      30.018  18.765   9.399  0.00  0.00     0.019 C 
ENDBRANCH  25  29
BRANCH  26  33
HETATM   33  O   UNK N   1      27.890  16.376   6.281  0.00  0.00    -0.353 OA
HETATM   34  C   UNK N   1      27.173  17.063   5.334  0.00  0.00     0.210 C 
ENDBRANCH  26  33
BRANCH  27  35
HETATM   35  N   UNK N   1      29.493  14.938   4.339  0.00  0.00    -0.374 N 
HETATM   36  C   UNK N   1      28.991  13.590   4.592  0.00  0.00     0.149 C 
HETATM   37  C   UNK N   1      28.321  12.957   3.374  0.00  0.00     0.187 C 
HETATM   38  O   UNK N   1      29.024  13.294   2.214  0.00  0.00    -0.388 OA
HETATM   39  C   UNK N   1      28.693  14.634   1.997  0.00  0.00     0.187 C 
HETATM   40  C   UNK N   1      29.454  15.508   2.990  0.00  0.00     0.149 C 
ENDBRANCH  27  35
ENDBRANCH  21  23
ENDBRANCH   1  21
TORSDOF 11
ENDMDL
MODEL 2
REMARK VINA RESULT:      -7.0      1.930      2.352
REMARK  11 active torsions:
REMARK  status: ('A' for Active; 'I' for Inactive)
REMARK    1  A    between atoms: C_2  and  O_3 
REMARK    2  A    between atoms: O_3  and  C_4 
REMARK    3  A    between atoms: C_9  and  O_10 
REMARK    4  A    between atoms: O_10  and  C_11 
REMARK    5  A    between atoms: C_14  and  N_15 
REMARK    6  A    between atoms: N_17  and  C_19 
REMARK    7  A    between atoms: C_19  and  C_20 
REMARK    8  A    between atoms: C_20  and  C_22 
REMARK    9  A    between atoms: C_24  and  C_36 
REMARK   10  A    between atoms: C_25  and  O_34 
REMARK   11  A    between atoms: C_26  and  N_28 
ROOT
HETATM    1  C   UNK N   1      34.141  16.905   8.273  0.00  0.00     0.208 C 
ENDROOT
BRANCH   1   2
HETATM    2  N   UNK N   1      34.313  15.481   8.505  0.00  0.00    -0.355 N 
HETATM    3  C   UNK N   1      34.111  14.872   9.780  0.00  0.00     0.111 C 
HETATM    4  C   UNK N   1      35.273  14.100  10.092  0.00  0.00     0.057 A 
HETATM    5  C   UNK N   1      36.049  14.079   8.970  0.00  0.00    -0.020 A 
HETATM    6  C   UNK N   1      35.695  13.530  11.291  0.00  0.00     0.167 A 
HETATM    7  C   UNK N   1      37.281  13.468   8.955  0.00  0.00     0.049 A 
HETATM    8  C   UNK N   1      35.444  14.862   7.851  0.00  0.00     0.164 C 
HETATM    9  C   UNK N   1      37.764  12.870  10.119  0.00  0.00     0.105 A 
HETATM   10  C   UNK N   1      36.980  12.908  11.322  0.00  0.00     0.141 A 
HETATM   11  F   UNK N   1      34.910  13.629  12.393  0.00  0.00    -0.202 F 
BRANCH   3  12
HETATM   12  N   UNK N   1      33.197  15.198  10.617  0.00  0.00    -0.385 N 
HETATM   13  H   UNK N   1      32.956  16.142  10.755  0.00  0.00     0.157 HD
ATOM     14  HN  UNK N   1      32.716  14.471  11.148  1.00  0.00     0.157 HD
ENDBRANCH   3  12
BRANCH   9  15
HETATM   15  O   UNK N   1      38.994  12.309  10.038  0.00  0.00    -0.349 OA
BRANCH  15  16
HETATM   16  C   UNK N   1      39.385  11.355   9.135  0.00  0.00     0.171 C 
HETATM   17  C   UNK N   1      40.777  11.704   8.651  0.00  0.00     0.034 C 
ENDBRANCH  15  16
ENDBRANCH   9  15
BRANCH  10  18
HETATM   18  O   UNK N   1      37.493  12.383  12.467  0.00  0.00    -0.346 OA
BRANCH  18  19
HETATM   19  C   UNK N   1      37.342  11.076  12.871  0.00  0.00     0.171 C 
HETATM   20  C   UNK N   1      36.349  11.012  14.011  0.00  0.00     0.034 C 
ENDBRANCH  18  19
ENDBRANCH  10  18
ENDBRANCH   1   2
BRANCH   1  21
HETATM   21  C   UNK N   1      33.471  17.255   6.977  0.00  0.00     0.177 C 
HETATM   22  O   UNK N   1      34.071  17.854   6.094  0.00  0.00    -0.291 OA
BRANCH  21  23
HETATM   23  C   UNK N   1      32.052  16.951   6.857  0.00  0.00     0.014 A 
HETATM   24  C   UNK N   1      31.175  17.580   7.718  0.00  0.00     0.026 A 
HETATM   25  C   UNK N   1      29.802  17.402   7.638  0.00  0.00    -0.014 A 
HETATM   26  C   UNK N   1      29.285  16.576   6.592  0.00  0.00     0.101 A 
HETATM   27  C   UNK N   1      30.187  15.945   5.671  0.00  0.00     0.065 A 
HETATM   28  C   UNK N   1      31.568  16.134   5.849  0.00  0.00     0.047 A 
BRANCH  25  29
HETATM   29  C   UNK N   1      28.932  18.148   8.651  0.00  0.00    -0.021 C 
HETATM   30  C   UNK N   1      27.912  17.204   9.258  0.00  0.00     0.019 C 
HETATM   31  C   UNK N   1      29.775  18.769   9.746  0.00  0.00     0.019 C 
HETATM   32  C   UNK N   1      28.149  19.302   8.024  0.00  0.00     0.019 C 
ENDBRANCH  25  29
BRANCH  26  33
HETATM   33  O   UNK N   1      27.951  16.431   6.434  0.00  0.00    -0.353 OA
HETATM   34  C   UNK N   1      27.246  17.157   5.507  0.00  0.00     0.210 C 
ENDBRANCH  26  33
BRANCH  27  35
HETATM   35  N   UNK N   1      29.747  15.159   4.547  0.00  0.00    -0.374 N 
HETATM   36  C   UNK N   1      29.389  13.752   4.705  0.00  0.00     0.149 C 
HETATM   37  C   UNK N   1      28.816  13.128   3.433  0.00  0.00     0.187 C 
HETATM   38  O   UNK N   1      29.502  13.611   2.315  0.00  0.00    -0.388 OA
HETATM   39  C   UNK N   1      29.032  14.918   2.170  0.00  0.00     0.187 C 
HETATM   40  C   UNK N   1      29.673  15.805   3.233  0.00  0.00     0.149 C 
ENDBRANCH  27  35
ENDBRANCH  21  23
ENDBRANCH   1  21
TORSDOF 11
ENDMDL
MODEL 3
REMARK VINA RESULT:      -7.0      1.269      2.448
REMARK  11 active torsions:
REMARK  status: ('A' for Active; 'I' for Inactive)
REMARK    1  A    between atoms: C_2  and  O_3 
REMARK    2  A    between atoms: O_3  and  C_4 
REMARK    3  A    between atoms: C_9  and  O_10 
REMARK    4  A    between atoms: O_10  and  C_11 
REMARK    5  A    between atoms: C_14  and  N_15 
REMARK    6  A    between atoms: N_17  and  C_19 
REMARK    7  A    between atoms: C_19  and  C_20 
REMARK    8  A    between atoms: C_20  and  C_22 
REMARK    9  A    between atoms: C_24  and  C_36 
REMARK   10  A    between atoms: C_25  and  O_34 
REMARK   11  A    between atoms: C_26  and  N_28 
ROOT
HETATM    1  C   UNK N   1      34.071  17.315   9.019  0.00  0.00     0.208 C 
ENDROOT
BRANCH   1   2
HETATM    2  N   UNK N   1      35.136  16.405   9.408  0.00  0.00    -0.355 N 
HETATM    3  C   UNK N   1      35.178  15.039   8.996  0.00  0.00     0.111 C 
HETATM    4  C   UNK N   1      35.349  14.229  10.161  0.00  0.00     0.057 A 
HETATM    5  C   UNK N   1      35.604  15.076  11.200  0.00  0.00    -0.020 A 
HETATM    6  C   UNK N   1      35.199  12.857  10.349  0.00  0.00     0.167 A 
HETATM    7  C   UNK N   1      35.755  14.617  12.487  0.00  0.00     0.049 A 
HETATM    8  C   UNK N   1      35.594  16.508  10.775  0.00  0.00     0.164 C 
HETATM    9  C   UNK N   1      35.624  13.252  12.748  0.00  0.00     0.105 A 
HETATM   10  C   UNK N   1      35.324  12.345  11.676  0.00  0.00     0.141 A 
HETATM   11  F   UNK N   1      34.890  12.066   9.291  0.00  0.00    -0.202 F 
BRANCH   3  12
HETATM   12  N   UNK N   1      34.826  14.605   7.843  0.00  0.00    -0.385 N 
HETATM   13  H   UNK N   1      35.476  14.552   7.105  0.00  0.00     0.157 HD
ATOM     14  HN  UNK N   1      33.861  14.312   7.687  1.00  0.00     0.157 HD
ENDBRANCH   3  12
BRANCH   9  15
HETATM   15  O   UNK N   1      35.761  12.875  14.040  0.00  0.00    -0.349 OA
BRANCH  15  16
HETATM   16  C   UNK N   1      36.930  12.861  14.756  0.00  0.00     0.171 C 
HETATM   17  C   UNK N   1      37.644  11.556  14.471  0.00  0.00     0.034 C 
ENDBRANCH  15  16
ENDBRANCH   9  15
BRANCH  10  18
HETATM   18  O   UNK N   1      35.131  11.027  11.954  0.00  0.00    -0.346 OA
BRANCH  18  19
HETATM   19  C   UNK N   1      33.925  10.465  12.307  0.00  0.00     0.171 C 
HETATM   20  C   UNK N   1      33.385   9.660  11.145  0.00  0.00     0.034 C 
ENDBRANCH  18  19
ENDBRANCH  10  18
ENDBRANCH   1   2
BRANCH   1  21
HETATM   21  C   UNK N   1      33.671  17.235   7.576  0.00  0.00     0.177 C 
HETATM   22  O   UNK N   1      34.460  17.508   6.681  0.00  0.00    -0.291 OA
BRANCH  21  23
HETATM   23  C   UNK N   1      32.277  16.926   7.288  0.00  0.00     0.014 A 
HETATM   24  C   UNK N   1      31.301  17.564   8.028  0.00  0.00     0.026 A 
HETATM   25  C   UNK N   1      29.948  17.381   7.783  0.00  0.00    -0.014 A 
HETATM   26  C   UNK N   1      29.563  16.541   6.693  0.00  0.00     0.101 A 
HETATM   27  C   UNK N   1      30.571  15.900   5.897  0.00  0.00     0.065 A 
HETATM   28  C   UNK N   1      31.919  16.094   6.239  0.00  0.00     0.047 A 
BRANCH  25  29
HETATM   29  C   UNK N   1      28.960  18.139   8.673  0.00  0.00    -0.021 C 
HETATM   30  C   UNK N   1      27.896  17.192   9.193  0.00  0.00     0.019 C 
HETATM   31  C   UNK N   1      29.668  18.805   9.834  0.00  0.00     0.019 C 
HETATM   32  C   UNK N   1      28.232  19.260   7.930  0.00  0.00     0.019 C 
ENDBRANCH  25  29
BRANCH  26  33
HETATM   33  O   UNK N   1      28.258  16.391   6.376  0.00  0.00    -0.353 OA
HETATM   34  C   UNK N   1      27.660  17.134   5.389  0.00  0.00     0.210 C 
ENDBRANCH  26  33
BRANCH  27  35
HETATM   35  N   UNK N   1      30.271  15.099   4.738  0.00  0.00    -0.374 N 
HETATM   36  C   UNK N   1      30.028  13.664   4.857  0.00  0.00     0.149 C 
HETATM   37  C   UNK N   1      29.592  13.015   3.543  0.00  0.00     0.187 C 
HETATM   38  O   UNK N   1      30.301  13.574   2.477  0.00  0.00    -0.388 OA
HETATM   39  C   UNK N   1      29.730  14.838   2.318  0.00  0.00     0.187 C 
HETATM   40  C   UNK N   1      30.224  15.759   3.430  0.00  0.00     0.149 C 
ENDBRANCH  27  35
ENDBRANCH  21  23
ENDBRANCH   1  21
TORSDOF 11
ENDMDL
MODEL 4
REMARK VINA RESULT:      -6.9      1.970      4.319
REMARK  11 active torsions:
REMARK  status: ('A' for Active; 'I' for Inactive)
REMARK    1  A    between atoms: C_2  and  O_3 
REMARK    2  A    between atoms: O_3  and  C_4 
REMARK    3  A    between atoms: C_9  and  O_10 
REMARK    4  A    between atoms: O_10  and  C_11 
REMARK    5  A    between atoms: C_14  and  N_15 
REMARK    6  A    between atoms: N_17  and  C_19 
REMARK    7  A    between atoms: C_19  and  C_20 
REMARK    8  A    between atoms: C_20  and  C_22 
REMARK    9  A    between atoms: C_24  and  C_36 
REMARK   10  A    between atoms: C_25  and  O_34 
REMARK   11  A    between atoms: C_26  and  N_28 
ROOT
HETATM    1  C   UNK N   1      33.820  16.902   9.071  0.00  0.00     0.208 C 
ENDROOT
BRANCH   1   2
HETATM    2  N   UNK N   1      34.930  16.094   9.548  0.00  0.00    -0.355 N 
HETATM    3  C   UNK N   1      34.987  14.678   9.383  0.00  0.00     0.111 C 
HETATM    4  C   UNK N   1      35.247  14.092  10.660  0.00  0.00     0.057 A 
HETATM    5  C   UNK N   1      35.539  15.115  11.514  0.00  0.00    -0.020 A 
HETATM    6  C   UNK N   1      35.148  12.773  11.097  0.00  0.00     0.167 A 
HETATM    7  C   UNK N   1      35.777  14.896  12.851  0.00  0.00     0.049 A 
HETATM    8  C   UNK N   1      35.464  16.448  10.844  0.00  0.00     0.164 C 
HETATM    9  C   UNK N   1      35.700  13.597  13.356  0.00  0.00     0.105 A 
HETATM   10  C   UNK N   1      35.363  12.508  12.483  0.00  0.00     0.141 A 
HETATM   11  F   UNK N   1      34.799  11.800  10.217  0.00  0.00    -0.202 F 
BRANCH   3  12
HETATM   12  N   UNK N   1      34.580  14.039   8.349  0.00  0.00    -0.385 N 
HETATM   13  H   UNK N   1      34.020  13.234   8.444  0.00  0.00     0.157 HD
ATOM     14  HN  UNK N   1      34.840  14.366   7.418  1.00  0.00     0.157 HD
ENDBRANCH   3  12
BRANCH   9  15
HETATM   15  O   UNK N   1      35.923  13.459  14.684  0.00  0.00    -0.349 OA
BRANCH  15  16
HETATM   16  C   UNK N   1      37.122  13.639  15.323  0.00  0.00     0.171 C 
HETATM   17  C   UNK N   1      37.232  15.097  15.721  0.00  0.00     0.034 C 
ENDBRANCH  15  16
ENDBRANCH   9  15
BRANCH  10  18
HETATM   18  O   UNK N   1      35.224  11.259  13.002  0.00  0.00    -0.346 OA
BRANCH  18  19
HETATM   19  C   UNK N   1      34.023  10.615  13.196  0.00  0.00     0.171 C 
HETATM   20  C   UNK N   1      33.577  10.801  14.629  0.00  0.00     0.034 C 
ENDBRANCH  18  19
ENDBRANCH  10  18
ENDBRANCH   1   2
BRANCH   1  21
HETATM   21  C   UNK N   1      34.014  17.498   7.708  0.00  0.00     0.177 C 
HETATM   22  O   UNK N   1      34.786  18.431   7.527  0.00  0.00    -0.291 OA
BRANCH  21  23
HETATM   23  C   UNK N   1      33.169  16.995   6.635  0.00  0.00     0.014 A 
HETATM   24  C   UNK N   1      33.703  16.064   5.766  0.00  0.00     0.026 A 
HETATM   25  C   UNK N   1      32.955  15.482   4.753  0.00  0.00    -0.014 A 
HETATM   26  C   UNK N   1      31.572  15.826   4.646  0.00  0.00     0.101 A 
HETATM   27  C   UNK N   1      31.000  16.768   5.566  0.00  0.00     0.065 A 
HETATM   28  C   UNK N   1      31.834  17.352   6.533  0.00  0.00     0.047 A 
BRANCH  25  29
HETATM   29  C   UNK N   1      33.658  14.467   3.849  0.00  0.00    -0.021 C 
HETATM   30  C   UNK N   1      32.823  13.207   3.731  0.00  0.00     0.019 C 
HETATM   31  C   UNK N   1      33.916  15.044   2.473  0.00  0.00     0.019 C 
HETATM   32  C   UNK N   1      35.027  14.043   4.385  0.00  0.00     0.019 C 
ENDBRANCH  25  29
BRANCH  26  33
HETATM   33  O   UNK N   1      30.791  15.231   3.719  0.00  0.00    -0.353 OA
HETATM   34  C   UNK N   1      30.371  15.891   2.592  0.00  0.00     0.210 C 
ENDBRANCH  26  33
BRANCH  27  35
HETATM   35  N   UNK N   1      29.601  17.113   5.576  0.00  0.00    -0.374 N 
HETATM   36  C   UNK N   1      29.112  18.291   4.863  0.00  0.00     0.149 C 
HETATM   37  C   UNK N   1      27.589  18.413   4.874  0.00  0.00     0.187 C 
HETATM   38  O   UNK N   1      27.088  18.023   6.119  0.00  0.00    -0.388 OA
HETATM   39  C   UNK N   1      27.215  16.632   6.113  0.00  0.00     0.187 C 
HETATM   40  C   UNK N   1      28.678  16.258   6.326  0.00  0.00     0.149 C 
ENDBRANCH  27  35
ENDBRANCH  21  23
ENDBRANCH   1  21
TORSDOF 11
ENDMDL
MODEL 5
REMARK VINA RESULT:      -6.9      4.521     11.194
REMARK  11 active torsions:
REMARK  status: ('A' for Active; 'I' for Inactive)
REMARK    1  A    between atoms: C_2  and  O_3 
REMARK    2  A    between atoms: O_3  and  C_4 
REMARK    3  A    between atoms: C_9  and  O_10 
REMARK    4  A    between atoms: O_10  and  C_11 
REMARK    5  A    between atoms: C_14  and  N_15 
REMARK    6  A    between atoms: N_17  and  C_19 
REMARK    7  A    between atoms: C_19  and  C_20 
REMARK    8  A    between atoms: C_20  and  C_22 
REMARK    9  A    between atoms: C_24  and  C_36 
REMARK   10  A    between atoms: C_25  and  O_34 
REMARK   11  A    between atoms: C_26  and  N_28 
ROOT
HETATM    1  C   UNK N   1      28.194  18.768   6.029  0.00  0.00     0.208 C 
ENDROOT
BRANCH   1   2
HETATM    2  N   UNK N   1      27.279  18.303   4.999  0.00  0.00    -0.355 N 
HETATM    3  C   UNK N   1      26.689  19.173   4.034  0.00  0.00     0.111 C 
HETATM    4  C   UNK N   1      25.275  18.963   4.052  0.00  0.00     0.057 A 
HETATM    5  C   UNK N   1      25.046  17.874   4.841  0.00  0.00    -0.020 A 
HETATM    6  C   UNK N   1      24.234  19.712   3.510  0.00  0.00     0.167 A 
HETATM    7  C   UNK N   1      23.772  17.440   5.122  0.00  0.00     0.049 A 
HETATM    8  C   UNK N   1      26.308  17.313   5.410  0.00  0.00     0.164 C 
HETATM    9  C   UNK N   1      22.680  18.139   4.605  0.00  0.00     0.105 A 
HETATM   10  C   UNK N   1      22.896  19.308   3.799  0.00  0.00     0.141 A 
HETATM   11  F   UNK N   1      24.516  20.821   2.779  0.00  0.00    -0.202 F 
BRANCH   3  12
HETATM   12  N   UNK N   1      27.278  20.166   3.478  0.00  0.00    -0.385 N 
HETATM   13  H   UNK N   1      27.703  20.068   2.595  0.00  0.00     0.157 HD
ATOM     14  HN  UNK N   1      27.309  21.068   3.955  1.00  0.00     0.157 HD
ENDBRANCH   3  12
BRANCH   9  15
HETATM   15  O   UNK N   1      21.456  17.670   4.941  0.00  0.00    -0.349 OA
BRANCH  15  16
HETATM   16  C   UNK N   1      21.002  17.441   6.214  0.00  0.00     0.171 C 
HETATM   17  C   UNK N   1      20.117  16.213   6.188  0.00  0.00     0.034 C 
ENDBRANCH  15  16
ENDBRANCH   9  15
BRANCH  10  18
HETATM   18  O   UNK N   1      21.823  20.020   3.360  0.00  0.00    -0.346 OA
BRANCH  18  19
HETATM   19  C   UNK N   1      20.983  19.631   2.341  0.00  0.00     0.171 C 
HETATM   20  C   UNK N   1      20.862  20.752   1.332  0.00  0.00     0.034 C 
ENDBRANCH  18  19
ENDBRANCH  10  18
ENDBRANCH   1   2
BRANCH   1  21
HETATM   21  C   UNK N   1      28.654  17.708   6.985  0.00  0.00     0.177 C 
HETATM   22  O   UNK N   1      28.038  17.470   8.016  0.00  0.00    -0.291 OA
BRANCH  21  23
HETATM   23  C   UNK N   1      29.921  17.052   6.693  0.00  0.00     0.014 A 
HETATM   24  C   UNK N   1      30.223  16.775   5.374  0.00  0.00     0.026 A 
HETATM   25  C   UNK N   1      31.432  16.211   4.994  0.00  0.00    -0.014 A 
HETATM   26  C   UNK N   1      32.411  15.960   6.004  0.00  0.00     0.101 A 
HETATM   27  C   UNK N   1      32.119  16.276   7.373  0.00  0.00     0.065 A 
HETATM   28  C   UNK N   1      30.854  16.798   7.686  0.00  0.00     0.047 A 
BRANCH  25  29
HETATM   29  C   UNK N   1      31.650  15.944   3.503  0.00  0.00    -0.021 C 
HETATM   30  C   UNK N   1      30.463  16.449   2.704  0.00  0.00     0.019 C 
HETATM   31  C   UNK N   1      32.921  16.604   3.008  0.00  0.00     0.019 C 
HETATM   32  C   UNK N   1      31.800  14.457   3.182  0.00  0.00     0.019 C 
ENDBRANCH  25  29
BRANCH  26  33
HETATM   33  O   UNK N   1      33.627  15.476   5.669  0.00  0.00    -0.353 OA
HETATM   34  C   UNK N   1      33.963  14.159   5.862  0.00  0.00     0.210 C 
ENDBRANCH  26  33
BRANCH  27  35
HETATM   35  N   UNK N   1      33.075  16.123   8.440  0.00  0.00    -0.374 N 
HETATM   36  C   UNK N   1      34.135  17.107   8.647  0.00  0.00     0.149 C 
HETATM   37  C   UNK N   1      34.962  16.847   9.906  0.00  0.00     0.187 C 
HETATM   38  O   UNK N   1      35.164  15.474  10.069  0.00  0.00    -0.388 OA
HETATM   39  C   UNK N   1      33.923  14.999  10.498  0.00  0.00     0.187 C 
HETATM   40  C   UNK N   1      32.965  14.951   9.312  0.00  0.00     0.149 C 
ENDBRANCH  27  35
ENDBRANCH  21  23
ENDBRANCH   1  21
TORSDOF 11
ENDMDL
MODEL 6
REMARK VINA RESULT:      -6.9     15.153     18.609
REMARK  11 active torsions:
REMARK  status: ('A' for Active; 'I' for Inactive)
REMARK    1  A    between atoms: C_2  and  O_3 
REMARK    2  A    between atoms: O_3  and  C_4 
REMARK    3  A    between atoms: C_9  and  O_10 
REMARK    4  A    between atoms: O_10  and  C_11 
REMARK    5  A    between atoms: C_14  and  N_15 
REMARK    6  A    between atoms: N_17  and  C_19 
REMARK    7  A    between atoms: C_19  and  C_20 
REMARK    8  A    between atoms: C_20  and  C_22 
REMARK    9  A    between atoms: C_24  and  C_36 
REMARK   10  A    between atoms: C_25  and  O_34 
REMARK   11  A    between atoms: C_26  and  N_28 
ROOT
HETATM    1  C   UNK N   1      31.788  22.466  -4.308  0.00  0.00     0.208 C 
ENDROOT
BRANCH   1   2
HETATM    2  N   UNK N   1      31.228  23.771  -3.996  0.00  0.00    -0.355 N 
HETATM    3  C   UNK N   1      29.998  23.939  -3.292  0.00  0.00     0.111 C 
HETATM    4  C   UNK N   1      29.165  24.815  -4.054  0.00  0.00     0.057 A 
HETATM    5  C   UNK N   1      29.934  25.313  -5.066  0.00  0.00    -0.020 A 
HETATM    6  C   UNK N   1      27.805  25.098  -3.955  0.00  0.00     0.167 A 
HETATM    7  C   UNK N   1      29.412  26.145  -6.028  0.00  0.00     0.049 A 
HETATM    8  C   UNK N   1      31.325  24.770  -5.037  0.00  0.00     0.164 C 
HETATM    9  C   UNK N   1      28.057  26.476  -5.986  0.00  0.00     0.105 A 
HETATM   10  C   UNK N   1      27.220  25.938  -4.950  0.00  0.00     0.141 A 
HETATM   11  F   UNK N   1      27.074  24.531  -2.962  0.00  0.00    -0.202 F 
BRANCH   3  12
HETATM   12  N   UNK N   1      29.600  23.207  -2.318  0.00  0.00    -0.385 N 
HETATM   13  H   UNK N   1      28.641  23.127  -2.109  0.00  0.00     0.157 HD
ATOM     14  HN  UNK N   1      30.283  22.704  -1.752  1.00  0.00     0.157 HD
ENDBRANCH   3  12
BRANCH   9  15
HETATM   15  O   UNK N   1      27.607  27.280  -6.977  0.00  0.00    -0.349 OA
BRANCH  15  16
HETATM   16  C   UNK N   1      28.183  28.455  -7.387  0.00  0.00     0.171 C 
HETATM   17  C   UNK N   1      28.063  29.459  -6.260  0.00  0.00     0.034 C 
ENDBRANCH  15  16
ENDBRANCH   9  15
BRANCH  10  18
HETATM   18  O   UNK N   1      25.888  26.213  -4.960  0.00  0.00    -0.346 OA
BRANCH  18  19
HETATM   19  C   UNK N   1      25.336  27.445  -4.693  0.00  0.00     0.171 C 
HETATM   20  C   UNK N   1      25.955  28.014  -3.435  0.00  0.00     0.034 C 
ENDBRANCH  18  19
ENDBRANCH  10  18
ENDBRANCH   1   2
BRANCH   1  21
HETATM   21  C   UNK N   1      30.774  21.388  -4.551  0.00  0.00     0.177 C 
HETATM   22  O   UNK N   1      30.491  20.575  -3.680  0.00  0.00    -0.291 OA
BRANCH  21  23
HETATM   23  C   UNK N   1      30.224  21.281  -5.895  0.00  0.00     0.014 A 
HETATM   24  C   UNK N   1      30.896  20.500  -6.814  0.00  0.00     0.026 A 
HETATM   25  C   UNK N   1      30.416  20.288  -8.098  0.00  0.00    -0.014 A 
HETATM   26  C   UNK N   1      29.155  20.859  -8.454  0.00  0.00     0.101 A 
HETATM   27  C   UNK N   1      28.433  21.645  -7.493  0.00  0.00     0.065 A 
HETATM   28  C   UNK N   1      29.009  21.856  -6.230  0.00  0.00     0.047 A 
BRANCH  25  29
HETATM   29  C   UNK N   1      31.252  19.408  -9.029  0.00  0.00    -0.021 C 
HETATM   30  C   UNK N   1      32.510  18.945  -8.320  0.00  0.00     0.019 C 
HETATM   31  C   UNK N   1      30.460  18.209  -9.508  0.00  0.00     0.019 C 
HETATM   32  C   UNK N   1      31.702  20.142 -10.294  0.00  0.00     0.019 C 
ENDBRANCH  25  29
BRANCH  26  33
HETATM   33  O   UNK N   1      28.617  20.620  -9.670  0.00  0.00    -0.353 OA
HETATM   34  C   UNK N   1      28.579  21.582 -10.648  0.00  0.00     0.210 C 
ENDBRANCH  26  33
BRANCH  27  35
HETATM   35  N   UNK N   1      27.125  22.193  -7.745  0.00  0.00    -0.374 N 
HETATM   36  C   UNK N   1      25.949  21.330  -7.821  0.00  0.00     0.149 C 
HETATM   37  C   UNK N   1      24.639  22.106  -7.956  0.00  0.00     0.187 C 
HETATM   38  O   UNK N   1      24.821  23.207  -8.797  0.00  0.00    -0.388 OA
HETATM   39  C   UNK N   1      25.551  24.108  -8.018  0.00  0.00     0.187 C 
HETATM   40  C   UNK N   1      27.001  23.641  -7.933  0.00  0.00     0.149 C 
ENDBRANCH  27  35
ENDBRANCH  21  23
ENDBRANCH   1  21
TORSDOF 11
ENDMDL
MODEL 7
REMARK VINA RESULT:      -6.9      2.144      3.322
REMARK  11 active torsions:
REMARK  status: ('A' for Active; 'I' for Inactive)
REMARK    1  A    between atoms: C_2  and  O_3 
REMARK    2  A    between atoms: O_3  and  C_4 
REMARK    3  A    between atoms: C_9  and  O_10 
REMARK    4  A    between atoms: O_10  and  C_11 
REMARK    5  A    between atoms: C_14  and  N_15 
REMARK    6  A    between atoms: N_17  and  C_19 
REMARK    7  A    between atoms: C_19  and  C_20 
REMARK    8  A    between atoms: C_20  and  C_22 
REMARK    9  A    between atoms: C_24  and  C_36 
REMARK   10  A    between atoms: C_25  and  O_34 
REMARK   11  A    between atoms: C_26  and  N_28 
ROOT
HETATM    1  C   UNK N   1      33.860  16.861   9.151  0.00  0.00     0.208 C 
ENDROOT
BRANCH   1   2
HETATM    2  N   UNK N   1      35.035  16.110   9.563  0.00  0.00    -0.355 N 
HETATM    3  C   UNK N   1      35.170  14.705   9.355  0.00  0.00     0.111 C 
HETATM    4  C   UNK N   1      35.515  14.102  10.604  0.00  0.00     0.057 A 
HETATM    5  C   UNK N   1      35.776  15.118  11.477  0.00  0.00    -0.020 A 
HETATM    6  C   UNK N   1      35.512  12.769  11.006  0.00  0.00     0.167 A 
HETATM    7  C   UNK N   1      36.078  14.878  12.797  0.00  0.00     0.049 A 
HETATM    8  C   UNK N   1      35.595  16.461  10.849  0.00  0.00     0.164 C 
HETATM    9  C   UNK N   1      36.099  13.564  13.267  0.00  0.00     0.105 A 
HETATM   10  C   UNK N   1      35.796  12.480  12.375  0.00  0.00     0.141 A 
HETATM   11  F   UNK N   1      35.189  11.800  10.112  0.00  0.00    -0.202 F 
BRANCH   3  12
HETATM   12  N   UNK N   1      34.764  14.070   8.319  0.00  0.00    -0.385 N 
HETATM   13  H   UNK N   1      35.227  13.255   8.015  0.00  0.00     0.157 HD
ATOM     14  HN  UNK N   1      33.953  14.412   7.802  1.00  0.00     0.157 HD
ENDBRANCH   3  12
BRANCH   9  15
HETATM   15  O   UNK N   1      36.380  13.404  14.581  0.00  0.00    -0.349 OA
BRANCH  15  16
HETATM   16  C   UNK N   1      35.466  13.372  15.602  0.00  0.00     0.171 C 
HETATM   17  C   UNK N   1      35.703  12.112  16.409  0.00  0.00     0.034 C 
ENDBRANCH  15  16
ENDBRANCH   9  15
BRANCH  10  18
HETATM   18  O   UNK N   1      35.752  11.211  12.862  0.00  0.00    -0.346 OA
BRANCH  18  19
HETATM   19  C   UNK N   1      34.601  10.531  13.189  0.00  0.00     0.171 C 
HETATM   20  C   UNK N   1      34.435   9.346  12.263  0.00  0.00     0.034 C 
ENDBRANCH  18  19
ENDBRANCH  10  18
ENDBRANCH   1   2
BRANCH   1  21
HETATM   21  C   UNK N   1      33.898  17.362   7.738  0.00  0.00     0.177 C 
HETATM   22  O   UNK N   1      34.650  18.268   7.405  0.00  0.00    -0.291 OA
BRANCH  21  23
HETATM   23  C   UNK N   1      32.927  16.804   6.807  0.00  0.00     0.014 A 
HETATM   24  C   UNK N   1      31.620  17.243   6.886  0.00  0.00     0.026 A 
HETATM   25  C   UNK N   1      30.641  16.815   6.002  0.00  0.00    -0.014 A 
HETATM   26  C   UNK N   1      31.020  15.931   4.945  0.00  0.00     0.101 A 
HETATM   27  C   UNK N   1      32.383  15.495   4.835  0.00  0.00     0.065 A 
HETATM   28  C   UNK N   1      33.306  15.932   5.799  0.00  0.00     0.047 A 
BRANCH  25  29
HETATM   29  C   UNK N   1      29.227  17.367   6.192  0.00  0.00    -0.021 C 
HETATM   30  C   UNK N   1      29.100  18.017   7.557  0.00  0.00     0.019 C 
HETATM   31  C   UNK N   1      28.879  18.370   5.111  0.00  0.00     0.019 C 
HETATM   32  C   UNK N   1      28.151  16.283   6.116  0.00  0.00     0.019 C 
ENDBRANCH  25  29
BRANCH  26  33
HETATM   33  O   UNK N   1      30.113  15.545   4.021  0.00  0.00    -0.353 OA
HETATM   34  C   UNK N   1      30.026  16.150   2.792  0.00  0.00     0.210 C 
ENDBRANCH  26  33
BRANCH  27  35
HETATM   35  N   UNK N   1      32.863  14.665   3.759  0.00  0.00    -0.374 N 
HETATM   36  C   UNK N   1      33.827  15.176   2.788  0.00  0.00     0.149 C 
HETATM   37  C   UNK N   1      34.318  14.109   1.809  0.00  0.00     0.187 C 
HETATM   38  O   UNK N   1      33.263  13.266   1.453  0.00  0.00    -0.388 OA
HETATM   39  C   UNK N   1      33.066  12.475   2.586  0.00  0.00     0.187 C 
HETATM   40  C   UNK N   1      32.353  13.295   3.657  0.00  0.00     0.149 C 
ENDBRANCH  27  35
ENDBRANCH  21  23
ENDBRANCH   1  21
TORSDOF 11
ENDMDL
MODEL 8
REMARK VINA RESULT:      -6.9      2.764     10.180
REMARK  11 active torsions:
REMARK  status: ('A' for Active; 'I' for Inactive)
REMARK    1  A    between atoms: C_2  and  O_3 
REMARK    2  A    between atoms: O_3  and  C_4 
REMARK    3  A    between atoms: C_9  and  O_10 
REMARK    4  A    between atoms: O_10  and  C_11 
REMARK    5  A    between atoms: C_14  and  N_15 
REMARK    6  A    between atoms: N_17  and  C_19 
REMARK    7  A    between atoms: C_19  and  C_20 
REMARK    8  A    between atoms: C_20  and  C_22 
REMARK    9  A    between atoms: C_24  and  C_36 
REMARK   10  A    between atoms: C_25  and  O_34 
REMARK   11  A    between atoms: C_26  and  N_28 
ROOT
HETATM    1  C   UNK N   1      33.050  15.866   8.989  0.00  0.00     0.208 C 
ENDROOT
BRANCH   1   2
HETATM    2  N   UNK N   1      32.590  16.905   8.083  0.00  0.00    -0.355 N 
HETATM    3  C   UNK N   1      31.328  17.555   8.224  0.00  0.00     0.111 C 
HETATM    4  C   UNK N   1      30.647  17.480   6.970  0.00  0.00     0.057 A 
HETATM    5  C   UNK N   1      31.540  16.991   6.062  0.00  0.00    -0.020 A 
HETATM    6  C   UNK N   1      29.316  17.721   6.637  0.00  0.00     0.167 A 
HETATM    7  C   UNK N   1      31.180  16.735   4.759  0.00  0.00     0.049 A 
HETATM    8  C   UNK N   1      32.867  16.694   6.680  0.00  0.00     0.164 C 
HETATM    9  C   UNK N   1      29.864  16.959   4.356  0.00  0.00     0.105 A 
HETATM   10  C   UNK N   1      28.897  17.443   5.301  0.00  0.00     0.141 A 
HETATM   11  F   UNK N   1      28.454  18.153   7.593  0.00  0.00    -0.202 F 
BRANCH   3  12
HETATM   12  N   UNK N   1      30.783  17.875   9.339  0.00  0.00    -0.385 N 
HETATM   13  H   UNK N   1      31.330  18.194  10.093  0.00  0.00     0.157 HD
ATOM     14  HN  UNK N   1      29.771  17.798   9.448  1.00  0.00     0.157 HD
ENDBRANCH   3  12
BRANCH   9  15
HETATM   15  O   UNK N   1      29.575  16.662   3.067  0.00  0.00    -0.349 OA
BRANCH  15  16
HETATM   16  C   UNK N   1      29.386  15.406   2.552  0.00  0.00     0.171 C 
HETATM   17  C   UNK N   1      27.896  15.172   2.409  0.00  0.00     0.034 C 
ENDBRANCH  15  16
ENDBRANCH   9  15
BRANCH  10  18
HETATM   18  O   UNK N   1      27.603  17.591   4.912  0.00  0.00    -0.346 OA
BRANCH  18  19
HETATM   19  C   UNK N   1      27.152  18.536   4.018  0.00  0.00     0.171 C 
HETATM   20  C   UNK N   1      27.501  19.918   4.525  0.00  0.00     0.034 C 
ENDBRANCH  18  19
ENDBRANCH  10  18
ENDBRANCH   1   2
BRANCH   1  21
HETATM   21  C   UNK N   1      34.346  16.164   9.683  0.00  0.00     0.177 C 
HETATM   22  O   UNK N   1      34.805  17.299   9.711  0.00  0.00    -0.291 OA
BRANCH  21  23
HETATM   23  C   UNK N   1      35.088  15.034  10.223  0.00  0.00     0.014 A 
HETATM   24  C   UNK N   1      36.042  14.437   9.423  0.00  0.00     0.026 A 
HETATM   25  C   UNK N   1      36.841  13.396   9.874  0.00  0.00    -0.014 A 
HETATM   26  C   UNK N   1      36.698  12.970  11.230  0.00  0.00     0.101 A 
HETATM   27  C   UNK N   1      35.732  13.607  12.079  0.00  0.00     0.065 A 
HETATM   28  C   UNK N   1      34.926  14.620  11.536  0.00  0.00     0.047 A 
BRANCH  25  29
HETATM   29  C   UNK N   1      37.859  12.811   8.893  0.00  0.00    -0.021 C 
HETATM   30  C   UNK N   1      39.227  12.738   9.543  0.00  0.00     0.019 C 
HETATM   31  C   UNK N   1      37.439  11.434   8.422  0.00  0.00     0.019 C 
HETATM   32  C   UNK N   1      38.015  13.654   7.626  0.00  0.00     0.019 C 
ENDBRANCH  25  29
BRANCH  26  33
HETATM   33  O   UNK N   1      37.504  12.007  11.730  0.00  0.00    -0.353 OA
HETATM   34  C   UNK N   1      37.088  10.705  11.855  0.00  0.00     0.210 C 
ENDBRANCH  26  33
BRANCH  27  35
HETATM   35  N   UNK N   1      35.577  13.289  13.476  0.00  0.00    -0.374 N 
HETATM   36  C   UNK N   1      34.619  12.277  13.916  0.00  0.00     0.149 C 
HETATM   37  C   UNK N   1      34.697  11.983  15.413  0.00  0.00     0.187 C 
HETATM   38  O   UNK N   1      34.921  13.167  16.121  0.00  0.00    -0.388 OA
HETATM   39  C   UNK N   1      36.262  13.463  15.867  0.00  0.00     0.187 C 
HETATM   40  C   UNK N   1      36.398  14.013  14.450  0.00  0.00     0.149 C 
ENDBRANCH  27  35
ENDBRANCH  21  23
ENDBRANCH   1  21
TORSDOF 11
ENDMDL
MODEL 9
REMARK VINA RESULT:      -6.8      3.007      9.934
REMARK  11 active torsions:
REMARK  status: ('A' for Active; 'I' for Inactive)
REMARK    1  A    between atoms: C_2  and  O_3 
REMARK    2  A    between atoms: O_3  and  C_4 
REMARK    3  A    between atoms: C_9  and  O_10 
REMARK    4  A    between atoms: O_10  and  C_11 
REMARK    5  A    between atoms: C_14  and  N_15 
REMARK    6  A    between atoms: N_17  and  C_19 
REMARK    7  A    between atoms: C_19  and  C_20 
REMARK    8  A    between atoms: C_20  and  C_22 
REMARK    9  A    between atoms: C_24  and  C_36 
REMARK   10  A    between atoms: C_25  and  O_34 
REMARK   11  A    between atoms: C_26  and  N_28 
ROOT
HETATM    1  C   UNK N   1      33.614  16.378   9.394  0.00  0.00     0.208 C 
ENDROOT
BRANCH   1   2
HETATM    2  N   UNK N   1      33.534  17.178   8.183  0.00  0.00    -0.355 N 
HETATM    3  C   UNK N   1      32.297  17.604   7.614  0.00  0.00     0.111 C 
HETATM    4  C   UNK N   1      32.291  17.230   6.234  0.00  0.00     0.057 A 
HETATM    5  C   UNK N   1      33.546  16.786   5.938  0.00  0.00    -0.020 A 
HETATM    6  C   UNK N   1      31.253  17.178   5.307  0.00  0.00     0.167 A 
HETATM    7  C   UNK N   1      33.862  16.286   4.696  0.00  0.00     0.049 A 
HETATM    8  C   UNK N   1      34.453  16.822   7.124  0.00  0.00     0.164 C 
HETATM    9  C   UNK N   1      32.871  16.210   3.716  0.00  0.00     0.105 A 
HETATM   10  C   UNK N   1      31.535  16.642   4.014  0.00  0.00     0.141 A 
HETATM   11  F   UNK N   1      30.009  17.580   5.671  0.00  0.00    -0.202 F 
BRANCH   3  12
HETATM   12  N   UNK N   1      31.268  17.976   8.280  0.00  0.00    -0.385 N 
HETATM   13  H   UNK N   1      30.395  17.541   8.142  0.00  0.00     0.157 HD
ATOM     14  HN  UNK N   1      31.352  18.733   8.960  1.00  0.00     0.157 HD
ENDBRANCH   3  12
BRANCH   9  15
HETATM   15  O   UNK N   1      33.247  15.686   2.526  0.00  0.00    -0.349 OA
BRANCH  15  16
HETATM   16  C   UNK N   1      33.899  14.494   2.340  0.00  0.00     0.171 C 
HETATM   17  C   UNK N   1      32.863  13.389   2.304  0.00  0.00     0.034 C 
ENDBRANCH  15  16
ENDBRANCH   9  15
BRANCH  10  18
HETATM   18  O   UNK N   1      30.564  16.498   3.073  0.00  0.00    -0.346 OA
BRANCH  18  19
HETATM   19  C   UNK N   1      29.634  15.484   3.048  0.00  0.00     0.171 C 
HETATM   20  C   UNK N   1      28.241  16.076   3.038  0.00  0.00     0.034 C 
ENDBRANCH  18  19
ENDBRANCH  10  18
ENDBRANCH   1   2
BRANCH   1  21
HETATM   21  C   UNK N   1      34.931  16.447  10.108  0.00  0.00     0.177 C 
HETATM   22  O   UNK N   1      35.536  17.505  10.224  0.00  0.00    -0.291 OA
BRANCH  21  23
HETATM   23  C   UNK N   1      35.510  15.190  10.560  0.00  0.00     0.014 A 
HETATM   24  C   UNK N   1      36.441  14.572   9.749  0.00  0.00     0.026 A 
HETATM   25  C   UNK N   1      37.092  13.406  10.123  0.00  0.00    -0.014 A 
HETATM   26  C   UNK N   1      36.821  12.863  11.417  0.00  0.00     0.101 A 
HETATM   27  C   UNK N   1      35.880  13.518  12.281  0.00  0.00     0.065 A 
HETATM   28  C   UNK N   1      35.224  14.666  11.810  0.00  0.00     0.047 A 
BRANCH  25  29
HETATM   29  C   UNK N   1      38.099  12.811   9.137  0.00  0.00    -0.021 C 
HETATM   30  C   UNK N   1      37.535  11.548   8.514  0.00  0.00     0.019 C 
HETATM   31  C   UNK N   1      38.456  13.805   8.051  0.00  0.00     0.019 C 
HETATM   32  C   UNK N   1      39.422  12.426   9.800  0.00  0.00     0.019 C 
ENDBRANCH  25  29
BRANCH  26  33
HETATM   33  O   UNK N   1      37.485  11.769  11.850  0.00  0.00    -0.353 OA
HETATM   34  C   UNK N   1      36.928  10.515  11.799  0.00  0.00     0.210 C 
ENDBRANCH  26  33
BRANCH  27  35
HETATM   35  N   UNK N   1      35.606  13.080  13.626  0.00  0.00    -0.374 N 
HETATM   36  C   UNK N   1      34.565  12.092  13.898  0.00  0.00     0.149 C 
HETATM   37  C   UNK N   1      34.517  11.654  15.361  0.00  0.00     0.187 C 
HETATM   38  O   UNK N   1      34.752  12.750  16.196  0.00  0.00    -0.388 OA
HETATM   39  C   UNK N   1      36.123  12.985  16.064  0.00  0.00     0.187 C 
HETATM   40  C   UNK N   1      36.392  13.656  14.720  0.00  0.00     0.149 C 
ENDBRANCH  27  35
ENDBRANCH  21  23
ENDBRANCH   1  21
TORSDOF 11
ENDMDL
