MODEL 1
REMARK VINA RESULT:      -7.3      0.000      0.000
REMARK  25 active torsions:
REMARK  status: ('A' for Active; 'I' for Inactive)
REMARK    1  A    between atoms: C_3  and  N_36 
REMARK    2  A    between atoms: C_6  and  C_7 
REMARK    3  A    between atoms: C_7  and  C_8 
REMARK    4  A    between atoms: N_10  and  C_32 
REMARK    5  A    between atoms: N_13  and  C_28 
REMARK    6  A    between atoms: N_16  and  C_24 
REMARK    7  A    between atoms: N_19  and  C_20 
REMARK    8  A    between atoms: C_20  and  C_21 
REMARK    9  A    between atoms: C_21  and  O_23 
REMARK   10  A    between atoms: C_24  and  C_25 
REMARK   11  A    between atoms: C_25  and  O_27 
REMARK   12  A    between atoms: C_28  and  C_29 
REMARK   13  A    between atoms: C_29  and  O_31 
REMARK   14  A    between atoms: C_32  and  C_33 
REMARK   15  A    between atoms: C_33  and  O_35 
REMARK   16  A    between atoms: N_36  and  C_37 
REMARK   17  A    between atoms: C_37  and  N_39 
REMARK   18  A    between atoms: N_39  and  C_40 
REMARK   19  A    between atoms: C_40  and  C_41 
REMARK   20  A    between atoms: C_41  and  C_42 
REMARK   21  A    between atoms: C_42  and  C_43 
REMARK   22  A    between atoms: C_43  and  C_44 
REMARK   23  A    between atoms: C_44  and  C_45 
REMARK   24  A    between atoms: C_44  and  N_48 
REMARK   25  A    between atoms: C_45  and  O_47 
ROOT
HETATM    1  C   UNK N   1      23.668  14.760   5.720  0.00  0.00     0.256 C 
HETATM    2  C   UNK N   1      22.738  13.732   6.398  0.00  0.00     0.309 C 
HETATM    3  N   UNK N   1      22.554  14.051   7.815  0.00  0.00     0.102 N 
HETATM    4  C   UNK N   1      21.167  14.455   7.957  0.00  0.00     0.303 C 
HETATM    5  C   UNK N   1      21.102  15.829   8.594  0.00  0.00     0.303 C 
HETATM    6  N   UNK N   1      20.097  16.612   7.905  0.00  0.00     0.101 N 
HETATM    7  C   UNK N   1      20.751  17.294   6.798  0.00  0.00     0.303 C 
HETATM    8  C   UNK N   1      20.280  16.683   5.494  0.00  0.00     0.303 C 
HETATM    9  N   UNK N   1      20.891  17.375   4.366  0.00  0.00     0.101 N 
HETATM   10  C   UNK N   1      22.226  16.845   4.080  0.00  0.00     0.303 C 
HETATM   11  C   UNK N   1      22.258  15.328   3.872  0.00  0.00     0.303 C 
HETATM   12  N   UNK N   1      23.574  14.839   4.259  0.00  0.00     0.106 N 
ENDROOT
BRANCH   1  13
HETATM   13  C   UNK N   1      25.124  14.779   6.188  0.00  0.00     0.076 C 
BRANCH  13  14
HETATM   14  C   UNK N   1      26.073  15.634   5.406  0.00  0.00    -0.056 A 
HETATM   15  C   UNK N   1      26.015  17.032   5.497  0.00  0.00     0.009 A 
HETATM   16  C   UNK N   1      27.074  17.805   4.994  0.00  0.00     0.030 A 
HETATM   17  C   UNK N   1      28.171  17.169   4.391  0.00  0.00     0.034 A 
HETATM   18  C   UNK N   1      28.188  15.785   4.263  0.00  0.00     0.030 A 
HETATM   19  C   UNK N   1      27.150  15.031   4.766  0.00  0.00     0.009 A 
BRANCH  17  20
HETATM   20  N   UNK N   1      29.394  17.850   4.217  0.00  0.00    -0.333 N 
HETATM   21  H   UNK N   1      29.455  18.611   3.596  0.00  0.00     0.168 HD
BRANCH  20  22
HETATM   22  C   UNK N   1      30.549  17.422   4.953  0.00  0.00     0.172 C 
HETATM   23  S   UNK N   1      31.861  17.444   4.349  0.00  0.00    -0.041 SA
BRANCH  22  24
HETATM   24  N   UNK N   1      30.466  17.239   6.349  0.00  0.00    -0.367 N 
HETATM   25  H   UNK N   1      29.584  17.189   6.785  0.00  0.00     0.161 HD
BRANCH  24  26
HETATM   26  C   UNK N   1      31.664  17.125   7.138  0.00  0.00     0.122 C 
BRANCH  26  27
HETATM   27  C   UNK N   1      31.291  16.642   8.533  0.00  0.00     0.020 C 
BRANCH  27  28
HETATM   28  C   UNK N   1      32.234  15.552   9.030  0.00  0.00     0.004 C 
BRANCH  28  29
HETATM   29  C   UNK N   1      33.706  15.923   8.832  0.00  0.00     0.035 C 
BRANCH  29  30
HETATM   30  C   UNK N   1      34.607  15.407   9.950  0.00  0.00     0.173 C 
BRANCH  30  31
HETATM   31  C   UNK N   1      35.603  16.466  10.352  0.00  0.00     0.163 C 
HETATM   32  O   UNK N   1      35.366  17.648  10.166  0.00  0.00    -0.648 OA
BRANCH  31  33
HETATM   33  O   UNK N   1      36.767  16.109  10.930  0.00  0.00    -0.775 OA
HETATM   34  H   UNK N   1      37.583  16.308  10.517  0.00  0.00     0.167 HD
ENDBRANCH  31  33
ENDBRANCH  30  31
BRANCH  30  35
HETATM   35  N   UNK N   1      33.787  15.016  11.088  0.00  0.00    -0.418 N 
HETATM   36  H   UNK N   1      33.967  15.395  12.018  0.00  0.00     0.150 HD
HETATM   37  H   UNK N   1      33.023  14.353  10.954  0.00  0.00     0.150 HD
ENDBRANCH  30  35
ENDBRANCH  29  30
ENDBRANCH  28  29
ENDBRANCH  27  28
ENDBRANCH  26  27
ENDBRANCH  24  26
ENDBRANCH  22  24
ENDBRANCH  20  22
ENDBRANCH  17  20
ENDBRANCH  13  14
ENDBRANCH   1  13
BRANCH  12  38
HETATM   38  C   UNK N   1      23.863  13.573   3.600  0.00  0.00     0.382 C 
BRANCH  38  39
HETATM   39  C   UNK N   1      24.818  13.824   2.476  0.00  0.00     0.169 C 
HETATM   40  O   UNK N   1      25.526  12.921   2.065  0.00  0.00    -0.649 OA
BRANCH  39  41
HETATM   41  O   UNK N   1      24.915  15.053   1.933  0.00  0.00    -0.775 OA
HETATM   42  H   UNK N   1      25.582  15.643   2.225  0.00  0.00     0.167 HD
ENDBRANCH  39  41
ENDBRANCH  38  39
ENDBRANCH  12  38
BRANCH   3  43
HETATM   43  C   UNK N   1      22.740  12.822   8.587  0.00  0.00     0.381 C 
BRANCH  43  44
HETATM   44  C   UNK N   1      23.727  13.010   9.704  0.00  0.00     0.169 C 
HETATM   45  O   UNK N   1      24.873  13.346   9.454  0.00  0.00    -0.649 OA
BRANCH  44  46
HETATM   46  O   UNK N   1      23.363  12.771  10.978  0.00  0.00    -0.775 OA
HETATM   47  H   UNK N   1      22.476  12.907  11.251  0.00  0.00     0.167 HD
ENDBRANCH  44  46
ENDBRANCH  43  44
ENDBRANCH   3  43
BRANCH   9  48
HETATM   48  C   UNK N   1      20.034  17.218   3.202  0.00  0.00     0.381 C 
BRANCH  48  49
HETATM   49  C   UNK N   1      19.496  18.551   2.802  0.00  0.00     0.169 C 
HETATM   50  O   UNK N   1      20.197  19.543   2.900  0.00  0.00    -0.649 OA
BRANCH  49  51
HETATM   51  O   UNK N   1      18.234  18.662   2.344  0.00  0.00    -0.775 OA
HETATM   52  H   UNK N   1      17.726  19.426   2.536  0.00  0.00     0.167 HD
ENDBRANCH  49  51
ENDBRANCH  48  49
ENDBRANCH   9  48
BRANCH   6  53
HETATM   53  C   UNK N   1      19.608  17.626   8.823  0.00  0.00     0.381 C 
BRANCH  53  54
HETATM   54  C   UNK N   1      18.213  17.286   9.237  0.00  0.00     0.169 C 
HETATM   55  O   UNK N   1      17.808  16.142   9.121  0.00  0.00    -0.649 OA
BRANCH  54  56
HETATM   56  O   UNK N   1      17.400  18.241   9.725  0.00  0.00    -0.775 OA
HETATM   57  H   UNK N   1      16.480  18.082   9.815  0.00  0.00     0.167 HD
ENDBRANCH  54  56
ENDBRANCH  53  54
ENDBRANCH   6  53
TORSDOF 25
ENDMDL
MODEL 2
REMARK VINA RESULT:      -7.2      2.477      6.647
REMARK  25 active torsions:
REMARK  status: ('A' for Active; 'I' for Inactive)
REMARK    1  A    between atoms: C_3  and  N_36 
REMARK    2  A    between atoms: C_6  and  C_7 
REMARK    3  A    between atoms: C_7  and  C_8 
REMARK    4  A    between atoms: N_10  and  C_32 
REMARK    5  A    between atoms: N_13  and  C_28 
REMARK    6  A    between atoms: N_16  and  C_24 
REMARK    7  A    between atoms: N_19  and  C_20 
REMARK    8  A    between atoms: C_20  and  C_21 
REMARK    9  A    between atoms: C_21  and  O_23 
REMARK   10  A    between atoms: C_24  and  C_25 
REMARK   11  A    between atoms: C_25  and  O_27 
REMARK   12  A    between atoms: C_28  and  C_29 
REMARK   13  A    between atoms: C_29  and  O_31 
REMARK   14  A    between atoms: C_32  and  C_33 
REMARK   15  A    between atoms: C_33  and  O_35 
REMARK   16  A    between atoms: N_36  and  C_37 
REMARK   17  A    between atoms: C_37  and  N_39 
REMARK   18  A    between atoms: N_39  and  C_40 
REMARK   19  A    between atoms: C_40  and  C_41 
REMARK   20  A    between atoms: C_41  and  C_42 
REMARK   21  A    between atoms: C_42  and  C_43 
REMARK   22  A    between atoms: C_43  and  C_44 
REMARK   23  A    between atoms: C_44  and  C_45 
REMARK   24  A    between atoms: C_44  and  N_48 
REMARK   25  A    between atoms: C_45  and  O_47 
ROOT
HETATM    1  C   UNK N   1      20.874  15.831   6.909  0.00  0.00     0.256 C 
HETATM    2  C   UNK N   1      20.012  14.926   6.004  0.00  0.00     0.309 C 
HETATM    3  N   UNK N   1      20.777  14.469   4.843  0.00  0.00     0.102 N 
HETATM    4  C   UNK N   1      20.962  13.041   5.023  0.00  0.00     0.303 C 
HETATM    5  C   UNK N   1      22.441  12.710   4.962  0.00  0.00     0.303 C 
HETATM    6  N   UNK N   1      22.745  11.751   6.006  0.00  0.00     0.101 N 
HETATM    7  C   UNK N   1      23.089  12.500   7.205  0.00  0.00     0.303 C 
HETATM    8  C   UNK N   1      21.984  12.331   8.228  0.00  0.00     0.303 C 
HETATM    9  N   UNK N   1      22.323  13.039   9.455  0.00  0.00     0.101 N 
HETATM   10  C   UNK N   1      21.961  14.456   9.366  0.00  0.00     0.303 C 
HETATM   11  C   UNK N   1      20.500  14.699   8.982  0.00  0.00     0.303 C 
HETATM   12  N   UNK N   1      20.412  15.977   8.292  0.00  0.00     0.106 N 
ENDROOT
BRANCH   1  13
HETATM   13  C   UNK N   1      21.306  17.175   6.319  0.00  0.00     0.076 C 
BRANCH  13  14
HETATM   14  C   UNK N   1      22.626  17.208   5.613  0.00  0.00    -0.056 A 
HETATM   15  C   UNK N   1      23.019  18.340   4.884  0.00  0.00     0.009 A 
HETATM   16  C   UNK N   1      24.354  18.472   4.472  0.00  0.00     0.030 A 
HETATM   17  C   UNK N   1      25.278  17.461   4.782  0.00  0.00     0.034 A 
HETATM   18  C   UNK N   1      24.862  16.322   5.461  0.00  0.00     0.030 A 
HETATM   19  C   UNK N   1      23.551  16.202   5.870  0.00  0.00     0.009 A 
BRANCH  17  20
HETATM   20  N   UNK N   1      26.666  17.710   4.727  0.00  0.00    -0.333 N 
HETATM   21  H   UNK N   1      27.204  17.362   3.980  0.00  0.00     0.168 HD
BRANCH  20  22
HETATM   22  C   UNK N   1      27.286  18.475   5.771  0.00  0.00     0.172 C 
HETATM   23  S   UNK N   1      27.325  19.917   5.707  0.00  0.00    -0.041 SA
BRANCH  22  24
HETATM   24  N   UNK N   1      27.619  17.856   6.994  0.00  0.00    -0.367 N 
HETATM   25  H   UNK N   1      26.938  17.765   7.699  0.00  0.00     0.161 HD
BRANCH  24  26
HETATM   26  C   UNK N   1      28.951  17.358   7.215  0.00  0.00     0.122 C 
BRANCH  26  27
HETATM   27  C   UNK N   1      29.276  17.464   8.698  0.00  0.00     0.020 C 
BRANCH  27  28
HETATM   28  C   UNK N   1      30.705  17.029   9.002  0.00  0.00     0.004 C 
BRANCH  28  29
HETATM   29  C   UNK N   1      31.735  17.790   8.163  0.00  0.00     0.035 C 
BRANCH  29  30
HETATM   30  C   UNK N   1      33.121  17.152   8.197  0.00  0.00     0.173 C 
BRANCH  30  31
HETATM   31  C   UNK N   1      34.133  18.064   7.549  0.00  0.00     0.163 C 
HETATM   32  O   UNK N   1      34.321  18.033   6.345  0.00  0.00    -0.648 OA
BRANCH  31  33
HETATM   33  O   UNK N   1      34.835  18.932   8.305  0.00  0.00    -0.775 OA
HETATM   34  H   UNK N   1      34.546  19.151   9.169  0.00  0.00     0.167 HD
ENDBRANCH  31  33
ENDBRANCH  30  31
BRANCH  30  35
HETATM   35  N   UNK N   1      33.490  16.873   9.578  0.00  0.00    -0.418 N 
HETATM   36  H   UNK N   1      32.895  17.173  10.349  0.00  0.00     0.150 HD
HETATM   37  H   UNK N   1      34.356  16.371   9.775  0.00  0.00     0.150 HD
ENDBRANCH  30  35
ENDBRANCH  29  30
ENDBRANCH  28  29
ENDBRANCH  27  28
ENDBRANCH  26  27
ENDBRANCH  24  26
ENDBRANCH  22  24
ENDBRANCH  20  22
ENDBRANCH  17  20
ENDBRANCH  13  14
ENDBRANCH   1  13
BRANCH  12  38
HETATM   38  C   UNK N   1      19.063  16.519   8.388  0.00  0.00     0.382 C 
BRANCH  38  39
HETATM   39  C   UNK N   1      19.117  17.811   9.140  0.00  0.00     0.169 C 
HETATM   40  O   UNK N   1      20.167  18.427   9.218  0.00  0.00    -0.649 OA
BRANCH  39  41
HETATM   41  O   UNK N   1      18.016  18.283   9.754  0.00  0.00    -0.775 OA
HETATM   42  H   UNK N   1      18.005  18.387  10.685  0.00  0.00     0.167 HD
ENDBRANCH  39  41
ENDBRANCH  38  39
ENDBRANCH  12  38
BRANCH   3  43
HETATM   43  C   UNK N   1      19.954  14.663   3.649  0.00  0.00     0.381 C 
BRANCH  43  44
HETATM   44  C   UNK N   1      20.154  16.026   3.049  0.00  0.00     0.169 C 
HETATM   45  O   UNK N   1      21.150  16.258   2.384  0.00  0.00    -0.649 OA
BRANCH  44  46
HETATM   46  O   UNK N   1      19.258  17.005   3.277  0.00  0.00    -0.775 OA
HETATM   47  H   UNK N   1      19.314  17.815   2.809  0.00  0.00     0.167 HD
ENDBRANCH  44  46
ENDBRANCH  43  44
ENDBRANCH   3  43
BRANCH   9  48
HETATM   48  C   UNK N   1      21.619  12.416  10.565  0.00  0.00     0.381 C 
BRANCH  48  49
HETATM   49  C   UNK N   1      22.612  11.923  11.564  0.00  0.00     0.169 C 
HETATM   50  O   UNK N   1      23.798  11.904  11.283  0.00  0.00    -0.649 OA
BRANCH  49  51
HETATM   51  O   UNK N   1      22.199  11.490  12.771  0.00  0.00    -0.775 OA
HETATM   52  H   UNK N   1      22.106  12.092  13.484  0.00  0.00     0.167 HD
ENDBRANCH  49  51
ENDBRANCH  48  49
ENDBRANCH   9  48
BRANCH   6  53
HETATM   53  C   UNK N   1      23.919  11.001   5.600  0.00  0.00     0.381 C 
BRANCH  53  54
HETATM   54  C   UNK N   1      23.629   9.538   5.700  0.00  0.00     0.169 C 
HETATM   55  O   UNK N   1      23.034   9.103   6.671  0.00  0.00    -0.649 OA
BRANCH  54  56
HETATM   56  O   UNK N   1      24.035   8.699   4.729  0.00  0.00    -0.775 OA
HETATM   57  H   UNK N   1      24.369   9.034   3.920  0.00  0.00     0.167 HD
ENDBRANCH  54  56
ENDBRANCH  53  54
ENDBRANCH   6  53
TORSDOF 25
ENDMDL
MODEL 3
REMARK VINA RESULT:      -7.2      4.386      7.235
REMARK  25 active torsions:
REMARK  status: ('A' for Active; 'I' for Inactive)
REMARK    1  A    between atoms: C_3  and  N_36 
REMARK    2  A    between atoms: C_6  and  C_7 
REMARK    3  A    between atoms: C_7  and  C_8 
REMARK    4  A    between atoms: N_10  and  C_32 
REMARK    5  A    between atoms: N_13  and  C_28 
REMARK    6  A    between atoms: N_16  and  C_24 
REMARK    7  A    between atoms: N_19  and  C_20 
REMARK    8  A    between atoms: C_20  and  C_21 
REMARK    9  A    between atoms: C_21  and  O_23 
REMARK   10  A    between atoms: C_24  and  C_25 
REMARK   11  A    between atoms: C_25  and  O_27 
REMARK   12  A    between atoms: C_28  and  C_29 
REMARK   13  A    between atoms: C_29  and  O_31 
REMARK   14  A    between atoms: C_32  and  C_33 
REMARK   15  A    between atoms: C_33  and  O_35 
REMARK   16  A    between atoms: N_36  and  C_37 
REMARK   17  A    between atoms: C_37  and  N_39 
REMARK   18  A    between atoms: N_39  and  C_40 
REMARK   19  A    between atoms: C_40  and  C_41 
REMARK   20  A    between atoms: C_41  and  C_42 
REMARK   21  A    between atoms: C_42  and  C_43 
REMARK   22  A    between atoms: C_43  and  C_44 
REMARK   23  A    between atoms: C_44  and  C_45 
REMARK   24  A    between atoms: C_44  and  N_48 
REMARK   25  A    between atoms: C_45  and  O_47 
ROOT
HETATM    1  C   UNK N   1      21.844  14.779   4.461  0.00  0.00     0.256 C 
HETATM    2  C   UNK N   1      21.348  13.327   4.622  0.00  0.00     0.309 C 
HETATM    3  N   UNK N   1      22.373  12.492   5.248  0.00  0.00     0.102 N 
HETATM    4  C   UNK N   1      21.860  12.145   6.561  0.00  0.00     0.303 C 
HETATM    5  C   UNK N   1      22.864  12.553   7.621  0.00  0.00     0.303 C 
HETATM    6  N   UNK N   1      22.148  13.153   8.730  0.00  0.00     0.101 N 
HETATM    7  C   UNK N   1      22.039  14.579   8.463  0.00  0.00     0.303 C 
HETATM    8  C   UNK N   1      20.594  14.915   8.154  0.00  0.00     0.303 C 
HETATM    9  N   UNK N   1      20.449  16.346   7.922  0.00  0.00     0.101 N 
HETATM   10  C   UNK N   1      20.778  16.694   6.537  0.00  0.00     0.303 C 
HETATM   11  C   UNK N   1      19.995  15.890   5.496  0.00  0.00     0.303 C 
HETATM   12  N   UNK N   1      20.802  15.794   4.287  0.00  0.00     0.106 N 
ENDROOT
BRANCH   1  13
HETATM   13  C   UNK N   1      23.007  15.001   3.492  0.00  0.00     0.076 C 
BRANCH  13  14
HETATM   14  C   UNK N   1      24.361  15.202   4.099  0.00  0.00    -0.056 A 
HETATM   15  C   UNK N   1      25.516  15.137   3.307  0.00  0.00     0.009 A 
HETATM   16  C   UNK N   1      26.738  15.604   3.820  0.00  0.00     0.030 A 
HETATM   17  C   UNK N   1      26.790  16.116   5.126  0.00  0.00     0.034 A 
HETATM   18  C   UNK N   1      25.646  16.126   5.916  0.00  0.00     0.030 A 
HETATM   19  C   UNK N   1      24.449  15.675   5.404  0.00  0.00     0.009 A 
BRANCH  17  20
HETATM   20  N   UNK N   1      27.871  16.922   5.543  0.00  0.00    -0.333 N 
HETATM   21  H   UNK N   1      28.678  16.510   5.926  0.00  0.00     0.168 HD
BRANCH  20  22
HETATM   22  C   UNK N   1      27.782  18.346   5.403  0.00  0.00     0.172 C 
HETATM   23  S   UNK N   1      27.804  19.206   6.563  0.00  0.00    -0.041 SA
BRANCH  22  24
HETATM   24  N   UNK N   1      27.948  18.941   4.135  0.00  0.00    -0.367 N 
HETATM   25  H   UNK N   1      28.677  18.641   3.544  0.00  0.00     0.161 HD
BRANCH  24  26
HETATM   26  C   UNK N   1      27.058  19.985   3.701  0.00  0.00     0.122 C 
BRANCH  26  27
HETATM   27  C   UNK N   1      25.714  19.369   3.339  0.00  0.00     0.020 C 
BRANCH  27  28
HETATM   28  C   UNK N   1      24.927  20.245   2.371  0.00  0.00     0.004 C 
BRANCH  28  29
HETATM   29  C   UNK N   1      23.725  20.916   3.040  0.00  0.00     0.035 C 
BRANCH  29  30
HETATM   30  C   UNK N   1      22.402  20.229   2.715  0.00  0.00     0.173 C 
BRANCH  30  31
HETATM   31  C   UNK N   1      21.971  19.351   3.863  0.00  0.00     0.163 C 
HETATM   32  O   UNK N   1      22.649  18.398   4.208  0.00  0.00    -0.648 OA
BRANCH  31  33
HETATM   33  O   UNK N   1      20.830  19.624   4.526  0.00  0.00    -0.775 OA
HETATM   34  H   UNK N   1      20.857  19.983   5.390  0.00  0.00     0.167 HD
ENDBRANCH  31  33
ENDBRANCH  30  31
BRANCH  30  35
HETATM   35  N   UNK N   1      21.390  21.239   2.434  0.00  0.00    -0.418 N 
HETATM   36  H   UNK N   1      20.852  21.214   1.568  0.00  0.00     0.150 HD
HETATM   37  H   UNK N   1      21.219  21.982   3.112  0.00  0.00     0.150 HD
ENDBRANCH  30  35
ENDBRANCH  29  30
ENDBRANCH  28  29
ENDBRANCH  27  28
ENDBRANCH  26  27
ENDBRANCH  24  26
ENDBRANCH  22  24
ENDBRANCH  20  22
ENDBRANCH  17  20
ENDBRANCH  13  14
ENDBRANCH   1  13
BRANCH  12  38
HETATM   38  C   UNK N   1      19.957  15.551   3.126  0.00  0.00     0.382 C 
BRANCH  38  39
HETATM   39  C   UNK N   1      19.880  16.807   2.317  0.00  0.00     0.169 C 
HETATM   40  O   UNK N   1      20.520  16.907   1.284  0.00  0.00    -0.649 OA
BRANCH  39  41
HETATM   41  O   UNK N   1      19.125  17.839   2.740  0.00  0.00    -0.775 OA
HETATM   42  H   UNK N   1      18.233  17.697   2.988  0.00  0.00     0.167 HD
ENDBRANCH  39  41
ENDBRANCH  38  39
ENDBRANCH  12  38
BRANCH   3  43
HETATM   43  C   UNK N   1      22.489  11.255   4.476  0.00  0.00     0.381 C 
BRANCH  43  44
HETATM   44  C   UNK N   1      23.409  11.416   3.299  0.00  0.00     0.169 C 
HETATM   45  O   UNK N   1      22.967  11.335   2.164  0.00  0.00    -0.649 OA
BRANCH  44  46
HETATM   46  O   UNK N   1      24.727  11.611   3.490  0.00  0.00    -0.775 OA
HETATM   47  H   UNK N   1      25.336  11.444   2.797  0.00  0.00     0.167 HD
ENDBRANCH  44  46
ENDBRANCH  43  44
ENDBRANCH   3  43
BRANCH   9  48
HETATM   48  C   UNK N   1      19.080  16.733   8.219  0.00  0.00     0.381 C 
BRANCH  48  49
HETATM   49  C   UNK N   1      19.087  17.909   9.136  0.00  0.00     0.169 C 
HETATM   50  O   UNK N   1      20.087  18.600   9.230  0.00  0.00    -0.649 OA
BRANCH  49  51
HETATM   51  O   UNK N   1      17.995  18.204   9.868  0.00  0.00    -0.775 OA
HETATM   52  H   UNK N   1      17.954  19.003  10.357  0.00  0.00     0.167 HD
ENDBRANCH  49  51
ENDBRANCH  48  49
ENDBRANCH   9  48
BRANCH   6  53
HETATM   53  C   UNK N   1      22.953  12.987   9.927  0.00  0.00     0.381 C 
BRANCH  53  54
HETATM   54  C   UNK N   1      22.168  12.228  10.947  0.00  0.00     0.169 C 
HETATM   55  O   UNK N   1      20.958  12.363  11.006  0.00  0.00    -0.649 OA
BRANCH  54  56
HETATM   56  O   UNK N   1      22.795  11.406  11.810  0.00  0.00    -0.775 OA
HETATM   57  H   UNK N   1      22.846  11.622  12.721  0.00  0.00     0.167 HD
ENDBRANCH  54  56
ENDBRANCH  53  54
ENDBRANCH   6  53
TORSDOF 25
ENDMDL
MODEL 4
REMARK VINA RESULT:      -7.2      2.740      4.836
REMARK  25 active torsions:
REMARK  status: ('A' for Active; 'I' for Inactive)
REMARK    1  A    between atoms: C_3  and  N_36 
REMARK    2  A    between atoms: C_6  and  C_7 
REMARK    3  A    between atoms: C_7  and  C_8 
REMARK    4  A    between atoms: N_10  and  C_32 
REMARK    5  A    between atoms: N_13  and  C_28 
REMARK    6  A    between atoms: N_16  and  C_24 
REMARK    7  A    between atoms: N_19  and  C_20 
REMARK    8  A    between atoms: C_20  and  C_21 
REMARK    9  A    between atoms: C_21  and  O_23 
REMARK   10  A    between atoms: C_24  and  C_25 
REMARK   11  A    between atoms: C_25  and  O_27 
REMARK   12  A    between atoms: C_28  and  C_29 
REMARK   13  A    between atoms: C_29  and  O_31 
REMARK   14  A    between atoms: C_32  and  C_33 
REMARK   15  A    between atoms: C_33  and  O_35 
REMARK   16  A    between atoms: N_36  and  C_37 
REMARK   17  A    between atoms: C_37  and  N_39 
REMARK   18  A    between atoms: N_39  and  C_40 
REMARK   19  A    between atoms: C_40  and  C_41 
REMARK   20  A    between atoms: C_41  and  C_42 
REMARK   21  A    between atoms: C_42  and  C_43 
REMARK   22  A    between atoms: C_43  and  C_44 
REMARK   23  A    between atoms: C_44  and  C_45 
REMARK   24  A    between atoms: C_44  and  N_48 
REMARK   25  A    between atoms: C_45  and  O_47 
ROOT
HETATM    1  C   UNK N   1      21.982  14.503   5.146  0.00  0.00     0.256 C 
HETATM    2  C   UNK N   1      21.514  13.040   5.301  0.00  0.00     0.309 C 
HETATM    3  N   UNK N   1      22.549  12.227   5.941  0.00  0.00     0.102 N 
HETATM    4  C   UNK N   1      22.027  11.870   7.247  0.00  0.00     0.303 C 
HETATM    5  C   UNK N   1      23.007  12.299   8.320  0.00  0.00     0.303 C 
HETATM    6  N   UNK N   1      22.265  12.885   9.419  0.00  0.00     0.101 N 
HETATM    7  C   UNK N   1      22.129  14.308   9.149  0.00  0.00     0.303 C 
HETATM    8  C   UNK N   1      20.681  14.614   8.822  0.00  0.00     0.303 C 
HETATM    9  N   UNK N   1      20.510  16.041   8.587  0.00  0.00     0.101 N 
HETATM   10  C   UNK N   1      20.848  16.395   7.207  0.00  0.00     0.303 C 
HETATM   11  C   UNK N   1      20.096  15.574   6.155  0.00  0.00     0.303 C 
HETATM   12  N   UNK N   1      20.921  15.496   4.958  0.00  0.00     0.106 N 
ENDROOT
BRANCH   1  13
HETATM   13  C   UNK N   1      23.153  14.748   4.191  0.00  0.00     0.076 C 
BRANCH  13  14
HETATM   14  C   UNK N   1      24.146  15.792   4.598  0.00  0.00    -0.056 A 
HETATM   15  C   UNK N   1      25.058  15.545   5.634  0.00  0.00     0.009 A 
HETATM   16  C   UNK N   1      26.155  16.404   5.814  0.00  0.00     0.030 A 
HETATM   17  C   UNK N   1      26.316  17.509   4.963  0.00  0.00     0.034 A 
HETATM   18  C   UNK N   1      25.374  17.769   3.974  0.00  0.00     0.030 A 
HETATM   19  C   UNK N   1      24.304  16.918   3.797  0.00  0.00     0.009 A 
BRANCH  17  20
HETATM   20  N   UNK N   1      27.561  18.165   4.859  0.00  0.00    -0.333 N 
HETATM   21  H   UNK N   1      27.616  19.143   4.950  0.00  0.00     0.168 HD
BRANCH  20  22
HETATM   22  C   UNK N   1      28.745  17.392   4.617  0.00  0.00     0.172 C 
HETATM   23  S   UNK N   1      28.914  16.664   3.381  0.00  0.00    -0.041 SA
BRANCH  22  24
HETATM   24  N   UNK N   1      29.871  17.552   5.451  0.00  0.00    -0.367 N 
HETATM   25  H   UNK N   1      30.359  18.407   5.459  0.00  0.00     0.161 HD
BRANCH  24  26
HETATM   26  C   UNK N   1      30.311  16.467   6.290  0.00  0.00     0.122 C 
BRANCH  26  27
HETATM   27  C   UNK N   1      31.595  16.881   6.996  0.00  0.00     0.020 C 
BRANCH  27  28
HETATM   28  C   UNK N   1      31.388  17.057   8.496  0.00  0.00     0.004 C 
BRANCH  28  29
HETATM   29  C   UNK N   1      30.796  18.425   8.845  0.00  0.00     0.035 C 
BRANCH  29  30
HETATM   30  C   UNK N   1      29.535  18.329   9.700  0.00  0.00     0.173 C 
BRANCH  30  31
HETATM   31  C   UNK N   1      28.314  18.214   8.821  0.00  0.00     0.163 C 
HETATM   32  O   UNK N   1      28.210  18.883   7.806  0.00  0.00    -0.648 OA
BRANCH  31  33
HETATM   33  O   UNK N   1      27.327  17.359   9.152  0.00  0.00    -0.775 OA
HETATM   34  H   UNK N   1      26.733  17.045   8.500  0.00  0.00     0.167 HD
ENDBRANCH  31  33
ENDBRANCH  30  31
BRANCH  30  35
HETATM   35  N   UNK N   1      29.640  17.178  10.586  0.00  0.00    -0.418 N 
HETATM   36  H   UNK N   1      28.910  16.467  10.608  0.00  0.00     0.150 HD
HETATM   37  H   UNK N   1      30.454  17.084  11.193  0.00  0.00     0.150 HD
ENDBRANCH  30  35
ENDBRANCH  29  30
ENDBRANCH  28  29
ENDBRANCH  27  28
ENDBRANCH  26  27
ENDBRANCH  24  26
ENDBRANCH  22  24
ENDBRANCH  20  22
ENDBRANCH  17  20
ENDBRANCH  13  14
ENDBRANCH   1  13
BRANCH  12  38
HETATM   38  C   UNK N   1      20.096  15.234   3.786  0.00  0.00     0.382 C 
BRANCH  38  39
HETATM   39  C   UNK N   1      20.155  16.425   2.882  0.00  0.00     0.169 C 
HETATM   40  O   UNK N   1      20.832  17.391   3.191  0.00  0.00    -0.649 OA
BRANCH  39  41
HETATM   41  O   UNK N   1      19.442  16.444   1.740  0.00  0.00    -0.775 OA
HETATM   42  H   UNK N   1      18.643  16.931   1.694  0.00  0.00     0.167 HD
ENDBRANCH  39  41
ENDBRANCH  38  39
ENDBRANCH  12  38
BRANCH   3  43
HETATM   43  C   UNK N   1      22.701  10.993   5.171  0.00  0.00     0.381 C 
BRANCH  43  44
HETATM   44  C   UNK N   1      24.087  10.854   4.607  0.00  0.00     0.169 C 
HETATM   45  O   UNK N   1      25.025  10.620   5.351  0.00  0.00    -0.649 OA
BRANCH  44  46
HETATM   46  O   UNK N   1      24.304  11.027   3.290  0.00  0.00    -0.775 OA
HETATM   47  H   UNK N   1      23.923  11.756   2.840  0.00  0.00     0.167 HD
ENDBRANCH  44  46
ENDBRANCH  43  44
ENDBRANCH   3  43
BRANCH   9  48
HETATM   48  C   UNK N   1      19.128  16.399   8.867  0.00  0.00     0.381 C 
BRANCH  48  49
HETATM   49  C   UNK N   1      19.063  17.832   9.277  0.00  0.00     0.169 C 
HETATM   50  O   UNK N   1      20.074  18.513   9.269  0.00  0.00    -0.649 OA
BRANCH  49  51
HETATM   51  O   UNK N   1      17.892  18.372   9.666  0.00  0.00    -0.775 OA
HETATM   52  H   UNK N   1      17.121  17.841   9.724  0.00  0.00     0.167 HD
ENDBRANCH  49  51
ENDBRANCH  48  49
ENDBRANCH   9  48
BRANCH   6  53
HETATM   53  C   UNK N   1      23.057  12.737  10.627  0.00  0.00     0.381 C 
BRANCH  53  54
HETATM   54  C   UNK N   1      22.221  12.102  11.690  0.00  0.00     0.169 C 
HETATM   55  O   UNK N   1      22.726  11.793  12.756  0.00  0.00    -0.649 OA
BRANCH  54  56
HETATM   56  O   UNK N   1      20.915  11.859  11.470  0.00  0.00    -0.775 OA
HETATM   57  H   UNK N   1      20.495  11.121  11.869  0.00  0.00     0.167 HD
ENDBRANCH  54  56
ENDBRANCH  53  54
ENDBRANCH   6  53
TORSDOF 25
ENDMDL
MODEL 5
REMARK VINA RESULT:      -7.1      1.917      4.460
REMARK  25 active torsions:
REMARK  status: ('A' for Active; 'I' for Inactive)
REMARK    1  A    between atoms: C_3  and  N_36 
REMARK    2  A    between atoms: C_6  and  C_7 
REMARK    3  A    between atoms: C_7  and  C_8 
REMARK    4  A    between atoms: N_10  and  C_32 
REMARK    5  A    between atoms: N_13  and  C_28 
REMARK    6  A    between atoms: N_16  and  C_24 
REMARK    7  A    between atoms: N_19  and  C_20 
REMARK    8  A    between atoms: C_20  and  C_21 
REMARK    9  A    between atoms: C_21  and  O_23 
REMARK   10  A    between atoms: C_24  and  C_25 
REMARK   11  A    between atoms: C_25  and  O_27 
REMARK   12  A    between atoms: C_28  and  C_29 
REMARK   13  A    between atoms: C_29  and  O_31 
REMARK   14  A    between atoms: C_32  and  C_33 
REMARK   15  A    between atoms: C_33  and  O_35 
REMARK   16  A    between atoms: N_36  and  C_37 
REMARK   17  A    between atoms: C_37  and  N_39 
REMARK   18  A    between atoms: N_39  and  C_40 
REMARK   19  A    between atoms: C_40  and  C_41 
REMARK   20  A    between atoms: C_41  and  C_42 
REMARK   21  A    between atoms: C_42  and  C_43 
REMARK   22  A    between atoms: C_43  and  C_44 
REMARK   23  A    between atoms: C_44  and  C_45 
REMARK   24  A    between atoms: C_44  and  N_48 
REMARK   25  A    between atoms: C_45  and  O_47 
ROOT
HETATM    1  C   UNK N   1      21.566  15.429   4.863  0.00  0.00     0.256 C 
HETATM    2  C   UNK N   1      20.853  14.060   4.859  0.00  0.00     0.309 C 
HETATM    3  N   UNK N   1      21.715  13.022   5.425  0.00  0.00     0.102 N 
HETATM    4  C   UNK N   1      21.098  12.630   6.679  0.00  0.00     0.303 C 
HETATM    5  C   UNK N   1      22.102  12.775   7.805  0.00  0.00     0.303 C 
HETATM    6  N   UNK N   1      21.434  13.366   8.948  0.00  0.00     0.101 N 
HETATM    7  C   UNK N   1      21.549  14.811   8.827  0.00  0.00     0.303 C 
HETATM    8  C   UNK N   1      20.185  15.391   8.512  0.00  0.00     0.303 C 
HETATM    9  N   UNK N   1      20.264  16.843   8.425  0.00  0.00     0.101 N 
HETATM   10  C   UNK N   1      20.702  17.271   7.094  0.00  0.00     0.303 C 
HETATM   11  C   UNK N   1      19.857  16.700   5.952  0.00  0.00     0.303 C 
HETATM   12  N   UNK N   1      20.694  16.602   4.765  0.00  0.00     0.106 N 
ENDROOT
BRANCH   1  13
HETATM   13  C   UNK N   1      22.792  15.565   3.957  0.00  0.00     0.076 C 
BRANCH  13  14
HETATM   14  C   UNK N   1      23.960  16.318   4.514  0.00  0.00    -0.056 A 
HETATM   15  C   UNK N   1      24.910  15.671   5.317  0.00  0.00     0.009 A 
HETATM   16  C   UNK N   1      26.134  16.302   5.592  0.00  0.00     0.030 A 
HETATM   17  C   UNK N   1      26.385  17.582   5.072  0.00  0.00     0.034 A 
HETATM   18  C   UNK N   1      25.413  18.231   4.320  0.00  0.00     0.030 A 
HETATM   19  C   UNK N   1      24.216  17.602   4.046  0.00  0.00     0.009 A 
BRANCH  17  20
HETATM   20  N   UNK N   1      27.700  18.087   5.001  0.00  0.00    -0.333 N 
HETATM   21  H   UNK N   1      28.145  18.195   4.130  0.00  0.00     0.168 HD
BRANCH  20  22
HETATM   22  C   UNK N   1      28.385  18.441   6.211  0.00  0.00     0.172 C 
HETATM   23  S   UNK N   1      27.882  19.492   7.065  0.00  0.00    -0.041 SA
BRANCH  22  24
HETATM   24  N   UNK N   1      29.391  17.596   6.723  0.00  0.00    -0.367 N 
HETATM   25  H   UNK N   1      29.866  16.978   6.121  0.00  0.00     0.161 HD
BRANCH  24  26
HETATM   26  C   UNK N   1      29.726  17.632   8.123  0.00  0.00     0.122 C 
BRANCH  26  27
HETATM   27  C   UNK N   1      31.240  17.694   8.266  0.00  0.00     0.020 C 
BRANCH  27  28
HETATM   28  C   UNK N   1      31.906  16.387   7.851  0.00  0.00     0.004 C 
BRANCH  28  29
HETATM   29  C   UNK N   1      32.938  15.910   8.876  0.00  0.00     0.035 C 
BRANCH  29  30
HETATM   30  C   UNK N   1      34.375  16.204   8.456  0.00  0.00     0.173 C 
BRANCH  30  31
HETATM   31  C   UNK N   1      34.854  17.487   9.088  0.00  0.00     0.163 C 
HETATM   32  O   UNK N   1      35.450  17.475  10.152  0.00  0.00    -0.648 OA
BRANCH  31  33
HETATM   33  O   UNK N   1      34.630  18.664   8.471  0.00  0.00    -0.775 OA
HETATM   34  H   UNK N   1      35.304  19.070   7.964  0.00  0.00     0.167 HD
ENDBRANCH  31  33
ENDBRANCH  30  31
BRANCH  30  35
HETATM   35  N   UNK N   1      35.229  15.090   8.846  0.00  0.00    -0.418 N 
HETATM   36  H   UNK N   1      35.509  14.961   9.818  0.00  0.00     0.150 HD
HETATM   37  H   UNK N   1      35.551  14.431   8.137  0.00  0.00     0.150 HD
ENDBRANCH  30  35
ENDBRANCH  29  30
ENDBRANCH  28  29
ENDBRANCH  27  28
ENDBRANCH  26  27
ENDBRANCH  24  26
ENDBRANCH  22  24
ENDBRANCH  20  22
ENDBRANCH  17  20
ENDBRANCH  13  14
ENDBRANCH   1  13
BRANCH  12  38
HETATM   38  C   UNK N   1      19.876  16.605   3.560  0.00  0.00     0.382 C 
BRANCH  38  39
HETATM   39  C   UNK N   1      19.832  17.996   3.012  0.00  0.00     0.169 C 
HETATM   40  O   UNK N   1      20.794  18.734   3.145  0.00  0.00    -0.649 OA
BRANCH  39  41
HETATM   41  O   UNK N   1      18.722  18.446   2.395  0.00  0.00    -0.775 OA
HETATM   42  H   UNK N   1      18.113  18.984   2.860  0.00  0.00     0.167 HD
ENDBRANCH  39  41
ENDBRANCH  38  39
ENDBRANCH  12  38
BRANCH   3  43
HETATM   43  C   UNK N   1      21.681  11.863   4.532  0.00  0.00     0.381 C 
BRANCH  43  44
HETATM   44  C   UNK N   1      22.752  11.938   3.481  0.00  0.00     0.169 C 
HETATM   45  O   UNK N   1      23.907  12.162   3.803  0.00  0.00    -0.649 OA
BRANCH  44  46
HETATM   46  O   UNK N   1      22.435  11.799   2.179  0.00  0.00    -0.775 OA
HETATM   47  H   UNK N   1      22.617  12.489   1.572  0.00  0.00     0.167 HD
ENDBRANCH  44  46
ENDBRANCH  43  44
ENDBRANCH   3  43
BRANCH   9  48
HETATM   48  C   UNK N   1      18.954  17.402   8.719  0.00  0.00     0.381 C 
BRANCH  48  49
HETATM   49  C   UNK N   1      19.105  18.532   9.682  0.00  0.00     0.169 C 
HETATM   50  O   UNK N   1      20.149  19.160   9.722  0.00  0.00    -0.649 OA
BRANCH  49  51
HETATM   51  O   UNK N   1      18.095  18.852  10.514  0.00  0.00    -0.775 OA
HETATM   52  H   UNK N   1      17.322  18.322  10.547  0.00  0.00     0.167 HD
ENDBRANCH  49  51
ENDBRANCH  48  49
ENDBRANCH   9  48
BRANCH   6  53
HETATM   53  C   UNK N   1      22.150  12.964  10.146  0.00  0.00     0.381 C 
BRANCH  53  54
HETATM   54  C   UNK N   1      21.193  12.337  11.106  0.00  0.00     0.169 C 
HETATM   55  O   UNK N   1      19.995  12.521  10.975  0.00  0.00    -0.649 OA
BRANCH  54  56
HETATM   56  O   UNK N   1      21.650  11.583  12.123  0.00  0.00    -0.775 OA
HETATM   57  H   UNK N   1      21.199  11.569  12.946  0.00  0.00     0.167 HD
ENDBRANCH  54  56
ENDBRANCH  53  54
ENDBRANCH   6  53
TORSDOF 25
ENDMDL
MODEL 6
REMARK VINA RESULT:      -7.1      3.097      7.046
REMARK  25 active torsions:
REMARK  status: ('A' for Active; 'I' for Inactive)
REMARK    1  A    between atoms: C_3  and  N_36 
REMARK    2  A    between atoms: C_6  and  C_7 
REMARK    3  A    between atoms: C_7  and  C_8 
REMARK    4  A    between atoms: N_10  and  C_32 
REMARK    5  A    between atoms: N_13  and  C_28 
REMARK    6  A    between atoms: N_16  and  C_24 
REMARK    7  A    between atoms: N_19  and  C_20 
REMARK    8  A    between atoms: C_20  and  C_21 
REMARK    9  A    between atoms: C_21  and  O_23 
REMARK   10  A    between atoms: C_24  and  C_25 
REMARK   11  A    between atoms: C_25  and  O_27 
REMARK   12  A    between atoms: C_28  and  C_29 
REMARK   13  A    between atoms: C_29  and  O_31 
REMARK   14  A    between atoms: C_32  and  C_33 
REMARK   15  A    between atoms: C_33  and  O_35 
REMARK   16  A    between atoms: N_36  and  C_37 
REMARK   17  A    between atoms: C_37  and  N_39 
REMARK   18  A    between atoms: N_39  and  C_40 
REMARK   19  A    between atoms: C_40  and  C_41 
REMARK   20  A    between atoms: C_41  and  C_42 
REMARK   21  A    between atoms: C_42  and  C_43 
REMARK   22  A    between atoms: C_43  and  C_44 
REMARK   23  A    between atoms: C_44  and  C_45 
REMARK   24  A    between atoms: C_44  and  N_48 
REMARK   25  A    between atoms: C_45  and  O_47 
ROOT
HETATM    1  C   UNK N   1      20.714  16.081   6.788  0.00  0.00     0.256 C 
HETATM    2  C   UNK N   1      19.801  15.222   5.887  0.00  0.00     0.309 C 
HETATM    3  N   UNK N   1      20.531  14.737   4.716  0.00  0.00     0.102 N 
HETATM    4  C   UNK N   1      20.652  13.301   4.886  0.00  0.00     0.303 C 
HETATM    5  C   UNK N   1      22.113  12.902   4.807  0.00  0.00     0.303 C 
HETATM    6  N   UNK N   1      22.382  11.924   5.842  0.00  0.00     0.101 N 
HETATM    7  C   UNK N   1      22.774  12.648   7.042  0.00  0.00     0.303 C 
HETATM    8  C   UNK N   1      21.672  12.525   8.075  0.00  0.00     0.303 C 
HETATM    9  N   UNK N   1      22.057  13.209   9.303  0.00  0.00     0.101 N 
HETATM   10  C   UNK N   1      21.761  14.641   9.226  0.00  0.00     0.303 C 
HETATM   11  C   UNK N   1      20.308  14.954   8.859  0.00  0.00     0.303 C 
HETATM   12  N   UNK N   1      20.273  16.240   8.177  0.00  0.00     0.106 N 
ENDROOT
BRANCH   1  13
HETATM   13  C   UNK N   1      21.202  17.407   6.201  0.00  0.00     0.076 C 
BRANCH  13  14
HETATM   14  C   UNK N   1      22.594  17.428   5.651  0.00  0.00    -0.056 A 
HETATM   15  C   UNK N   1      23.450  16.332   5.832  0.00  0.00     0.009 A 
HETATM   16  C   UNK N   1      24.633  16.243   5.080  0.00  0.00     0.030 A 
HETATM   17  C   UNK N   1      24.952  17.261   4.167  0.00  0.00     0.034 A 
HETATM   18  C   UNK N   1      24.118  18.365   4.037  0.00  0.00     0.030 A 
HETATM   19  C   UNK N   1      22.954  18.443   4.772  0.00  0.00     0.009 A 
BRANCH  17  20
HETATM   20  N   UNK N   1      25.901  17.044   3.146  0.00  0.00    -0.333 N 
HETATM   21  H   UNK N   1      25.920  17.627   2.353  0.00  0.00     0.168 HD
BRANCH  20  22
HETATM   22  C   UNK N   1      26.838  15.966   3.274  0.00  0.00     0.172 C 
HETATM   23  S   UNK N   1      26.872  14.896   2.303  0.00  0.00    -0.041 SA
BRANCH  22  24
HETATM   24  N   UNK N   1      27.913  16.071   4.181  0.00  0.00    -0.367 N 
HETATM   25  H   UNK N   1      27.932  15.505   4.987  0.00  0.00     0.161 HD
BRANCH  24  26
HETATM   26  C   UNK N   1      28.982  17.002   3.934  0.00  0.00     0.122 C 
BRANCH  26  27
HETATM   27  C   UNK N   1      28.809  18.206   4.849  0.00  0.00     0.020 C 
BRANCH  27  28
HETATM   28  C   UNK N   1      28.389  17.796   6.256  0.00  0.00     0.004 C 
BRANCH  28  29
HETATM   29  C   UNK N   1      29.583  17.394   7.126  0.00  0.00     0.035 C 
BRANCH  29  30
HETATM   30  C   UNK N   1      29.685  18.209   8.412  0.00  0.00     0.173 C 
BRANCH  30  31
HETATM   31  C   UNK N   1      28.643  17.757   9.403  0.00  0.00     0.163 C 
HETATM   32  O   UNK N   1      28.911  16.929  10.258  0.00  0.00    -0.648 OA
BRANCH  31  33
HETATM   33  O   UNK N   1      27.400  18.276   9.354  0.00  0.00    -0.775 OA
HETATM   34  H   UNK N   1      26.837  18.093   8.629  0.00  0.00     0.167 HD
ENDBRANCH  31  33
ENDBRANCH  30  31
BRANCH  30  35
HETATM   35  N   UNK N   1      31.022  18.063   8.970  0.00  0.00    -0.418 N 
HETATM   36  H   UNK N   1      31.156  17.805   9.947  0.00  0.00     0.150 HD
HETATM   37  H   UNK N   1      31.836  18.222   8.376  0.00  0.00     0.150 HD
ENDBRANCH  30  35
ENDBRANCH  29  30
ENDBRANCH  28  29
ENDBRANCH  27  28
ENDBRANCH  26  27
ENDBRANCH  24  26
ENDBRANCH  22  24
ENDBRANCH  20  22
ENDBRANCH  17  20
ENDBRANCH  13  14
ENDBRANCH   1  13
BRANCH  12  38
HETATM   38  C   UNK N   1      18.952  16.843   8.290  0.00  0.00     0.382 C 
BRANCH  38  39
HETATM   39  C   UNK N   1      19.021  17.969   9.273  0.00  0.00     0.169 C 
HETATM   40  O   UNK N   1      18.155  18.089  10.123  0.00  0.00    -0.649 OA
BRANCH  39  41
HETATM   41  O   UNK N   1      20.023  18.865   9.205  0.00  0.00    -0.775 OA
HETATM   42  H   UNK N   1      20.685  18.881   9.868  0.00  0.00     0.167 HD
ENDBRANCH  39  41
ENDBRANCH  38  39
ENDBRANCH  12  38
BRANCH   3  43
HETATM   43  C   UNK N   1      19.706  14.976   3.532  0.00  0.00     0.381 C 
BRANCH  43  44
HETATM   44  C   UNK N   1      19.989  16.318   2.917  0.00  0.00     0.169 C 
HETATM   45  O   UNK N   1      20.941  16.455   2.167  0.00  0.00    -0.649 OA
BRANCH  44  46
HETATM   46  O   UNK N   1      19.219  17.380   3.222  0.00  0.00    -0.775 OA
HETATM   47  H   UNK N   1      18.815  17.444   4.065  0.00  0.00     0.167 HD
ENDBRANCH  44  46
ENDBRANCH  43  44
ENDBRANCH   3  43
BRANCH   9  48
HETATM   48  C   UNK N   1      21.337  12.612  10.416  0.00  0.00     0.381 C 
BRANCH  48  49
HETATM   49  C   UNK N   1      22.313  12.012  11.371  0.00  0.00     0.169 C 
HETATM   50  O   UNK N   1      23.492  11.940  11.069  0.00  0.00    -0.649 OA
BRANCH  49  51
HETATM   51  O   UNK N   1      21.894  11.541  12.562  0.00  0.00    -0.775 OA
HETATM   52  H   UNK N   1      22.468  11.027  13.096  0.00  0.00     0.167 HD
ENDBRANCH  49  51
ENDBRANCH  48  49
ENDBRANCH   9  48
BRANCH   6  53
HETATM   53  C   UNK N   1      23.516  11.122   5.419  0.00  0.00     0.381 C 
BRANCH  53  54
HETATM   54  C   UNK N   1      23.324   9.713   5.879  0.00  0.00     0.169 C 
HETATM   55  O   UNK N   1      22.456   9.022   5.373  0.00  0.00    -0.649 OA
BRANCH  54  56
HETATM   56  O   UNK N   1      24.095   9.209   6.860  0.00  0.00    -0.775 OA
HETATM   57  H   UNK N   1      23.797   9.212   7.750  0.00  0.00     0.167 HD
ENDBRANCH  54  56
ENDBRANCH  53  54
ENDBRANCH   6  53
TORSDOF 25
ENDMDL
MODEL 7
REMARK VINA RESULT:      -7.1      4.490      8.884
REMARK  25 active torsions:
REMARK  status: ('A' for Active; 'I' for Inactive)
REMARK    1  A    between atoms: C_3  and  N_36 
REMARK    2  A    between atoms: C_6  and  C_7 
REMARK    3  A    between atoms: C_7  and  C_8 
REMARK    4  A    between atoms: N_10  and  C_32 
REMARK    5  A    between atoms: N_13  and  C_28 
REMARK    6  A    between atoms: N_16  and  C_24 
REMARK    7  A    between atoms: N_19  and  C_20 
REMARK    8  A    between atoms: C_20  and  C_21 
REMARK    9  A    between atoms: C_21  and  O_23 
REMARK   10  A    between atoms: C_24  and  C_25 
REMARK   11  A    between atoms: C_25  and  O_27 
REMARK   12  A    between atoms: C_28  and  C_29 
REMARK   13  A    between atoms: C_29  and  O_31 
REMARK   14  A    between atoms: C_32  and  C_33 
REMARK   15  A    between atoms: C_33  and  O_35 
REMARK   16  A    between atoms: N_36  and  C_37 
REMARK   17  A    between atoms: C_37  and  N_39 
REMARK   18  A    between atoms: N_39  and  C_40 
REMARK   19  A    between atoms: C_40  and  C_41 
REMARK   20  A    between atoms: C_41  and  C_42 
REMARK   21  A    between atoms: C_42  and  C_43 
REMARK   22  A    between atoms: C_43  and  C_44 
REMARK   23  A    between atoms: C_44  and  C_45 
REMARK   24  A    between atoms: C_44  and  N_48 
REMARK   25  A    between atoms: C_45  and  O_47 
ROOT
HETATM    1  C   UNK N   1      21.386  15.082   5.744  0.00  0.00     0.256 C 
HETATM    2  C   UNK N   1      20.249  14.192   5.199  0.00  0.00     0.309 C 
HETATM    3  N   UNK N   1      20.741  13.303   4.147  0.00  0.00     0.102 N 
HETATM    4  C   UNK N   1      20.677  11.960   4.696  0.00  0.00     0.303 C 
HETATM    5  C   UNK N   1      22.042  11.308   4.601  0.00  0.00     0.303 C 
HETATM    6  N   UNK N   1      22.302  10.598   5.838  0.00  0.00     0.101 N 
HETATM    7  C   UNK N   1      22.948  11.528   6.752  0.00  0.00     0.303 C 
HETATM    8  C   UNK N   1      21.986  11.868   7.873  0.00  0.00     0.303 C 
HETATM    9  N   UNK N   1      22.623  12.768   8.825  0.00  0.00     0.101 N 
HETATM   10  C   UNK N   1      22.528  14.161   8.382  0.00  0.00     0.303 C 
HETATM   11  C   UNK N   1      21.099  14.616   8.073  0.00  0.00     0.303 C 
HETATM   12  N   UNK N   1      21.159  15.668   7.068  0.00  0.00     0.106 N 
ENDROOT
BRANCH   1  13
HETATM   13  C   UNK N   1      21.977  16.107   4.773  0.00  0.00     0.076 C 
BRANCH  13  14
HETATM   14  C   UNK N   1      23.445  16.004   4.497  0.00  0.00    -0.056 A 
HETATM   15  C   UNK N   1      23.911  15.731   3.203  0.00  0.00     0.009 A 
HETATM   16  C   UNK N   1      25.269  15.917   2.899  0.00  0.00     0.030 A 
HETATM   17  C   UNK N   1      26.148  16.361   3.901  0.00  0.00     0.034 A 
HETATM   18  C   UNK N   1      25.680  16.578   5.191  0.00  0.00     0.030 A 
HETATM   19  C   UNK N   1      24.344  16.401   5.481  0.00  0.00     0.009 A 
BRANCH  17  20
HETATM   20  N   UNK N   1      27.403  16.912   3.567  0.00  0.00    -0.333 N 
HETATM   21  H   UNK N   1      27.970  16.480   2.888  0.00  0.00     0.168 HD
BRANCH  20  22
HETATM   22  C   UNK N   1      27.847  18.105   4.227  0.00  0.00     0.172 C 
HETATM   23  S   UNK N   1      28.906  18.058   5.208  0.00  0.00    -0.041 SA
BRANCH  22  24
HETATM   24  N   UNK N   1      27.453  19.368   3.737  0.00  0.00    -0.367 N 
HETATM   25  H   UNK N   1      27.998  19.820   3.052  0.00  0.00     0.161 HD
BRANCH  24  26
HETATM   26  C   UNK N   1      26.259  20.000   4.235  0.00  0.00     0.122 C 
BRANCH  26  27
HETATM   27  C   UNK N   1      25.261  20.134   3.095  0.00  0.00     0.020 C 
BRANCH  27  28
HETATM   28  C   UNK N   1      23.841  19.801   3.538  0.00  0.00     0.004 C 
BRANCH  28  29
HETATM   29  C   UNK N   1      22.785  20.389   2.598  0.00  0.00     0.035 C 
BRANCH  29  30
HETATM   30  C   UNK N   1      21.357  20.077   3.035  0.00  0.00     0.173 C 
BRANCH  30  31
HETATM   31  C   UNK N   1      20.623  19.342   1.940  0.00  0.00     0.163 C 
HETATM   32  O   UNK N   1      19.955  18.353   2.191  0.00  0.00    -0.648 OA
BRANCH  31  33
HETATM   33  O   UNK N   1      20.695  19.785   0.670  0.00  0.00    -0.775 OA
HETATM   34  H   UNK N   1      20.061  20.392   0.342  0.00  0.00     0.167 HD
ENDBRANCH  31  33
ENDBRANCH  30  31
BRANCH  30  35
HETATM   35  N   UNK N   1      21.388  19.282   4.255  0.00  0.00    -0.418 N 
HETATM   36  H   UNK N   1      20.758  18.490   4.380  0.00  0.00     0.150 HD
HETATM   37  H   UNK N   1      22.049  19.521   4.994  0.00  0.00     0.150 HD
ENDBRANCH  30  35
ENDBRANCH  29  30
ENDBRANCH  28  29
ENDBRANCH  27  28
ENDBRANCH  26  27
ENDBRANCH  24  26
ENDBRANCH  22  24
ENDBRANCH  20  22
ENDBRANCH  17  20
ENDBRANCH  13  14
ENDBRANCH   1  13
BRANCH  12  38
HETATM   38  C   UNK N   1      19.965  16.500   7.127  0.00  0.00     0.382 C 
BRANCH  38  39
HETATM   39  C   UNK N   1      20.311  17.790   7.802  0.00  0.00     0.169 C 
HETATM   40  O   UNK N   1      20.895  18.663   7.183  0.00  0.00    -0.649 OA
BRANCH  39  41
HETATM   41  O   UNK N   1      20.002  17.979   9.099  0.00  0.00    -0.775 OA
HETATM   42  H   UNK N   1      20.677  18.182   9.716  0.00  0.00     0.167 HD
ENDBRANCH  39  41
ENDBRANCH  38  39
ENDBRANCH  12  38
BRANCH   3  43
HETATM   43  C   UNK N   1      19.810  13.368   3.021  0.00  0.00     0.381 C 
BRANCH  43  44
HETATM   44  C   UNK N   1      20.197  14.437   2.039  0.00  0.00     0.169 C 
HETATM   45  O   UNK N   1      21.195  14.299   1.350  0.00  0.00    -0.649 OA
BRANCH  44  46
HETATM   46  O   UNK N   1      19.470  15.566   1.944  0.00  0.00    -0.775 OA
HETATM   47  H   UNK N   1      19.814  16.378   2.261  0.00  0.00     0.167 HD
ENDBRANCH  44  46
ENDBRANCH  43  44
ENDBRANCH   3  43
BRANCH   9  48
HETATM   48  C   UNK N   1      21.978  12.614  10.119  0.00  0.00     0.381 C 
BRANCH  48  49
HETATM   49  C   UNK N   1      22.975  12.117  11.111  0.00  0.00     0.169 C 
HETATM   50  O   UNK N   1      24.166  12.182  10.860  0.00  0.00    -0.649 OA
BRANCH  49  51
HETATM   51  O   UNK N   1      22.562  11.588  12.279  0.00  0.00    -0.775 OA
HETATM   52  H   UNK N   1      22.643  12.076  13.075  0.00  0.00     0.167 HD
ENDBRANCH  49  51
ENDBRANCH  48  49
ENDBRANCH   9  48
BRANCH   6  53
HETATM   53  C   UNK N   1      23.244   9.530   5.555  0.00  0.00     0.381 C 
BRANCH  53  54
HETATM   54  C   UNK N   1      22.955   8.367   6.448  0.00  0.00     0.169 C 
HETATM   55  O   UNK N   1      23.687   8.133   7.394  0.00  0.00    -0.649 OA
BRANCH  54  56
HETATM   56  O   UNK N   1      21.898   7.570   6.202  0.00  0.00    -0.775 OA
HETATM   57  H   UNK N   1      21.089   7.934   5.896  0.00  0.00     0.167 HD
ENDBRANCH  54  56
ENDBRANCH  53  54
ENDBRANCH   6  53
TORSDOF 25
ENDMDL
MODEL 8
REMARK VINA RESULT:      -7.1      4.158      5.400
REMARK  25 active torsions:
REMARK  status: ('A' for Active; 'I' for Inactive)
REMARK    1  A    between atoms: C_3  and  N_36 
REMARK    2  A    between atoms: C_6  and  C_7 
REMARK    3  A    between atoms: C_7  and  C_8 
REMARK    4  A    between atoms: N_10  and  C_32 
REMARK    5  A    between atoms: N_13  and  C_28 
REMARK    6  A    between atoms: N_16  and  C_24 
REMARK    7  A    between atoms: N_19  and  C_20 
REMARK    8  A    between atoms: C_20  and  C_21 
REMARK    9  A    between atoms: C_21  and  O_23 
REMARK   10  A    between atoms: C_24  and  C_25 
REMARK   11  A    between atoms: C_25  and  O_27 
REMARK   12  A    between atoms: C_28  and  C_29 
REMARK   13  A    between atoms: C_29  and  O_31 
REMARK   14  A    between atoms: C_32  and  C_33 
REMARK   15  A    between atoms: C_33  and  O_35 
REMARK   16  A    between atoms: N_36  and  C_37 
REMARK   17  A    between atoms: C_37  and  N_39 
REMARK   18  A    between atoms: N_39  and  C_40 
REMARK   19  A    between atoms: C_40  and  C_41 
REMARK   20  A    between atoms: C_41  and  C_42 
REMARK   21  A    between atoms: C_42  and  C_43 
REMARK   22  A    between atoms: C_43  and  C_44 
REMARK   23  A    between atoms: C_44  and  C_45 
REMARK   24  A    between atoms: C_44  and  N_48 
REMARK   25  A    between atoms: C_45  and  O_47 
ROOT
HETATM    1  C   UNK N   1      22.959  14.164   4.138  0.00  0.00     0.256 C 
HETATM    2  C   UNK N   1      21.785  13.277   4.604  0.00  0.00     0.309 C 
HETATM    3  N   UNK N   1      21.808  13.103   6.057  0.00  0.00     0.102 N 
HETATM    4  C   UNK N   1      20.646  13.812   6.562  0.00  0.00     0.303 C 
HETATM    5  C   UNK N   1      21.082  14.821   7.606  0.00  0.00     0.303 C 
HETATM    6  N   UNK N   1      20.353  16.055   7.392  0.00  0.00     0.101 N 
HETATM    7  C   UNK N   1      21.125  16.868   6.465  0.00  0.00     0.303 C 
HETATM    8  C   UNK N   1      20.397  16.931   5.138  0.00  0.00     0.303 C 
HETATM    9  N   UNK N   1      21.130  17.774   4.202  0.00  0.00     0.101 N 
HETATM   10  C   UNK N   1      22.192  17.020   3.531  0.00  0.00     0.303 C 
HETATM   11  C   UNK N   1      21.705  15.740   2.847  0.00  0.00     0.303 C 
HETATM   12  N   UNK N   1      22.805  14.786   2.820  0.00  0.00     0.106 N 
ENDROOT
BRANCH   1  13
HETATM   13  C   UNK N   1      24.366  13.591   4.324  0.00  0.00     0.076 C 
BRANCH  13  14
HETATM   14  C   UNK N   1      25.324  14.407   5.136  0.00  0.00    -0.056 A 
HETATM   15  C   UNK N   1      26.680  14.061   5.200  0.00  0.00     0.009 A 
HETATM   16  C   UNK N   1      27.608  14.978   5.720  0.00  0.00     0.030 A 
HETATM   17  C   UNK N   1      27.163  16.227   6.182  0.00  0.00     0.034 A 
HETATM   18  C   UNK N   1      25.808  16.535   6.158  0.00  0.00     0.030 A 
HETATM   19  C   UNK N   1      24.903  15.633   5.640  0.00  0.00     0.009 A 
BRANCH  17  20
HETATM   20  N   UNK N   1      28.066  17.297   6.355  0.00  0.00    -0.333 N 
HETATM   21  H   UNK N   1      28.607  17.617   5.597  0.00  0.00     0.168 HD
BRANCH  20  22
HETATM   22  C   UNK N   1      28.189  17.913   7.644  0.00  0.00     0.172 C 
HETATM   23  S   UNK N   1      28.436  17.117   8.824  0.00  0.00    -0.041 SA
BRANCH  22  24
HETATM   24  N   UNK N   1      28.346  19.312   7.743  0.00  0.00    -0.367 N 
HETATM   25  H   UNK N   1      29.204  19.689   8.047  0.00  0.00     0.161 HD
BRANCH  24  26
HETATM   26  C   UNK N   1      27.257  20.189   7.404  0.00  0.00     0.122 C 
BRANCH  26  27
HETATM   27  C   UNK N   1      27.681  21.074   6.241  0.00  0.00     0.020 C 
BRANCH  27  28
HETATM   28  C   UNK N   1      26.537  21.319   5.264  0.00  0.00     0.004 C 
BRANCH  28  29
HETATM   29  C   UNK N   1      26.599  20.389   4.050  0.00  0.00     0.035 C 
BRANCH  29  30
HETATM   30  C   UNK N   1      25.266  19.710   3.749  0.00  0.00     0.173 C 
BRANCH  30  31
HETATM   31  C   UNK N   1      24.474  20.528   2.760  0.00  0.00     0.163 C 
HETATM   32  O   UNK N   1      23.540  21.221   3.129  0.00  0.00    -0.648 OA
BRANCH  31  33
HETATM   33  O   UNK N   1      24.803  20.505   1.453  0.00  0.00    -0.775 OA
HETATM   34  H   UNK N   1      25.676  20.702   1.180  0.00  0.00     0.167 HD
ENDBRANCH  31  33
ENDBRANCH  30  31
BRANCH  30  35
HETATM   35  N   UNK N   1      25.512  18.372   3.229  0.00  0.00    -0.418 N 
HETATM   36  H   UNK N   1      25.505  18.192   2.225  0.00  0.00     0.150 HD
HETATM   37  H   UNK N   1      25.694  17.606   3.877  0.00  0.00     0.150 HD
ENDBRANCH  30  35
ENDBRANCH  29  30
ENDBRANCH  28  29
ENDBRANCH  27  28
ENDBRANCH  26  27
ENDBRANCH  24  26
ENDBRANCH  22  24
ENDBRANCH  20  22
ENDBRANCH  17  20
ENDBRANCH  13  14
ENDBRANCH   1  13
BRANCH  12  38
HETATM   38  C   UNK N   1      22.615  13.816   1.750  0.00  0.00     0.382 C 
BRANCH  38  39
HETATM   39  C   UNK N   1      23.725  13.970   0.760  0.00  0.00     0.169 C 
HETATM   40  O   UNK N   1      23.708  13.331  -0.279  0.00  0.00    -0.649 OA
BRANCH  39  41
HETATM   41  O   UNK N   1      24.758  14.792   1.024  0.00  0.00    -0.775 OA
HETATM   42  H   UNK N   1      24.673  15.459   1.676  0.00  0.00     0.167 HD
ENDBRANCH  39  41
ENDBRANCH  38  39
ENDBRANCH  12  38
BRANCH   3  43
HETATM   43  C   UNK N   1      21.623  11.682   6.350  0.00  0.00     0.381 C 
BRANCH  43  44
HETATM   44  C   UNK N   1      22.716  11.149   7.233  0.00  0.00     0.169 C 
HETATM   45  O   UNK N   1      22.861  11.595   8.359  0.00  0.00    -0.649 OA
BRANCH  44  46
HETATM   46  O   UNK N   1      23.562  10.208   6.772  0.00  0.00    -0.775 OA
HETATM   47  H   UNK N   1      24.402  10.451   6.437  0.00  0.00     0.167 HD
ENDBRANCH  44  46
ENDBRANCH  43  44
ENDBRANCH   3  43
BRANCH   9  48
HETATM   48  C   UNK N   1      20.198  18.301   3.218  0.00  0.00     0.381 C 
BRANCH  48  49
HETATM   49  C   UNK N   1      20.500  19.742   2.976  0.00  0.00     0.169 C 
HETATM   50  O   UNK N   1      20.267  20.566   3.844  0.00  0.00    -0.649 OA
BRANCH  49  51
HETATM   51  O   UNK N   1      21.021  20.136   1.798  0.00  0.00    -0.775 OA
HETATM   52  H   UNK N   1      21.810  20.640   1.773  0.00  0.00     0.167 HD
ENDBRANCH  49  51
ENDBRANCH  48  49
ENDBRANCH   9  48
BRANCH   6  53
HETATM   53  C   UNK N   1      20.288  16.765   8.657  0.00  0.00     0.381 C 
BRANCH  53  54
HETATM   54  C   UNK N   1      18.881  17.200   8.908  0.00  0.00     0.169 C 
HETATM   55  O   UNK N   1      17.954  16.493   8.547  0.00  0.00    -0.649 OA
BRANCH  54  56
HETATM   56  O   UNK N   1      18.633  18.374   9.518  0.00  0.00    -0.775 OA
HETATM   57  H   UNK N   1      17.760  18.715   9.556  0.00  0.00     0.167 HD
ENDBRANCH  54  56
ENDBRANCH  53  54
ENDBRANCH   6  53
TORSDOF 25
ENDMDL
MODEL 9
REMARK VINA RESULT:      -6.9      4.185      7.186
REMARK  25 active torsions:
REMARK  status: ('A' for Active; 'I' for Inactive)
REMARK    1  A    between atoms: C_3  and  N_36 
REMARK    2  A    between atoms: C_6  and  C_7 
REMARK    3  A    between atoms: C_7  and  C_8 
REMARK    4  A    between atoms: N_10  and  C_32 
REMARK    5  A    between atoms: N_13  and  C_28 
REMARK    6  A    between atoms: N_16  and  C_24 
REMARK    7  A    between atoms: N_19  and  C_20 
REMARK    8  A    between atoms: C_20  and  C_21 
REMARK    9  A    between atoms: C_21  and  O_23 
REMARK   10  A    between atoms: C_24  and  C_25 
REMARK   11  A    between atoms: C_25  and  O_27 
REMARK   12  A    between atoms: C_28  and  C_29 
REMARK   13  A    between atoms: C_29  and  O_31 
REMARK   14  A    between atoms: C_32  and  C_33 
REMARK   15  A    between atoms: C_33  and  O_35 
REMARK   16  A    between atoms: N_36  and  C_37 
REMARK   17  A    between atoms: C_37  and  N_39 
REMARK   18  A    between atoms: N_39  and  C_40 
REMARK   19  A    between atoms: C_40  and  C_41 
REMARK   20  A    between atoms: C_41  and  C_42 
REMARK   21  A    between atoms: C_42  and  C_43 
REMARK   22  A    between atoms: C_43  and  C_44 
REMARK   23  A    between atoms: C_44  and  C_45 
REMARK   24  A    between atoms: C_44  and  N_48 
REMARK   25  A    between atoms: C_45  and  O_47 
ROOT
HETATM    1  C   UNK N   1      22.671  13.226   5.385  0.00  0.00     0.256 C 
HETATM    2  C   UNK N   1      22.362  11.745   5.692  0.00  0.00     0.309 C 
HETATM    3  N   UNK N   1      23.512  11.091   6.317  0.00  0.00     0.102 N 
HETATM    4  C   UNK N   1      23.114  10.803   7.683  0.00  0.00     0.303 C 
HETATM    5  C   UNK N   1      24.116  11.414   8.643  0.00  0.00     0.303 C 
HETATM    6  N   UNK N   1      23.394  12.022   9.742  0.00  0.00     0.101 N 
HETATM    7  C   UNK N   1      23.100  13.397   9.369  0.00  0.00     0.303 C 
HETATM    8  C   UNK N   1      21.611  13.536   9.127  0.00  0.00     0.303 C 
HETATM    9  N   UNK N   1      21.283  14.916   8.790  0.00  0.00     0.101 N 
HETATM   10  C   UNK N   1      21.494  15.177   7.364  0.00  0.00     0.303 C 
HETATM   11  C   UNK N   1      20.759  14.202   6.441  0.00  0.00     0.303 C 
HETATM   12  N   UNK N   1      21.507  14.095   5.196  0.00  0.00     0.106 N 
ENDROOT
BRANCH   1  13
HETATM   13  C   UNK N   1      23.747  13.495   4.330  0.00  0.00     0.076 C 
BRANCH  13  14
HETATM   14  C   UNK N   1      25.055  14.030   4.824  0.00  0.00    -0.056 A 
HETATM   15  C   UNK N   1      26.130  14.211   3.942  0.00  0.00     0.009 A 
HETATM   16  C   UNK N   1      27.241  14.969   4.348  0.00  0.00     0.030 A 
HETATM   17  C   UNK N   1      27.268  15.523   5.638  0.00  0.00     0.034 A 
HETATM   18  C   UNK N   1      26.216  15.291   6.516  0.00  0.00     0.030 A 
HETATM   19  C   UNK N   1      25.125  14.553   6.110  0.00  0.00     0.009 A 
BRANCH  17  20
HETATM   20  N   UNK N   1      28.155  16.574   5.954  0.00  0.00    -0.333 N 
HETATM   21  H   UNK N   1      29.060  16.592   5.569  0.00  0.00     0.168 HD
BRANCH  20  22
HETATM   22  C   UNK N   1      27.724  17.616   6.841  0.00  0.00     0.172 C 
HETATM   23  S   UNK N   1      28.370  17.813   8.118  0.00  0.00    -0.041 SA
BRANCH  22  24
HETATM   24  N   UNK N   1      26.860  18.627   6.372  0.00  0.00    -0.367 N 
HETATM   25  H   UNK N   1      26.434  19.244   7.011  0.00  0.00     0.161 HD
BRANCH  24  26
HETATM   26  C   UNK N   1      26.596  18.760   4.963  0.00  0.00     0.122 C 
BRANCH  26  27
HETATM   27  C   UNK N   1      25.092  18.835   4.748  0.00  0.00     0.020 C 
BRANCH  27  28
HETATM   28  C   UNK N   1      24.556  17.598   4.036  0.00  0.00     0.004 C 
BRANCH  28  29
HETATM   29  C   UNK N   1      23.099  17.302   4.402  0.00  0.00     0.035 C 
BRANCH  29  30
HETATM   30  C   UNK N   1      22.354  18.527   4.925  0.00  0.00     0.173 C 
BRANCH  30  31
HETATM   31  C   UNK N   1      21.287  18.949   3.946  0.00  0.00     0.163 C 
HETATM   32  O   UNK N   1      20.696  20.007   4.084  0.00  0.00    -0.648 OA
BRANCH  31  33
HETATM   33  O   UNK N   1      20.983  18.155   2.901  0.00  0.00    -0.775 OA
HETATM   34  H   UNK N   1      20.821  17.242   3.030  0.00  0.00     0.167 HD
ENDBRANCH  31  33
ENDBRANCH  30  31
BRANCH  30  35
HETATM   35  N   UNK N   1      21.769  18.219   6.222  0.00  0.00    -0.418 N 
HETATM   36  H   UNK N   1      22.360  18.004   7.025  0.00  0.00     0.150 HD
HETATM   37  H   UNK N   1      20.754  18.218   6.329  0.00  0.00     0.150 HD
ENDBRANCH  30  35
ENDBRANCH  29  30
ENDBRANCH  28  29
ENDBRANCH  27  28
ENDBRANCH  26  27
ENDBRANCH  24  26
ENDBRANCH  22  24
ENDBRANCH  20  22
ENDBRANCH  17  20
ENDBRANCH  13  14
ENDBRANCH   1  13
BRANCH  12  38
HETATM   38  C   UNK N   1      20.637  13.657   4.113  0.00  0.00     0.382 C 
BRANCH  38  39
HETATM   39  C   UNK N   1      20.373  14.819   3.209  0.00  0.00     0.169 C 
HETATM   40  O   UNK N   1      21.147  15.072   2.301  0.00  0.00    -0.649 OA
BRANCH  39  41
HETATM   41  O   UNK N   1      19.297  15.603   3.411  0.00  0.00    -0.775 OA
HETATM   42  H   UNK N   1      19.409  16.509   3.618  0.00  0.00     0.167 HD
ENDBRANCH  39  41
ENDBRANCH  38  39
ENDBRANCH  12  38
BRANCH   3  43
HETATM   43  C   UNK N   1      23.734   9.814   5.640  0.00  0.00     0.381 C 
BRANCH  43  44
HETATM   44  C   UNK N   1      24.884   9.886   4.676  0.00  0.00     0.169 C 
HETATM   45  O   UNK N   1      24.703  10.303   3.543  0.00  0.00    -0.649 OA
BRANCH  44  46
HETATM   46  O   UNK N   1      26.106   9.456   5.044  0.00  0.00    -0.775 OA
HETATM   47  H   UNK N   1      26.259   9.161   5.920  0.00  0.00     0.167 HD
ENDBRANCH  44  46
ENDBRANCH  43  44
ENDBRANCH   3  43
BRANCH   9  48
HETATM   48  C   UNK N   1      19.895  15.166   9.141  0.00  0.00     0.381 C 
BRANCH  48  49
HETATM   49  C   UNK N   1      19.504  16.525   8.666  0.00  0.00     0.169 C 
HETATM   50  O   UNK N   1      20.201  17.488   8.937  0.00  0.00    -0.649 OA
BRANCH  49  51
HETATM   51  O   UNK N   1      18.377  16.693   7.947  0.00  0.00    -0.775 OA
HETATM   52  H   UNK N   1      18.074  17.554   7.734  0.00  0.00     0.167 HD
ENDBRANCH  49  51
ENDBRANCH  48  49
ENDBRANCH   9  48
BRANCH   6  53
HETATM   53  C   UNK N   1      24.274  12.054  10.896  0.00  0.00     0.381 C 
BRANCH  53  54
HETATM   54  C   UNK N   1      23.452  12.053  12.144  0.00  0.00     0.169 C 
HETATM   55  O   UNK N   1      22.262  11.792  12.087  0.00  0.00    -0.649 OA
BRANCH  54  56
HETATM   56  O   UNK N   1      24.018  12.352  13.329  0.00  0.00    -0.775 OA
HETATM   57  H   UNK N   1      23.506  12.723  14.021  0.00  0.00     0.167 HD
ENDBRANCH  54  56
ENDBRANCH  53  54
ENDBRANCH   6  53
TORSDOF 25
ENDMDL
