MODEL 1
REMARK VINA RESULT:      -7.6      0.000      0.000
REMARK  8 active torsions:
REMARK  status: ('A' for Active; 'I' for Inactive)
REMARK    1  A    between atoms: C_3  and  C_2 
REMARK    2  A    between atoms: C_3  and  O_34 
REMARK    3  A    between atoms: C_26  and  C_27 
REMARK    4  A    between atoms: C_27  and  N_28 
REMARK    5  A    between atoms: N_28  and  O_30 
REMARK    6  A    between atoms: O_30  and  C_31 
REMARK    7  A    between atoms: C_31  and  C_32 
REMARK    8  A    between atoms: C_32  and  N_33 
ROOT
HETATM    1  C   UNK N   1      32.982  15.835   7.041  0.00  0.00     0.173 A 
HETATM    2  C   UNK N   1      33.802  15.713   8.299  0.00  0.00     0.002 A 
HETATM    3  C   UNK N   1      33.865  14.463   8.944  0.00  0.00     0.043 A 
HETATM    4  C   UNK N   1      34.584  14.361  10.125  0.00  0.00     0.066 A 
HETATM    5  N   UNK N   1      35.200  15.426  10.668  0.00  0.00    -0.307 N 
HETATM    6  C   UNK N   1      35.188  16.657  10.067  0.00  0.00     0.257 A 
HETATM    7  O   UNK N   1      35.774  17.596  10.580  0.00  0.00    -0.267 OA
HETATM    8  C   UNK N   1      34.485  16.820   8.856  0.00  0.00     0.044 A 
HETATM    9  C   UNK N   1      34.463  18.167   8.195  0.00  0.00     0.224 A 
HETATM   10  O   UNK N   1      33.727  18.238   7.028  0.00  0.00    -0.314 OA
HETATM   11  C   UNK N   1      33.019  17.233   6.457  0.00  0.00     0.298 A 
HETATM   12  O   UNK N   1      32.379  17.474   5.444  0.00  0.00    -0.261 OA
HETATM   13  C   UNK N   1      35.852  15.075  11.939  0.00  0.00     0.174 A 
HETATM   14  C   UNK N   1      35.522  13.598  12.031  0.00  0.00     0.002 A 
HETATM   15  C   UNK N   1      34.793  13.211  10.941  0.00  0.00     0.069 A 
HETATM   16  N   UNK N   1      34.390  11.935  10.739  0.00  0.00    -0.353 N 
ATOM     17  HN  UNK N   1      33.844  11.691   9.912  1.00  0.00     0.166 HD
HETATM   18  C   UNK N   1      34.721  10.979  11.653  0.00  0.00     0.043 A 
HETATM   19  C   UNK N   1      34.324   9.656  11.448  0.00  0.00     0.030 A 
HETATM   20  C   UNK N   1      34.656   8.669  12.379  0.00  0.00     0.002 A 
HETATM   21  C   UNK N   1      35.383   9.002  13.527  0.00  0.00     0.001 A 
HETATM   22  C   UNK N   1      35.787  10.322  13.750  0.00  0.00     0.014 A 
HETATM   23  C   UNK N   1      35.469  11.324  12.822  0.00  0.00     0.003 A 
HETATM   24  C   UNK N   1      35.867  12.669  13.022  0.00  0.00     0.004 A 
ENDROOT
BRANCH  24  25
HETATM   25  C   UNK N   1      36.611  13.084  14.234  0.00  0.00     0.127 C 
BRANCH  25  26
HETATM   26  N   UNK N   1      36.016  13.720  15.181  0.00  0.00    -0.277 N 
ATOM     27  HN  UNK N   1      36.371  14.630  15.472  1.00  0.00     0.193 HD
BRANCH  26  28
HETATM   28  O   UNK N   1      34.958  13.220  15.785  0.00  0.00    -0.279 OA
BRANCH  28  29
HETATM   29  C   UNK N   1      35.058  12.681  17.045  0.00  0.00     0.220 C 
BRANCH  29  30
HETATM   30  C   UNK N   1      35.220  13.789  18.063  0.00  0.00     0.139 C 
BRANCH  30  31
HETATM   31  N   UNK N   1      35.306  13.216  19.395  0.00  0.00    -0.428 N 
HETATM   32  H   UNK N   1      36.085  13.415  20.024  0.00  0.00     0.150 HD
HETATM   33  H   UNK N   1      34.564  12.594  19.712  0.00  0.00     0.150 HD
ENDBRANCH  30  31
ENDBRANCH  29  30
ENDBRANCH  28  29
ENDBRANCH  26  28
ENDBRANCH  25  26
ENDBRANCH  24  25
BRANCH   1  34
HETATM   34  C   UNK N   1      33.513  14.817   6.021  0.00  0.00     0.049 C 
HETATM   35  C   UNK N   1      34.912  15.145   5.516  0.00  0.00     0.009 C 
ENDBRANCH   1  34
BRANCH   1  36
HETATM   36  O   UNK N   1      31.657  15.524   7.364  0.00  0.00    -0.375 OA
HETATM   37  H   UNK N   1      30.938  14.890   7.514  0.00  0.00     0.211 HD
ENDBRANCH   1  36
TORSDOF 8
ENDMDL
MODEL 2
REMARK VINA RESULT:      -7.0      2.239      4.143
REMARK  8 active torsions:
REMARK  status: ('A' for Active; 'I' for Inactive)
REMARK    1  A    between atoms: C_3  and  C_2 
REMARK    2  A    between atoms: C_3  and  O_34 
REMARK    3  A    between atoms: C_26  and  C_27 
REMARK    4  A    between atoms: C_27  and  N_28 
REMARK    5  A    between atoms: N_28  and  O_30 
REMARK    6  A    between atoms: O_30  and  C_31 
REMARK    7  A    between atoms: C_31  and  C_32 
REMARK    8  A    between atoms: C_32  and  N_33 
ROOT
HETATM    1  C   UNK N   1      34.480  16.793   8.614  0.00  0.00     0.173 A 
HETATM    2  C   UNK N   1      35.065  15.454   8.981  0.00  0.00     0.002 A 
HETATM    3  C   UNK N   1      35.078  15.073  10.336  0.00  0.00     0.043 A 
HETATM    4  C   UNK N   1      35.654  13.860  10.679  0.00  0.00     0.066 A 
HETATM    5  N   UNK N   1      36.212  13.059   9.754  0.00  0.00    -0.307 N 
HETATM    6  C   UNK N   1      36.203  13.374   8.420  0.00  0.00     0.257 A 
HETATM    7  O   UNK N   1      36.702  12.613   7.607  0.00  0.00    -0.267 OA
HETATM    8  C   UNK N   1      35.618  14.588   8.008  0.00  0.00     0.044 A 
HETATM    9  C   UNK N   1      35.610  14.943   6.550  0.00  0.00     0.224 A 
HETATM   10  O   UNK N   1      35.040  16.163   6.243  0.00  0.00    -0.314 OA
HETATM   11  C   UNK N   1      34.526  17.058   7.122  0.00  0.00     0.298 A 
HETATM   12  O   UNK N   1      34.100  18.119   6.691  0.00  0.00    -0.261 OA
HETATM   13  C   UNK N   1      36.797  11.859  10.369  0.00  0.00     0.174 A 
HETATM   14  C   UNK N   1      36.461  12.093  11.828  0.00  0.00     0.002 A 
HETATM   15  C   UNK N   1      35.775  13.267  11.969  0.00  0.00     0.069 A 
HETATM   16  N   UNK N   1      35.313  13.713  13.162  0.00  0.00    -0.353 N 
ATOM     17  HN  UNK N   1      34.808  14.598  13.221  1.00  0.00     0.166 HD
HETATM   18  C   UNK N   1      35.530  12.966  14.282  0.00  0.00     0.043 A 
HETATM   19  C   UNK N   1      35.045  13.408  15.515  0.00  0.00     0.030 A 
HETATM   20  C   UNK N   1      35.264  12.651  16.668  0.00  0.00     0.002 A 
HETATM   21  C   UNK N   1      35.976  11.450  16.597  0.00  0.00     0.001 A 
HETATM   22  C   UNK N   1      36.470  10.993  15.371  0.00  0.00     0.014 A 
HETATM   23  C   UNK N   1      36.254  11.736  14.201  0.00  0.00     0.003 A 
HETATM   24  C   UNK N   1      36.743  11.296  12.946  0.00  0.00     0.004 A 
ENDROOT
BRANCH  24  25
HETATM   25  C   UNK N   1      37.530  10.047  12.816  0.00  0.00     0.127 C 
BRANCH  25  26
HETATM   26  N   UNK N   1      36.946   8.930  12.562  0.00  0.00    -0.277 N 
ATOM     27  HN  UNK N   1      37.507   8.085  12.457  1.00  0.00     0.193 HD
BRANCH  26  28
HETATM   28  O   UNK N   1      35.638   8.852  12.432  0.00  0.00    -0.279 OA
BRANCH  28  29
HETATM   29  C   UNK N   1      35.070   8.525  11.225  0.00  0.00     0.220 C 
BRANCH  29  30
HETATM   30  C   UNK N   1      33.923   9.465  10.927  0.00  0.00     0.139 C 
BRANCH  30  31
HETATM   31  N   UNK N   1      33.536  10.161  12.142  0.00  0.00    -0.428 N 
HETATM   32  H   UNK N   1      34.212  10.650  12.729  0.00  0.00     0.150 HD
HETATM   33  H   UNK N   1      32.554  10.160  12.417  0.00  0.00     0.150 HD
ENDBRANCH  30  31
ENDBRANCH  29  30
ENDBRANCH  28  29
ENDBRANCH  26  28
ENDBRANCH  25  26
ENDBRANCH  24  25
BRANCH   1  34
HETATM   34  C   UNK N   1      33.029  16.839   9.118  0.00  0.00     0.049 C 
HETATM   35  C   UNK N   1      32.106  15.879   8.381  0.00  0.00     0.009 C 
ENDBRANCH   1  34
BRANCH   1  36
HETATM   36  O   UNK N   1      35.231  17.779   9.263  0.00  0.00    -0.375 OA
HETATM   37  H   UNK N   1      35.902  18.061   9.903  0.00  0.00     0.211 HD
ENDBRANCH   1  36
TORSDOF 8
ENDMDL
MODEL 3
REMARK VINA RESULT:      -7.0     11.511     15.805
REMARK  8 active torsions:
REMARK  status: ('A' for Active; 'I' for Inactive)
REMARK    1  A    between atoms: C_3  and  C_2 
REMARK    2  A    between atoms: C_3  and  O_34 
REMARK    3  A    between atoms: C_26  and  C_27 
REMARK    4  A    between atoms: C_27  and  N_28 
REMARK    5  A    between atoms: N_28  and  O_30 
REMARK    6  A    between atoms: O_30  and  C_31 
REMARK    7  A    between atoms: C_31  and  C_32 
REMARK    8  A    between atoms: C_32  and  N_33 
ROOT
HETATM    1  C   UNK N   1      23.643  13.124   8.650  0.00  0.00     0.173 A 
HETATM    2  C   UNK N   1      22.909  14.101   7.768  0.00  0.00     0.002 A 
HETATM    3  C   UNK N   1      23.655  15.070   7.071  0.00  0.00     0.043 A 
HETATM    4  C   UNK N   1      22.977  15.996   6.294  0.00  0.00     0.066 A 
HETATM    5  N   UNK N   1      21.635  15.997   6.209  0.00  0.00    -0.307 N 
HETATM    6  C   UNK N   1      20.867  15.060   6.849  0.00  0.00     0.257 A 
HETATM    7  O   UNK N   1      19.652  15.081   6.734  0.00  0.00    -0.267 OA
HETATM    8  C   UNK N   1      21.500  14.082   7.643  0.00  0.00     0.044 A 
HETATM    9  C   UNK N   1      20.665  13.057   8.352  0.00  0.00     0.224 A 
HETATM   10  O   UNK N   1      21.369  12.157   9.128  0.00  0.00    -0.314 OA
HETATM   11  C   UNK N   1      22.710  12.137   9.324  0.00  0.00     0.298 A 
HETATM   12  O   UNK N   1      23.175  11.299  10.083  0.00  0.00    -0.261 OA
HETATM   13  C   UNK N   1      21.154  17.101   5.367  0.00  0.00     0.174 A 
HETATM   14  C   UNK N   1      22.465  17.739   4.954  0.00  0.00     0.002 A 
HETATM   15  C   UNK N   1      23.513  17.053   5.501  0.00  0.00     0.069 A 
HETATM   16  N   UNK N   1      24.807  17.377   5.271  0.00  0.00    -0.353 N 
ATOM     17  HN  UNK N   1      25.559  16.839   5.704  1.00  0.00     0.166 HD
HETATM   18  C   UNK N   1      25.095  18.431   4.455  0.00  0.00     0.043 A 
HETATM   19  C   UNK N   1      26.427  18.765   4.197  0.00  0.00     0.030 A 
HETATM   20  C   UNK N   1      26.732  19.844   3.365  0.00  0.00     0.002 A 
HETATM   21  C   UNK N   1      25.707  20.600   2.788  0.00  0.00     0.001 A 
HETATM   22  C   UNK N   1      24.368  20.281   3.036  0.00  0.00     0.014 A 
HETATM   23  C   UNK N   1      24.042  19.196   3.864  0.00  0.00     0.003 A 
HETATM   24  C   UNK N   1      22.694  18.850   4.131  0.00  0.00     0.004 A 
ENDROOT
BRANCH  24  25
HETATM   25  C   UNK N   1      21.568  19.635   3.573  0.00  0.00     0.127 C 
BRANCH  25  26
HETATM   26  N   UNK N   1      21.037  19.305   2.448  0.00  0.00    -0.277 N 
ATOM     27  HN  UNK N   1      21.422  19.684   1.584  1.00  0.00     0.193 HD
BRANCH  26  28
HETATM   28  O   UNK N   1      20.004  18.490   2.389  0.00  0.00    -0.279 OA
BRANCH  28  29
HETATM   29  C   UNK N   1      20.156  17.194   1.959  0.00  0.00     0.220 C 
BRANCH  29  30
HETATM   30  C   UNK N   1      20.040  17.138   0.451  0.00  0.00     0.139 C 
BRANCH  30  31
HETATM   31  N   UNK N   1      18.721  16.657   0.082  0.00  0.00    -0.428 N 
HETATM   32  H   UNK N   1      18.330  15.794   0.461  0.00  0.00     0.150 HD
HETATM   33  H   UNK N   1      18.166  17.200  -0.578  0.00  0.00     0.150 HD
ENDBRANCH  30  31
ENDBRANCH  29  30
ENDBRANCH  28  29
ENDBRANCH  26  28
ENDBRANCH  25  26
ENDBRANCH  24  25
BRANCH   1  34
HETATM   34  C   UNK N   1      24.674  12.379   7.788  0.00  0.00     0.049 C 
HETATM   35  C   UNK N   1      24.041  11.446   6.764  0.00  0.00     0.009 C 
ENDBRANCH   1  34
BRANCH   1  36
HETATM   36  O   UNK N   1      24.304  13.856   9.640  0.00  0.00    -0.375 OA
HETATM   37  H   UNK N   1      24.473  14.676  10.130  0.00  0.00     0.211 HD
ENDBRANCH   1  36
TORSDOF 8
ENDMDL
MODEL 4
REMARK VINA RESULT:      -7.0     10.175     13.465
REMARK  8 active torsions:
REMARK  status: ('A' for Active; 'I' for Inactive)
REMARK    1  A    between atoms: C_3  and  C_2 
REMARK    2  A    between atoms: C_3  and  O_34 
REMARK    3  A    between atoms: C_26  and  C_27 
REMARK    4  A    between atoms: C_27  and  N_28 
REMARK    5  A    between atoms: N_28  and  O_30 
REMARK    6  A    between atoms: O_30  and  C_31 
REMARK    7  A    between atoms: C_31  and  C_32 
REMARK    8  A    between atoms: C_32  and  N_33 
ROOT
HETATM    1  C   UNK N   1      21.983  13.407   9.141  0.00  0.00     0.173 A 
HETATM    2  C   UNK N   1      22.270  14.436   8.078  0.00  0.00     0.002 A 
HETATM    3  C   UNK N   1      23.532  14.425   7.453  0.00  0.00     0.043 A 
HETATM    4  C   UNK N   1      23.812  15.398   6.506  0.00  0.00     0.066 A 
HETATM    5  N   UNK N   1      22.919  16.352   6.192  0.00  0.00    -0.307 N 
HETATM    6  C   UNK N   1      21.670  16.392   6.755  0.00  0.00     0.257 A 
HETATM    7  O   UNK N   1      20.879  17.263   6.431  0.00  0.00    -0.267 OA
HETATM    8  C   UNK N   1      21.321  15.420   7.714  0.00  0.00     0.044 A 
HETATM    9  C   UNK N   1      19.957  15.460   8.339  0.00  0.00     0.224 A 
HETATM   10  O   UNK N   1      19.714  14.486   9.287  0.00  0.00    -0.314 OA
HETATM   11  C   UNK N   1      20.585  13.538   9.712  0.00  0.00     0.298 A 
HETATM   12  O   UNK N   1      20.229  12.775  10.598  0.00  0.00    -0.261 OA
HETATM   13  C   UNK N   1      23.467  17.291   5.202  0.00  0.00     0.174 A 
HETATM   14  C   UNK N   1      24.844  16.699   4.977  0.00  0.00     0.002 A 
HETATM   15  C   UNK N   1      25.004  15.579   5.745  0.00  0.00     0.069 A 
HETATM   16  N   UNK N   1      26.125  14.821   5.719  0.00  0.00    -0.353 N 
ATOM     17  HN  UNK N   1      26.203  13.994   6.312  1.00  0.00     0.166 HD
HETATM   18  C   UNK N   1      27.150  15.175   4.891  0.00  0.00     0.043 A 
HETATM   19  C   UNK N   1      28.305  14.393   4.844  0.00  0.00     0.030 A 
HETATM   20  C   UNK N   1      29.361  14.748   4.002  0.00  0.00     0.002 A 
HETATM   21  C   UNK N   1      29.270  15.893   3.204  0.00  0.00     0.001 A 
HETATM   22  C   UNK N   1      28.121  16.689   3.240  0.00  0.00     0.014 A 
HETATM   23  C   UNK N   1      27.048  16.344   4.075  0.00  0.00     0.003 A 
HETATM   24  C   UNK N   1      25.872  17.133   4.130  0.00  0.00     0.004 A 
ENDROOT
BRANCH  24  25
HETATM   25  C   UNK N   1      25.733  18.373   3.331  0.00  0.00     0.127 C 
BRANCH  25  26
HETATM   26  N   UNK N   1      25.929  19.524   3.872  0.00  0.00    -0.277 N 
ATOM     27  HN  UNK N   1      25.137  20.031   4.266  1.00  0.00     0.193 HD
BRANCH  26  28
HETATM   28  O   UNK N   1      27.129  20.062   3.926  0.00  0.00    -0.279 OA
BRANCH  28  29
HETATM   29  C   UNK N   1      27.762  20.246   5.132  0.00  0.00     0.220 C 
BRANCH  29  30
HETATM   30  C   UNK N   1      26.936  21.160   6.010  0.00  0.00     0.139 C 
BRANCH  30  31
HETATM   31  N   UNK N   1      26.580  20.466   7.235  0.00  0.00    -0.428 N 
HETATM   32  H   UNK N   1      27.259  19.930   7.775  0.00  0.00     0.150 HD
HETATM   33  H   UNK N   1      25.617  20.518   7.567  0.00  0.00     0.150 HD
ENDBRANCH  30  31
ENDBRANCH  29  30
ENDBRANCH  28  29
ENDBRANCH  26  28
ENDBRANCH  25  26
ENDBRANCH  24  25
BRANCH   1  34
HETATM   34  C   UNK N   1      22.178  12.013   8.525  0.00  0.00     0.049 C 
HETATM   35  C   UNK N   1      23.299  11.218   9.181  0.00  0.00     0.009 C 
ENDBRANCH   1  34
BRANCH   1  36
HETATM   36  O   UNK N   1      22.905  13.593  10.175  0.00  0.00    -0.375 OA
HETATM   37  H   UNK N   1      23.284  14.113  10.902  0.00  0.00     0.211 HD
ENDBRANCH   1  36
TORSDOF 8
ENDMDL
MODEL 5
REMARK VINA RESULT:      -6.8      9.749     12.125
REMARK  8 active torsions:
REMARK  status: ('A' for Active; 'I' for Inactive)
REMARK    1  A    between atoms: C_3  and  C_2 
REMARK    2  A    between atoms: C_3  and  O_34 
REMARK    3  A    between atoms: C_26  and  C_27 
REMARK    4  A    between atoms: C_27  and  N_28 
REMARK    5  A    between atoms: N_28  and  O_30 
REMARK    6  A    between atoms: O_30  and  C_31 
REMARK    7  A    between atoms: C_31  and  C_32 
REMARK    8  A    between atoms: C_32  and  N_33 
ROOT
HETATM    1  C   UNK N   1      28.488  15.824   5.067  0.00  0.00     0.173 A 
HETATM    2  C   UNK N   1      27.011  15.809   5.364  0.00  0.00     0.002 A 
HETATM    3  C   UNK N   1      26.553  15.059   6.465  0.00  0.00     0.043 A 
HETATM    4  C   UNK N   1      25.191  15.010   6.713  0.00  0.00     0.066 A 
HETATM    5  N   UNK N   1      24.307  15.642   5.920  0.00  0.00    -0.307 N 
HETATM    6  C   UNK N   1      24.705  16.403   4.852  0.00  0.00     0.257 A 
HETATM    7  O   UNK N   1      23.875  16.977   4.166  0.00  0.00    -0.267 OA
HETATM    8  C   UNK N   1      26.080  16.504   4.558  0.00  0.00     0.044 A 
HETATM    9  C   UNK N   1      26.522  17.330   3.387  0.00  0.00     0.224 A 
HETATM   10  O   UNK N   1      27.884  17.348   3.158  0.00  0.00    -0.314 OA
HETATM   11  C   UNK N   1      28.830  16.680   3.864  0.00  0.00     0.298 A 
HETATM   12  O   UNK N   1      29.994  16.764   3.502  0.00  0.00    -0.261 OA
HETATM   13  C   UNK N   1      22.926  15.399   6.360  0.00  0.00     0.174 A 
HETATM   14  C   UNK N   1      23.162  14.522   7.574  0.00  0.00     0.002 A 
HETATM   15  C   UNK N   1      24.503  14.330   7.760  0.00  0.00     0.069 A 
HETATM   16  N   UNK N   1      25.009  13.616   8.793  0.00  0.00    -0.353 N 
ATOM     17  HN  UNK N   1      26.017  13.496   8.892  1.00  0.00     0.166 HD
HETATM   18  C   UNK N   1      24.156  13.060   9.700  0.00  0.00     0.043 A 
HETATM   19  C   UNK N   1      24.667  12.335  10.779  0.00  0.00     0.030 A 
HETATM   20  C   UNK N   1      23.802  11.759  11.712  0.00  0.00     0.002 A 
HETATM   21  C   UNK N   1      22.418  11.901  11.569  0.00  0.00     0.001 A 
HETATM   22  C   UNK N   1      21.888  12.622  10.494  0.00  0.00     0.014 A 
HETATM   23  C   UNK N   1      22.742  13.213   9.551  0.00  0.00     0.003 A 
HETATM   24  C   UNK N   1      22.232  13.950   8.453  0.00  0.00     0.004 A 
ENDROOT
BRANCH  24  25
HETATM   25  C   UNK N   1      20.775  14.106   8.235  0.00  0.00     0.127 C 
BRANCH  25  26
HETATM   26  N   UNK N   1      20.075  14.857   9.010  0.00  0.00    -0.277 N 
ATOM     27  HN  UNK N   1      20.091  14.688  10.015  1.00  0.00     0.193 HD
BRANCH  26  28
HETATM   28  O   UNK N   1      19.337  15.838   8.534  0.00  0.00    -0.279 OA
BRANCH  28  29
HETATM   29  C   UNK N   1      19.906  17.036   8.180  0.00  0.00     0.220 C 
BRANCH  29  30
HETATM   30  C   UNK N   1      19.449  18.121   9.130  0.00  0.00     0.139 C 
BRANCH  30  31
HETATM   31  N   UNK N   1      18.021  17.994   9.364  0.00  0.00    -0.428 N 
HETATM   32  H   UNK N   1      17.328  18.353   8.707  0.00  0.00     0.150 HD
HETATM   33  H   UNK N   1      17.701  17.529  10.213  0.00  0.00     0.150 HD
ENDBRANCH  30  31
ENDBRANCH  29  30
ENDBRANCH  28  29
ENDBRANCH  26  28
ENDBRANCH  25  26
ENDBRANCH  24  25
BRANCH   1  34
HETATM   34  C   UNK N   1      29.224  16.340   6.314  0.00  0.00     0.049 C 
HETATM   35  C   UNK N   1      30.592  15.701   6.511  0.00  0.00     0.009 C 
ENDBRANCH   1  34
BRANCH   1  36
HETATM   36  O   UNK N   1      28.884  14.509   4.803  0.00  0.00    -0.375 OA
HETATM   37  H   UNK N   1      28.714  13.613   4.472  0.00  0.00     0.211 HD
ENDBRANCH   1  36
TORSDOF 8
ENDMDL
MODEL 6
REMARK VINA RESULT:      -6.8      3.832      8.769
REMARK  8 active torsions:
REMARK  status: ('A' for Active; 'I' for Inactive)
REMARK    1  A    between atoms: C_3  and  C_2 
REMARK    2  A    between atoms: C_3  and  O_34 
REMARK    3  A    between atoms: C_26  and  C_27 
REMARK    4  A    between atoms: C_27  and  N_28 
REMARK    5  A    between atoms: N_28  and  O_30 
REMARK    6  A    between atoms: O_30  and  C_31 
REMARK    7  A    between atoms: C_31  and  C_32 
REMARK    8  A    between atoms: C_32  and  N_33 
ROOT
HETATM    1  C   UNK N   1      35.964  13.449  11.087  0.00  0.00     0.173 A 
HETATM    2  C   UNK N   1      35.478  14.095   9.815  0.00  0.00     0.002 A 
HETATM    3  C   UNK N   1      34.219  14.725   9.817  0.00  0.00     0.043 A 
HETATM    4  C   UNK N   1      33.753  15.282   8.636  0.00  0.00     0.066 A 
HETATM    5  N   UNK N   1      34.465  15.215   7.498  0.00  0.00    -0.307 N 
HETATM    6  C   UNK N   1      35.705  14.634   7.450  0.00  0.00     0.257 A 
HETATM    7  O   UNK N   1      36.331  14.609   6.402  0.00  0.00    -0.267 OA
HETATM    8  C   UNK N   1      36.240  14.063   8.623  0.00  0.00     0.044 A 
HETATM    9  C   UNK N   1      37.594  13.420   8.576  0.00  0.00     0.224 A 
HETATM   10  O   UNK N   1      38.024  12.863   9.765  0.00  0.00    -0.314 OA
HETATM   11  C   UNK N   1      37.336  12.823  10.933  0.00  0.00     0.298 A 
HETATM   12  O   UNK N   1      37.840  12.248  11.886  0.00  0.00    -0.261 OA
HETATM   13  C   UNK N   1      33.740  15.832   6.378  0.00  0.00     0.174 A 
HETATM   14  C   UNK N   1      32.476  16.293   7.075  0.00  0.00     0.002 A 
HETATM   15  C   UNK N   1      32.527  15.970   8.402  0.00  0.00     0.069 A 
HETATM   16  N   UNK N   1      31.547  16.293   9.278  0.00  0.00    -0.353 N 
ATOM     17  HN  UNK N   1      31.625  16.028  10.261  1.00  0.00     0.166 HD
HETATM   18  C   UNK N   1      30.455  16.978   8.834  0.00  0.00     0.043 A 
HETATM   19  C   UNK N   1      29.445  17.331   9.731  0.00  0.00     0.030 A 
HETATM   20  C   UNK N   1      28.321  18.030   9.286  0.00  0.00     0.002 A 
HETATM   21  C   UNK N   1      28.197  18.376   7.936  0.00  0.00     0.001 A 
HETATM   22  C   UNK N   1      29.197  18.028   7.023  0.00  0.00     0.014 A 
HETATM   23  C   UNK N   1      30.337  17.332   7.453  0.00  0.00     0.003 A 
HETATM   24  C   UNK N   1      31.366  16.969   6.550  0.00  0.00     0.004 A 
ENDROOT
BRANCH  24  25
HETATM   25  C   UNK N   1      31.273  17.281   5.104  0.00  0.00     0.127 C 
BRANCH  25  26
HETATM   26  N   UNK N   1      30.782  16.422   4.281  0.00  0.00    -0.277 N 
ATOM     27  HN  UNK N   1      29.771  16.370   4.159  1.00  0.00     0.193 HD
BRANCH  26  28
HETATM   28  O   UNK N   1      31.555  15.608   3.594  0.00  0.00    -0.279 OA
BRANCH  28  29
HETATM   29  C   UNK N   1      31.207  14.292   3.416  0.00  0.00     0.220 C 
BRANCH  29  30
HETATM   30  C   UNK N   1      30.403  13.810   4.604  0.00  0.00     0.139 C 
BRANCH  30  31
HETATM   31  N   UNK N   1      31.287  13.174   5.564  0.00  0.00    -0.428 N 
HETATM   32  H   UNK N   1      31.631  13.659   6.393  0.00  0.00     0.150 HD
HETATM   33  H   UNK N   1      31.574  12.208   5.404  0.00  0.00     0.150 HD
ENDBRANCH  30  31
ENDBRANCH  29  30
ENDBRANCH  28  29
ENDBRANCH  26  28
ENDBRANCH  25  26
ENDBRANCH  24  25
BRANCH   1  34
HETATM   34  C   UNK N   1      35.986  14.518  12.190  0.00  0.00     0.049 C 
HETATM   35  C   UNK N   1      35.651  13.965  13.569  0.00  0.00     0.009 C 
ENDBRANCH   1  34
BRANCH   1  36
HETATM   36  O   UNK N   1      35.054  12.444  11.429  0.00  0.00    -0.375 OA
HETATM   37  H   UNK N   1      34.756  11.521  11.425  0.00  0.00     0.211 HD
ENDBRANCH   1  36
TORSDOF 8
ENDMDL
MODEL 7
REMARK VINA RESULT:      -6.7      6.527     11.851
REMARK  8 active torsions:
REMARK  status: ('A' for Active; 'I' for Inactive)
REMARK    1  A    between atoms: C_3  and  C_2 
REMARK    2  A    between atoms: C_3  and  O_34 
REMARK    3  A    between atoms: C_26  and  C_27 
REMARK    4  A    between atoms: C_27  and  N_28 
REMARK    5  A    between atoms: N_28  and  O_30 
REMARK    6  A    between atoms: O_30  and  C_31 
REMARK    7  A    between atoms: C_31  and  C_32 
REMARK    8  A    between atoms: C_32  and  N_33 
ROOT
HETATM    1  C   UNK N   1      33.340  16.314   7.895  0.00  0.00     0.173 A 
HETATM    2  C   UNK N   1      32.247  15.838   6.973  0.00  0.00     0.002 A 
HETATM    3  C   UNK N   1      31.260  16.758   6.567  0.00  0.00     0.043 A 
HETATM    4  C   UNK N   1      30.231  16.310   5.755  0.00  0.00     0.066 A 
HETATM    5  N   UNK N   1      30.147  15.026   5.367  0.00  0.00    -0.307 N 
HETATM    6  C   UNK N   1      31.094  14.099   5.715  0.00  0.00     0.257 A 
HETATM    7  O   UNK N   1      30.996  12.946   5.328  0.00  0.00    -0.267 OA
HETATM    8  C   UNK N   1      32.175  14.497   6.529  0.00  0.00     0.044 A 
HETATM    9  C   UNK N   1      33.212  13.486   6.919  0.00  0.00     0.224 A 
HETATM   10  O   UNK N   1      34.217  13.960   7.740  0.00  0.00    -0.314 OA
HETATM   11  C   UNK N   1      34.331  15.218   8.233  0.00  0.00     0.298 A 
HETATM   12  O   UNK N   1      35.259  15.465   8.989  0.00  0.00    -0.261 OA
HETATM   13  C   UNK N   1      28.945  14.790   4.554  0.00  0.00     0.174 A 
HETATM   14  C   UNK N   1      28.347  16.182   4.518  0.00  0.00     0.002 A 
HETATM   15  C   UNK N   1      29.137  17.051   5.218  0.00  0.00     0.069 A 
HETATM   16  N   UNK N   1      28.866  18.373   5.324  0.00  0.00    -0.353 N 
ATOM     17  HN  UNK N   1      29.483  18.985   5.859  1.00  0.00     0.166 HD
HETATM   18  C   UNK N   1      27.760  18.878   4.707  0.00  0.00     0.043 A 
HETATM   19  C   UNK N   1      27.478  20.243   4.796  0.00  0.00     0.030 A 
HETATM   20  C   UNK N   1      26.347  20.770   4.169  0.00  0.00     0.002 A 
HETATM   21  C   UNK N   1      25.485  19.932   3.454  0.00  0.00     0.001 A 
HETATM   22  C   UNK N   1      25.750  18.563   3.356  0.00  0.00     0.014 A 
HETATM   23  C   UNK N   1      26.886  18.017   3.972  0.00  0.00     0.003 A 
HETATM   24  C   UNK N   1      27.179  16.633   3.888  0.00  0.00     0.004 A 
ENDROOT
BRANCH  24  25
HETATM   25  C   UNK N   1      26.285  15.695   3.170  0.00  0.00     0.127 C 
BRANCH  25  26
HETATM   26  N   UNK N   1      26.429  15.492   1.907  0.00  0.00    -0.277 N 
ATOM     27  HN  UNK N   1      27.347  15.618   1.483  1.00  0.00     0.193 HD
BRANCH  26  28
HETATM   28  O   UNK N   1      25.415  15.128   1.150  0.00  0.00    -0.279 OA
BRANCH  28  29
HETATM   29  C   UNK N   1      24.629  14.057   1.497  0.00  0.00     0.220 C 
BRANCH  29  30
HETATM   30  C   UNK N   1      23.638  13.769   0.390  0.00  0.00     0.139 C 
BRANCH  30  31
HETATM   31  N   UNK N   1      23.572  12.338   0.156  0.00  0.00    -0.428 N 
HETATM   32  H   UNK N   1      24.406  11.751   0.131  0.00  0.00     0.150 HD
HETATM   33  H   UNK N   1      22.660  11.905   0.012  0.00  0.00     0.150 HD
ENDBRANCH  30  31
ENDBRANCH  29  30
ENDBRANCH  28  29
ENDBRANCH  26  28
ENDBRANCH  25  26
ENDBRANCH  24  25
BRANCH   1  34
HETATM   34  C   UNK N   1      34.059  17.492   7.220  0.00  0.00     0.049 C 
HETATM   35  C   UNK N   1      34.496  18.571   8.201  0.00  0.00     0.009 C 
ENDBRANCH   1  34
BRANCH   1  36
HETATM   36  O   UNK N   1      32.739  16.750   9.079  0.00  0.00    -0.375 OA
HETATM   37  H   UNK N   1      32.134  17.328   9.571  0.00  0.00     0.211 HD
ENDBRANCH   1  36
TORSDOF 8
ENDMDL
MODEL 8
REMARK VINA RESULT:      -6.6      4.572      8.202
REMARK  8 active torsions:
REMARK  status: ('A' for Active; 'I' for Inactive)
REMARK    1  A    between atoms: C_3  and  C_2 
REMARK    2  A    between atoms: C_3  and  O_34 
REMARK    3  A    between atoms: C_26  and  C_27 
REMARK    4  A    between atoms: C_27  and  N_28 
REMARK    5  A    between atoms: N_28  and  O_30 
REMARK    6  A    between atoms: O_30  and  C_31 
REMARK    7  A    between atoms: C_31  and  C_32 
REMARK    8  A    between atoms: C_32  and  N_33 
ROOT
HETATM    1  C   UNK N   1      29.832  12.879   1.940  0.00  0.00     0.173 A 
HETATM    2  C   UNK N   1      30.778  13.616   2.852  0.00  0.00     0.002 A 
HETATM    3  C   UNK N   1      30.240  14.393   3.896  0.00  0.00     0.043 A 
HETATM    4  C   UNK N   1      31.108  15.105   4.709  0.00  0.00     0.066 A 
HETATM    5  N   UNK N   1      32.437  15.083   4.509  0.00  0.00    -0.307 N 
HETATM    6  C   UNK N   1      33.011  14.325   3.523  0.00  0.00     0.257 A 
HETATM    7  O   UNK N   1      34.223  14.315   3.384  0.00  0.00    -0.267 OA
HETATM    8  C   UNK N   1      32.181  13.566   2.673  0.00  0.00     0.044 A 
HETATM    9  C   UNK N   1      32.802  12.738   1.587  0.00  0.00     0.224 A 
HETATM   10  O   UNK N   1      31.910  12.051   0.786  0.00  0.00    -0.314 OA
HETATM   11  C   UNK N   1      30.557  12.080   0.876  0.00  0.00     0.298 A 
HETATM   12  O   UNK N   1      29.906  11.449   0.056  0.00  0.00    -0.261 OA
HETATM   13  C   UNK N   1      33.135  15.954   5.466  0.00  0.00     0.174 A 
HETATM   14  C   UNK N   1      31.969  16.477   6.281  0.00  0.00     0.002 A 
HETATM   15  C   UNK N   1      30.798  15.943   5.820  0.00  0.00     0.069 A 
HETATM   16  N   UNK N   1      29.595  16.205   6.384  0.00  0.00    -0.353 N 
ATOM     17  HN  UNK N   1      28.746  15.787   6.004  1.00  0.00     0.166 HD
HETATM   18  C   UNK N   1      29.533  17.034   7.465  0.00  0.00     0.043 A 
HETATM   19  C   UNK N   1      28.300  17.299   8.065  0.00  0.00     0.030 A 
HETATM   20  C   UNK N   1      28.225  18.149   9.171  0.00  0.00     0.002 A 
HETATM   21  C   UNK N   1      29.384  18.743   9.682  0.00  0.00     0.001 A 
HETATM   22  C   UNK N   1      30.626  18.490   9.092  0.00  0.00     0.014 A 
HETATM   23  C   UNK N   1      30.722  17.634   7.985  0.00  0.00     0.003 A 
HETATM   24  C   UNK N   1      31.968  17.360   7.369  0.00  0.00     0.004 A 
ENDROOT
BRANCH  24  25
HETATM   25  C   UNK N   1      33.223  17.986   7.847  0.00  0.00     0.127 C 
BRANCH  25  26
HETATM   26  N   UNK N   1      33.683  17.716   9.018  0.00  0.00    -0.277 N 
ATOM     27  HN  UNK N   1      33.415  18.303   9.807  1.00  0.00     0.193 HD
BRANCH  26  28
HETATM   28  O   UNK N   1      34.495  16.699   9.220  0.00  0.00    -0.279 OA
BRANCH  28  29
HETATM   29  C   UNK N   1      35.146  16.548  10.420  0.00  0.00     0.220 C 
BRANCH  29  30
HETATM   30  C   UNK N   1      34.852  15.178  10.992  0.00  0.00     0.139 C 
BRANCH  30  31
HETATM   31  N   UNK N   1      33.428  14.909  10.904  0.00  0.00    -0.428 N 
HETATM   32  H   UNK N   1      32.763  15.261  11.594  0.00  0.00     0.150 HD
HETATM   33  H   UNK N   1      33.080  14.350  10.126  0.00  0.00     0.150 HD
ENDBRANCH  30  31
ENDBRANCH  29  30
ENDBRANCH  28  29
ENDBRANCH  26  28
ENDBRANCH  25  26
ENDBRANCH  24  25
BRANCH   1  34
HETATM   34  C   UNK N   1      28.960  11.952   2.800  0.00  0.00     0.049 C 
HETATM   35  C   UNK N   1      29.739  10.802   3.426  0.00  0.00     0.009 C 
ENDBRANCH   1  34
BRANCH   1  36
HETATM   36  O   UNK N   1      29.023  13.828   1.308  0.00  0.00    -0.375 OA
HETATM   37  H   UNK N   1      28.490  14.638   1.313  0.00  0.00     0.211 HD
ENDBRANCH   1  36
TORSDOF 8
ENDMDL
MODEL 9
REMARK VINA RESULT:      -6.6      6.992      9.968
REMARK  8 active torsions:
REMARK  status: ('A' for Active; 'I' for Inactive)
REMARK    1  A    between atoms: C_3  and  C_2 
REMARK    2  A    between atoms: C_3  and  O_34 
REMARK    3  A    between atoms: C_26  and  C_27 
REMARK    4  A    between atoms: C_27  and  N_28 
REMARK    5  A    between atoms: N_28  and  O_30 
REMARK    6  A    between atoms: O_30  and  C_31 
REMARK    7  A    between atoms: C_31  and  C_32 
REMARK    8  A    between atoms: C_32  and  N_33 
ROOT
HETATM    1  C   UNK N   1      32.706  16.951   6.195  0.00  0.00     0.173 A 
HETATM    2  C   UNK N   1      31.231  16.764   6.440  0.00  0.00     0.002 A 
HETATM    3  C   UNK N   1      30.490  15.987   5.528  0.00  0.00     0.043 A 
HETATM    4  C   UNK N   1      29.125  15.851   5.729  0.00  0.00     0.066 A 
HETATM    5  N   UNK N   1      28.501  16.454   6.755  0.00  0.00    -0.307 N 
HETATM    6  C   UNK N   1      29.181  17.200   7.683  0.00  0.00     0.257 A 
HETATM    7  O   UNK N   1      28.583  17.716   8.612  0.00  0.00    -0.267 OA
HETATM    8  C   UNK N   1      30.574  17.363   7.540  0.00  0.00     0.044 A 
HETATM    9  C   UNK N   1      31.325  18.183   8.548  0.00  0.00     0.224 A 
HETATM   10  O   UNK N   1      32.680  18.311   8.312  0.00  0.00    -0.314 OA
HETATM   11  C   UNK N   1      33.369  17.798   7.263  0.00  0.00     0.298 A 
HETATM   12  O   UNK N   1      34.563  18.043   7.175  0.00  0.00    -0.261 OA
HETATM   13  C   UNK N   1      27.054  16.198   6.725  0.00  0.00     0.174 A 
HETATM   14  C   UNK N   1      26.945  15.313   5.499  0.00  0.00     0.002 A 
HETATM   15  C   UNK N   1      28.183  15.116   4.952  0.00  0.00     0.069 A 
HETATM   16  N   UNK N   1      28.393  14.334   3.867  0.00  0.00    -0.353 N 
ATOM     17  HN  UNK N   1      29.334  14.218   3.489  1.00  0.00     0.166 HD
HETATM   18  C   UNK N   1      27.334  13.704   3.284  0.00  0.00     0.043 A 
HETATM   19  C   UNK N   1      27.541  12.882   2.174  0.00  0.00     0.030 A 
HETATM   20  C   UNK N   1      26.462  12.234   1.569  0.00  0.00     0.002 A 
HETATM   21  C   UNK N   1      25.167  12.408   2.067  0.00  0.00     0.001 A 
HETATM   22  C   UNK N   1      24.941  13.228   3.176  0.00  0.00     0.014 A 
HETATM   23  C   UNK N   1      26.013  13.882   3.802  0.00  0.00     0.003 A 
HETATM   24  C   UNK N   1      25.812  14.718   4.928  0.00  0.00     0.004 A 
ENDROOT
BRANCH  24  25
HETATM   25  C   UNK N   1      24.459  14.964   5.479  0.00  0.00     0.127 C 
BRANCH  25  26
HETATM   26  N   UNK N   1      23.953  14.163   6.350  0.00  0.00    -0.277 N 
ATOM     27  HN  UNK N   1      23.242  13.494   6.059  1.00  0.00     0.193 HD
BRANCH  26  28
HETATM   28  O   UNK N   1      24.332  14.191   7.611  0.00  0.00    -0.279 OA
BRANCH  28  29
HETATM   29  C   UNK N   1      24.813  13.060   8.224  0.00  0.00     0.220 C 
BRANCH  29  30
HETATM   30  C   UNK N   1      24.419  13.062   9.684  0.00  0.00     0.139 C 
BRANCH  30  31
HETATM   31  N   UNK N   1      25.563  13.437  10.497  0.00  0.00    -0.428 N 
HETATM   32  H   UNK N   1      26.486  13.027  10.360  0.00  0.00     0.150 HD
HETATM   33  H   UNK N   1      25.437  14.136  11.229  0.00  0.00     0.150 HD
ENDBRANCH  30  31
ENDBRANCH  29  30
ENDBRANCH  28  29
ENDBRANCH  26  28
ENDBRANCH  25  26
ENDBRANCH  24  25
BRANCH   1  34
HETATM   34  C   UNK N   1      33.363  15.563   6.132  0.00  0.00     0.049 C 
HETATM   35  C   UNK N   1      34.187  15.345   4.870  0.00  0.00     0.009 C 
ENDBRANCH   1  34
BRANCH   1  36
HETATM   36  O   UNK N   1      32.856  17.594   4.962  0.00  0.00    -0.375 OA
HETATM   37  H   UNK N   1      32.497  17.973   4.145  0.00  0.00     0.211 HD
ENDBRANCH   1  36
TORSDOF 8
ENDMDL
