MODEL 1
REMARK VINA RESULT:      -8.2      0.000      0.000
REMARK  3 active torsions:
REMARK  status: ('A' for Active; 'I' for Inactive)
REMARK    1  A    between atoms: C_5  and  C_37 
REMARK    2  A    between atoms: C_13  and  C_27 
REMARK    3  A    between atoms: C_27  and  C_28 
ROOT
HETATM    1  C   UNK N   1      36.409  13.747   6.359  0.00  0.00     0.042 C 
HETATM    2  C   UNK N   1      35.709  13.310   7.639  0.00  0.00     0.142 C 
HETATM    3  C   UNK N   1      34.526  12.386   7.369  0.00  0.00     0.146 C 
HETATM    4  N   UNK N   1      34.099  11.710   8.597  0.00  0.00    -0.406 N 
HETATM    5  C   UNK N   1      33.927  10.249   8.448  0.00  0.00     0.173 C 
HETATM    6  C   UNK N   1      35.000   9.461   9.179  0.00  0.00     0.243 C 
HETATM    7  O   UNK N   1      36.169   9.588   8.827  0.00  0.00    -0.271 OA
HETATM    8  N   UNK N   1      34.679   8.620  10.219  0.00  0.00    -0.342 N 
HETATM    9  C   UNK N   1      35.721   7.888  10.956  0.00  0.00     0.174 C 
HETATM   10  C   UNK N   1      36.709   8.829  11.614  0.00  0.00     0.241 C 
HETATM   11  O   UNK N   1      37.709   8.391  12.161  0.00  0.00    -0.271 OA
HETATM   12  N   UNK N   1      36.508  10.161  11.498  0.00  0.00    -0.346 N 
HETATM   13  C   UNK N   1      37.435  11.211  11.842  0.00  0.00     0.180 C 
HETATM   14  C   UNK N   1      36.881  12.493  11.264  0.00  0.00     0.240 C 
HETATM   15  O   UNK N   1      35.716  12.533  10.885  0.00  0.00    -0.271 OA
HETATM   16  N   UNK N   1      37.685  13.578  11.118  0.00  0.00    -0.359 N 
HETATM   17  C   UNK N   1      37.252  14.812  10.491  0.00  0.00     0.123 C 
HETATM   18  C   UNK N   1      35.930  15.299  11.073  0.00  0.00     0.024 C 
HETATM   19  C   UNK N   1      35.486  16.624  10.471  0.00  0.00     0.043 C 
HETATM   20  C   UNK N   1      34.838  16.644   9.102  0.00  0.00    -0.025 A 
HETATM   21  C   UNK N   1      34.245  17.858   8.736  0.00  0.00     0.010 A 
HETATM   22  C   UNK N   1      33.633  18.017   7.495  0.00  0.00     0.001 A 
HETATM   23  C   UNK N   1      33.607  16.957   6.592  0.00  0.00     0.003 A 
HETATM   24  C   UNK N   1      34.197  15.736   6.929  0.00  0.00     0.037 A 
HETATM   25  C   UNK N   1      34.820  15.557   8.179  0.00  0.00     0.075 A 
HETATM   26  O   UNK N   1      35.430  14.377   8.487  0.00  0.00    -0.344 OA
HETATM   27  C   UNK N   1      35.159   6.914  11.993  0.00  0.00     0.042 C 
HETATM   28  C   UNK N   1      33.282   8.452  10.579  0.00  0.00     0.153 C 
HETATM   29  H   UNK N   1      33.935  12.203   9.475  0.00  0.00     0.154 HD
HETATM   30  H   UNK N   1      35.636  10.444  11.139  0.00  0.00     0.163 HD
HETATM   31  H   UNK N   1      38.608  13.525  11.456  0.00  0.00     0.162 HD
ENDROOT
BRANCH  13  32
HETATM   32  C   UNK N   1      37.696  11.208  13.360  0.00  0.00     0.073 C 
BRANCH  32  33
HETATM   33  C   UNK N   1      36.699  11.897  14.243  0.00  0.00    -0.056 A 
HETATM   34  C   UNK N   1      37.031  13.093  14.894  0.00  0.00     0.010 A 
HETATM   35  C   UNK N   1      36.135  13.661  15.809  0.00  0.00     0.043 A 
HETATM   36  C   UNK N   1      34.913  13.034  16.075  0.00  0.00     0.116 A 
HETATM   37  C   UNK N   1      34.582  11.845  15.425  0.00  0.00     0.043 A 
HETATM   38  F   UNK N   1      34.055  13.563  16.979  0.00  0.00    -0.206 F 
HETATM   39  C   UNK N   1      35.479  11.273  14.525  0.00  0.00     0.010 A 
ENDBRANCH  32  33
ENDBRANCH  13  32
BRANCH   5  40
HETATM   40  C   UNK N   1      33.526   9.773   7.030  0.00  0.00     0.017 A 
HETATM   41  C   UNK N   1      33.460   8.264   6.901  0.00  0.00     0.007 A 
HETATM   42  C   UNK N   1      32.178   9.076   7.021  0.00  0.00     0.007 A 
ENDBRANCH   5  40
TORSDOF 3
ENDMDL
MODEL 2
REMARK VINA RESULT:      -8.2     11.004     14.279
REMARK  3 active torsions:
REMARK  status: ('A' for Active; 'I' for Inactive)
REMARK    1  A    between atoms: C_5  and  C_37 
REMARK    2  A    between atoms: C_13  and  C_27 
REMARK    3  A    between atoms: C_27  and  C_28 
ROOT
HETATM    1  C   UNK N   1      20.991  15.800   8.102  0.00  0.00     0.042 C 
HETATM    2  C   UNK N   1      21.658  14.683   7.310  0.00  0.00     0.142 C 
HETATM    3  C   UNK N   1      20.671  13.929   6.424  0.00  0.00     0.146 C 
HETATM    4  N   UNK N   1      21.378  13.115   5.430  0.00  0.00    -0.406 N 
HETATM    5  C   UNK N   1      20.874  13.284   4.050  0.00  0.00     0.173 C 
HETATM    6  C   UNK N   1      21.856  14.026   3.161  0.00  0.00     0.243 C 
HETATM    7  O   UNK N   1      22.144  15.187   3.439  0.00  0.00    -0.271 OA
HETATM    8  N   UNK N   1      22.420  13.419   2.063  0.00  0.00    -0.342 N 
HETATM    9  C   UNK N   1      23.403  14.122   1.224  0.00  0.00     0.174 C 
HETATM   10  C   UNK N   1      24.629  14.526   2.016  0.00  0.00     0.241 C 
HETATM   11  O   UNK N   1      25.489  15.228   1.509  0.00  0.00    -0.271 OA
HETATM   12  N   UNK N   1      24.701  14.174   3.320  0.00  0.00    -0.346 N 
HETATM   13  C   UNK N   1      25.652  14.648   4.295  0.00  0.00     0.180 C 
HETATM   14  C   UNK N   1      25.149  14.205   5.650  0.00  0.00     0.240 C 
HETATM   15  O   UNK N   1      24.273  13.351   5.722  0.00  0.00    -0.271 OA
HETATM   16  N   UNK N   1      25.631  14.787   6.779  0.00  0.00    -0.359 N 
HETATM   17  C   UNK N   1      25.135  14.481   8.107  0.00  0.00     0.123 C 
HETATM   18  C   UNK N   1      25.093  12.977   8.353  0.00  0.00     0.024 C 
HETATM   19  C   UNK N   1      24.632  12.634   9.761  0.00  0.00     0.043 C 
HETATM   20  C   UNK N   1      23.157  12.684  10.098  0.00  0.00    -0.025 A 
HETATM   21  C   UNK N   1      22.802  12.122  11.331  0.00  0.00     0.010 A 
HETATM   22  C   UNK N   1      21.481  12.122  11.771  0.00  0.00     0.001 A 
HETATM   23  C   UNK N   1      20.485  12.691  10.981  0.00  0.00     0.003 A 
HETATM   24  C   UNK N   1      20.812  13.264   9.750  0.00  0.00     0.037 A 
HETATM   25  C   UNK N   1      22.141  13.274   9.288  0.00  0.00     0.075 A 
HETATM   26  O   UNK N   1      22.461  13.870   8.105  0.00  0.00    -0.344 OA
HETATM   27  C   UNK N   1      23.821  13.328  -0.014  0.00  0.00     0.042 C 
HETATM   28  C   UNK N   1      22.020  12.064   1.730  0.00  0.00     0.153 C 
HETATM   29  H   UNK N   1      22.147  12.489   5.669  0.00  0.00     0.154 HD
HETATM   30  H   UNK N   1      24.032  13.525   3.637  0.00  0.00     0.163 HD
HETATM   31  H   UNK N   1      26.353  15.451   6.692  0.00  0.00     0.162 HD
ENDROOT
BRANCH  13  32
HETATM   32  C   UNK N   1      27.072  14.188   3.914  0.00  0.00     0.073 C 
BRANCH  32  33
HETATM   33  C   UNK N   1      28.167  15.211   3.928  0.00  0.00    -0.056 A 
HETATM   34  C   UNK N   1      28.860  15.528   2.752  0.00  0.00     0.010 A 
HETATM   35  C   UNK N   1      29.960  16.395   2.802  0.00  0.00     0.043 A 
HETATM   36  C   UNK N   1      30.367  16.941   4.025  0.00  0.00     0.116 A 
HETATM   37  C   UNK N   1      29.676  16.627   5.194  0.00  0.00     0.043 A 
HETATM   38  F   UNK N   1      31.446  17.758   4.084  0.00  0.00    -0.206 F 
HETATM   39  C   UNK N   1      28.591  15.754   5.147  0.00  0.00     0.010 A 
ENDBRANCH  32  33
ENDBRANCH  13  32
BRANCH   5  40
HETATM   40  C   UNK N   1      19.376  13.658   3.935  0.00  0.00     0.017 A 
HETATM   41  C   UNK N   1      18.791  13.378   2.565  0.00  0.00     0.007 A 
HETATM   42  C   UNK N   1      18.497  12.439   3.727  0.00  0.00     0.007 A 
ENDBRANCH   5  40
TORSDOF 3
ENDMDL
MODEL 3
REMARK VINA RESULT:      -8.1      6.267     10.414
REMARK  3 active torsions:
REMARK  status: ('A' for Active; 'I' for Inactive)
REMARK    1  A    between atoms: C_5  and  C_37 
REMARK    2  A    between atoms: C_13  and  C_27 
REMARK    3  A    between atoms: C_27  and  C_28 
ROOT
HETATM    1  C   UNK N   1      28.132  17.505   8.720  0.00  0.00     0.042 C 
HETATM    2  C   UNK N   1      28.982  17.259   7.481  0.00  0.00     0.142 C 
HETATM    3  C   UNK N   1      30.397  17.810   7.628  0.00  0.00     0.146 C 
HETATM    4  N   UNK N   1      31.281  17.263   6.595  0.00  0.00    -0.406 N 
HETATM    5  C   UNK N   1      32.559  16.733   7.119  0.00  0.00     0.173 C 
HETATM    6  C   UNK N   1      32.634  15.219   7.044  0.00  0.00     0.243 C 
HETATM    7  O   UNK N   1      31.831  14.555   7.694  0.00  0.00    -0.271 OA
HETATM    8  N   UNK N   1      33.577  14.592   6.264  0.00  0.00    -0.342 N 
HETATM    9  C   UNK N   1      33.625  13.125   6.157  0.00  0.00     0.174 C 
HETATM   10  C   UNK N   1      32.337  12.561   5.595  0.00  0.00     0.241 C 
HETATM   11  O   UNK N   1      32.155  11.355   5.556  0.00  0.00    -0.271 OA
HETATM   12  N   UNK N   1      31.360  13.423   5.230  0.00  0.00    -0.346 N 
HETATM   13  C   UNK N   1      29.995  13.095   4.896  0.00  0.00     0.180 C 
HETATM   14  C   UNK N   1      29.231  14.398   4.849  0.00  0.00     0.240 C 
HETATM   15  O   UNK N   1      29.842  15.459   4.806  0.00  0.00    -0.271 OA
HETATM   16  N   UNK N   1      27.873  14.393   4.905  0.00  0.00    -0.359 N 
HETATM   17  C   UNK N   1      27.074  15.602   4.955  0.00  0.00     0.123 C 
HETATM   18  C   UNK N   1      27.481  16.586   3.863  0.00  0.00     0.024 C 
HETATM   19  C   UNK N   1      26.616  17.836   3.859  0.00  0.00     0.043 C 
HETATM   20  C   UNK N   1      26.875  18.929   4.875  0.00  0.00    -0.025 A 
HETATM   21  C   UNK N   1      26.203  20.135   4.646  0.00  0.00     0.010 A 
HETATM   22  C   UNK N   1      26.338  21.214   5.517  0.00  0.00     0.001 A 
HETATM   23  C   UNK N   1      27.151  21.101   6.642  0.00  0.00     0.003 A 
HETATM   24  C   UNK N   1      27.829  19.906   6.898  0.00  0.00     0.037 A 
HETATM   25  C   UNK N   1      27.705  18.806   6.030  0.00  0.00     0.075 A 
HETATM   26  O   UNK N   1      28.335  17.629   6.306  0.00  0.00    -0.344 OA
HETATM   27  C   UNK N   1      34.815  12.615   5.344  0.00  0.00     0.042 C 
HETATM   28  C   UNK N   1      34.545  15.403   5.548  0.00  0.00     0.153 C 
HETATM   29  H   UNK N   1      31.037  17.248   5.605  0.00  0.00     0.154 HD
HETATM   30  H   UNK N   1      31.607  14.375   5.188  0.00  0.00     0.163 HD
HETATM   31  H   UNK N   1      27.408  13.526   4.912  0.00  0.00     0.162 HD
ENDROOT
BRANCH  13  32
HETATM   32  C   UNK N   1      29.956  12.238   3.617  0.00  0.00     0.073 C 
BRANCH  32  33
HETATM   33  C   UNK N   1      28.624  11.726   3.158  0.00  0.00    -0.056 A 
HETATM   34  C   UNK N   1      28.047  12.206   1.974  0.00  0.00     0.010 A 
HETATM   35  C   UNK N   1      26.750  11.809   1.620  0.00  0.00     0.043 A 
HETATM   36  C   UNK N   1      26.032  10.938   2.448  0.00  0.00     0.116 A 
HETATM   37  C   UNK N   1      26.609  10.459   3.624  0.00  0.00     0.043 A 
HETATM   38  F   UNK N   1      24.769  10.572   2.124  0.00  0.00    -0.206 F 
HETATM   39  C   UNK N   1      27.893  10.864   3.983  0.00  0.00     0.010 A 
ENDBRANCH  32  33
ENDBRANCH  13  32
BRANCH   5  40
HETATM   40  C   UNK N   1      33.076  17.416   8.410  0.00  0.00     0.017 A 
HETATM   41  C   UNK N   1      34.366  16.813   8.931  0.00  0.00     0.007 A 
HETATM   42  C   UNK N   1      34.390  18.140   8.186  0.00  0.00     0.007 A 
ENDBRANCH   5  40
TORSDOF 3
ENDMDL
MODEL 4
REMARK VINA RESULT:      -7.9     18.779     22.258
REMARK  3 active torsions:
REMARK  status: ('A' for Active; 'I' for Inactive)
REMARK    1  A    between atoms: C_5  and  C_37 
REMARK    2  A    between atoms: C_13  and  C_27 
REMARK    3  A    between atoms: C_27  and  C_28 
ROOT
HETATM    1  C   UNK N   1      32.213  22.073  -3.588  0.00  0.00     0.042 C 
HETATM    2  C   UNK N   1      31.862  22.679  -4.939  0.00  0.00     0.142 C 
HETATM    3  C   UNK N   1      31.755  21.628  -6.039  0.00  0.00     0.146 C 
HETATM    4  N   UNK N   1      31.083  22.174  -7.222  0.00  0.00    -0.406 N 
HETATM    5  C   UNK N   1      29.998  21.316  -7.745  0.00  0.00     0.173 C 
HETATM    6  C   UNK N   1      28.622  21.914  -7.509  0.00  0.00     0.243 C 
HETATM    7  O   UNK N   1      28.240  22.082  -6.355  0.00  0.00    -0.271 OA
HETATM    8  N   UNK N   1      27.811  22.266  -8.563  0.00  0.00    -0.342 N 
HETATM    9  C   UNK N   1      26.495  22.884  -8.339  0.00  0.00     0.174 C 
HETATM   10  C   UNK N   1      26.611  24.194  -7.588  0.00  0.00     0.241 C 
HETATM   11  O   UNK N   1      25.610  24.779  -7.206  0.00  0.00    -0.271 OA
HETATM   12  N   UNK N   1      27.844  24.648  -7.268  0.00  0.00    -0.346 N 
HETATM   13  C   UNK N   1      28.163  25.732  -6.371  0.00  0.00     0.180 C 
HETATM   14  C   UNK N   1      29.651  25.664  -6.114  0.00  0.00     0.240 C 
HETATM   15  O   UNK N   1      30.362  24.977  -6.838  0.00  0.00    -0.271 OA
HETATM   16  N   UNK N   1      30.190  26.322  -5.054  0.00  0.00    -0.359 N 
HETATM   17  C   UNK N   1      31.591  26.234  -4.690  0.00  0.00     0.123 C 
HETATM   18  C   UNK N   1      32.496  26.486  -5.890  0.00  0.00     0.024 C 
HETATM   19  C   UNK N   1      33.971  26.457  -5.518  0.00  0.00     0.043 C 
HETATM   20  C   UNK N   1      34.668  25.126  -5.330  0.00  0.00    -0.025 A 
HETATM   21  C   UNK N   1      36.064  25.187  -5.234  0.00  0.00     0.010 A 
HETATM   22  C   UNK N   1      36.825  24.037  -5.038  0.00  0.00     0.001 A 
HETATM   23  C   UNK N   1      36.198  22.798  -4.932  0.00  0.00     0.003 A 
HETATM   24  C   UNK N   1      34.806  22.709  -5.019  0.00  0.00     0.037 A 
HETATM   25  C   UNK N   1      34.020  23.860  -5.216  0.00  0.00     0.075 A 
HETATM   26  O   UNK N   1      32.661  23.773  -5.259  0.00  0.00    -0.344 OA
HETATM   27  C   UNK N   1      25.694  23.090  -9.625  0.00  0.00     0.042 C 
HETATM   28  C   UNK N   1      28.269  22.007  -9.916  0.00  0.00     0.153 C 
HETATM   29  H   UNK N   1      31.341  23.065  -7.646  0.00  0.00     0.154 HD
HETATM   30  H   UNK N   1      28.605  24.190  -7.693  0.00  0.00     0.163 HD
HETATM   31  H   UNK N   1      29.599  26.888  -4.505  0.00  0.00     0.162 HD
ENDROOT
BRANCH  13  32
HETATM   32  C   UNK N   1      27.633  27.062  -6.940  0.00  0.00     0.073 C 
BRANCH  32  33
HETATM   33  C   UNK N   1      27.192  28.114  -5.968  0.00  0.00    -0.056 A 
HETATM   34  C   UNK N   1      27.840  29.356  -5.921  0.00  0.00     0.010 A 
HETATM   35  C   UNK N   1      27.498  30.284  -4.928  0.00  0.00     0.043 A 
HETATM   36  C   UNK N   1      26.515  29.970  -3.984  0.00  0.00     0.116 A 
HETATM   37  C   UNK N   1      25.869  28.735  -4.033  0.00  0.00     0.043 A 
HETATM   38  F   UNK N   1      26.200  30.852  -3.006  0.00  0.00    -0.206 F 
HETATM   39  C   UNK N   1      26.218  27.807  -5.011  0.00  0.00     0.010 A 
ENDBRANCH  32  33
ENDBRANCH  13  32
BRANCH   5  40
HETATM   40  C   UNK N   1      30.175  19.799  -7.490  0.00  0.00     0.017 A 
HETATM   41  C   UNK N   1      28.944  18.985  -7.834  0.00  0.00     0.007 A 
HETATM   42  C   UNK N   1      30.138  18.996  -8.777  0.00  0.00     0.007 A 
ENDBRANCH   5  40
TORSDOF 3
ENDMDL
MODEL 5
REMARK VINA RESULT:      -7.9      7.481     11.539
REMARK  3 active torsions:
REMARK  status: ('A' for Active; 'I' for Inactive)
REMARK    1  A    between atoms: C_5  and  C_37 
REMARK    2  A    between atoms: C_13  and  C_27 
REMARK    3  A    between atoms: C_27  and  C_28 
ROOT
HETATM    1  C   UNK N   1      28.025  16.855   7.968  0.00  0.00     0.042 C 
HETATM    2  C   UNK N   1      28.680  16.843   6.594  0.00  0.00     0.142 C 
HETATM    3  C   UNK N   1      30.159  17.213   6.652  0.00  0.00     0.146 C 
HETATM    4  N   UNK N   1      30.836  16.857   5.401  0.00  0.00    -0.406 N 
HETATM    5  C   UNK N   1      32.094  16.104   5.594  0.00  0.00     0.173 C 
HETATM    6  C   UNK N   1      31.973  14.653   5.164  0.00  0.00     0.243 C 
HETATM    7  O   UNK N   1      31.182  13.925   5.756  0.00  0.00    -0.271 OA
HETATM    8  N   UNK N   1      32.730  14.153   4.130  0.00  0.00    -0.342 N 
HETATM    9  C   UNK N   1      32.585  12.758   3.684  0.00  0.00     0.174 C 
HETATM   10  C   UNK N   1      31.178  12.466   3.205  0.00  0.00     0.241 C 
HETATM   11  O   UNK N   1      30.847  11.327   2.918  0.00  0.00    -0.271 OA
HETATM   12  N   UNK N   1      30.276  13.474   3.196  0.00  0.00    -0.346 N 
HETATM   13  C   UNK N   1      28.852  13.361   3.003  0.00  0.00     0.180 C 
HETATM   14  C   UNK N   1      28.252  14.699   3.369  0.00  0.00     0.240 C 
HETATM   15  O   UNK N   1      28.978  15.680   3.481  0.00  0.00    -0.271 OA
HETATM   16  N   UNK N   1      26.921  14.803   3.624  0.00  0.00    -0.359 N 
HETATM   17  C   UNK N   1      26.288  16.029   4.067  0.00  0.00     0.123 C 
HETATM   18  C   UNK N   1      26.675  17.209   3.182  0.00  0.00     0.024 C 
HETATM   19  C   UNK N   1      25.975  18.495   3.593  0.00  0.00     0.043 C 
HETATM   20  C   UNK N   1      26.489  19.279   4.782  0.00  0.00    -0.025 A 
HETATM   21  C   UNK N   1      25.947  20.560   4.938  0.00  0.00     0.010 A 
HETATM   22  C   UNK N   1      26.318  21.377   6.003  0.00  0.00     0.001 A 
HETATM   23  C   UNK N   1      27.243  20.921   6.939  0.00  0.00     0.003 A 
HETATM   24  C   UNK N   1      27.796  19.645   6.811  0.00  0.00     0.037 A 
HETATM   25  C   UNK N   1      27.433  18.805   5.741  0.00  0.00     0.075 A 
HETATM   26  O   UNK N   1      27.943  17.544   5.644  0.00  0.00    -0.344 OA
HETATM   27  C   UNK N   1      33.595  12.358   2.608  0.00  0.00     0.042 C 
HETATM   28  C   UNK N   1      33.695  15.024   3.484  0.00  0.00     0.153 C 
HETATM   29  H   UNK N   1      30.472  17.106   4.481  0.00  0.00     0.154 HD
HETATM   30  H   UNK N   1      30.631  14.382   3.337  0.00  0.00     0.163 HD
HETATM   31  H   UNK N   1      26.358  14.004   3.501  0.00  0.00     0.162 HD
ENDROOT
BRANCH  13  32
HETATM   32  C   UNK N   1      28.551  12.849   1.582  0.00  0.00     0.073 C 
BRANCH  32  33
HETATM   33  C   UNK N   1      27.534  11.759   1.431  0.00  0.00    -0.056 A 
HETATM   34  C   UNK N   1      27.922  10.474   1.027  0.00  0.00     0.010 A 
HETATM   35  C   UNK N   1      26.949   9.497   0.774  0.00  0.00     0.043 A 
HETATM   36  C   UNK N   1      25.592   9.806   0.920  0.00  0.00     0.116 A 
HETATM   37  C   UNK N   1      25.207  11.084   1.323  0.00  0.00     0.043 A 
HETATM   38  F   UNK N   1      24.646   8.876   0.650  0.00  0.00    -0.206 F 
HETATM   39  C   UNK N   1      26.173  12.059   1.563  0.00  0.00     0.010 A 
ENDBRANCH  32  33
ENDBRANCH  13  32
BRANCH   5  40
HETATM   40  C   UNK N   1      32.845  16.402   6.915  0.00  0.00     0.017 A 
HETATM   41  C   UNK N   1      34.335  16.134   6.831  0.00  0.00     0.007 A 
HETATM   42  C   UNK N   1      33.812  17.562   6.773  0.00  0.00     0.007 A 
ENDBRANCH   5  40
TORSDOF 3
ENDMDL
MODEL 6
REMARK VINA RESULT:      -7.7      5.710      9.222
REMARK  3 active torsions:
REMARK  status: ('A' for Active; 'I' for Inactive)
REMARK    1  A    between atoms: C_5  and  C_37 
REMARK    2  A    between atoms: C_13  and  C_27 
REMARK    3  A    between atoms: C_27  and  C_28 
ROOT
HETATM    1  C   UNK N   1      30.222  11.248   3.202  0.00  0.00     0.042 C 
HETATM    2  C   UNK N   1      30.483  12.748   3.206  0.00  0.00     0.142 C 
HETATM    3  C   UNK N   1      29.348  13.539   2.565  0.00  0.00     0.146 C 
HETATM    4  N   UNK N   1      29.452  14.964   2.892  0.00  0.00    -0.406 N 
HETATM    5  C   UNK N   1      28.190  15.561   3.379  0.00  0.00     0.173 C 
HETATM    6  C   UNK N   1      28.242  15.900   4.859  0.00  0.00     0.243 C 
HETATM    7  O   UNK N   1      28.388  14.989   5.669  0.00  0.00    -0.271 OA
HETATM    8  N   UNK N   1      28.131  17.200   5.293  0.00  0.00    -0.342 N 
HETATM    9  C   UNK N   1      28.223  17.536   6.723  0.00  0.00     0.174 C 
HETATM   10  C   UNK N   1      29.558  17.128   7.311  0.00  0.00     0.241 C 
HETATM   11  O   UNK N   1      29.758  17.216   8.512  0.00  0.00    -0.271 OA
HETATM   12  N   UNK N   1      30.482  16.575   6.492  0.00  0.00    -0.346 N 
HETATM   13  C   UNK N   1      31.703  15.916   6.884  0.00  0.00     0.180 C 
HETATM   14  C   UNK N   1      32.239  15.218   5.654  0.00  0.00     0.240 C 
HETATM   15  O   UNK N   1      31.793  15.507   4.550  0.00  0.00    -0.271 OA
HETATM   16  N   UNK N   1      33.173  14.239   5.779  0.00  0.00    -0.359 N 
HETATM   17  C   UNK N   1      33.669  13.464   4.659  0.00  0.00     0.123 C 
HETATM   18  C   UNK N   1      34.102  14.363   3.506  0.00  0.00     0.024 C 
HETATM   19  C   UNK N   1      34.682  13.573   2.343  0.00  0.00     0.043 C 
HETATM   20  C   UNK N   1      33.749  12.868   1.380  0.00  0.00    -0.025 A 
HETATM   21  C   UNK N   1      34.348  12.378   0.214  0.00  0.00     0.010 A 
HETATM   22  C   UNK N   1      33.607  11.690  -0.745  0.00  0.00     0.001 A 
HETATM   23  C   UNK N   1      32.245  11.478  -0.549  0.00  0.00     0.003 A 
HETATM   24  C   UNK N   1      31.623  11.951   0.609  0.00  0.00     0.037 A 
HETATM   25  C   UNK N   1      32.355  12.648   1.589  0.00  0.00     0.075 A 
HETATM   26  O   UNK N   1      31.753  13.071   2.736  0.00  0.00    -0.344 OA
HETATM   27  C   UNK N   1      27.954  19.012   7.018  0.00  0.00     0.042 C 
HETATM   28  C   UNK N   1      27.907  18.249   4.316  0.00  0.00     0.153 C 
HETATM   29  H   UNK N   1      30.317  15.495   2.793  0.00  0.00     0.154 HD
HETATM   30  H   UNK N   1      30.300  16.629   5.526  0.00  0.00     0.163 HD
HETATM   31  H   UNK N   1      33.532  14.047   6.676  0.00  0.00     0.162 HD
ENDROOT
BRANCH  13  32
HETATM   32  C   UNK N   1      32.653  16.923   7.560  0.00  0.00     0.073 C 
BRANCH  32  33
HETATM   33  C   UNK N   1      33.496  16.435   8.699  0.00  0.00    -0.056 A 
HETATM   34  C   UNK N   1      33.166  15.251   9.373  0.00  0.00     0.010 A 
HETATM   35  C   UNK N   1      33.890  14.870  10.511  0.00  0.00     0.043 A 
HETATM   36  C   UNK N   1      34.939  15.673  10.975  0.00  0.00     0.116 A 
HETATM   37  C   UNK N   1      35.268  16.849  10.303  0.00  0.00     0.043 A 
HETATM   38  F   UNK N   1      35.624  15.324  12.090  0.00  0.00    -0.206 F 
HETATM   39  C   UNK N   1      34.539  17.235   9.179  0.00  0.00     0.010 A 
ENDBRANCH  32  33
ENDBRANCH  13  32
BRANCH   5  40
HETATM   40  C   UNK N   1      26.897  14.904   2.837  0.00  0.00     0.017 A 
HETATM   41  C   UNK N   1      25.630  15.546   3.368  0.00  0.00     0.007 A 
HETATM   42  C   UNK N   1      26.103  15.848   1.954  0.00  0.00     0.007 A 
ENDBRANCH   5  40
TORSDOF 3
ENDMDL
MODEL 7
REMARK VINA RESULT:      -7.7      6.890     10.973
REMARK  3 active torsions:
REMARK  status: ('A' for Active; 'I' for Inactive)
REMARK    1  A    between atoms: C_5  and  C_37 
REMARK    2  A    between atoms: C_13  and  C_27 
REMARK    3  A    between atoms: C_27  and  C_28 
ROOT
HETATM    1  C   UNK N   1      26.723  11.567   4.868  0.00  0.00     0.042 C 
HETATM    2  C   UNK N   1      27.215  12.885   4.285  0.00  0.00     0.142 C 
HETATM    3  C   UNK N   1      26.070  13.785   3.832  0.00  0.00     0.146 C 
HETATM    4  N   UNK N   1      26.538  15.156   3.611  0.00  0.00    -0.406 N 
HETATM    5  C   UNK N   1      25.700  16.188   4.261  0.00  0.00     0.173 C 
HETATM    6  C   UNK N   1      26.399  16.847   5.437  0.00  0.00     0.243 C 
HETATM    7  O   UNK N   1      26.701  16.158   6.406  0.00  0.00    -0.271 OA
HETATM    8  N   UNK N   1      26.695  18.190   5.424  0.00  0.00    -0.342 N 
HETATM    9  C   UNK N   1      27.409  18.823   6.544  0.00  0.00     0.174 C 
HETATM   10  C   UNK N   1      28.777  18.208   6.757  0.00  0.00     0.241 C 
HETATM   11  O   UNK N   1      29.455  18.526   7.721  0.00  0.00    -0.271 OA
HETATM   12  N   UNK N   1      29.186  17.234   5.912  0.00  0.00    -0.346 N 
HETATM   13  C   UNK N   1      30.330  16.371   6.073  0.00  0.00     0.180 C 
HETATM   14  C   UNK N   1      30.199  15.273   5.042  0.00  0.00     0.240 C 
HETATM   15  O   UNK N   1      29.404  15.399   4.119  0.00  0.00    -0.271 OA
HETATM   16  N   UNK N   1      30.923  14.130   5.169  0.00  0.00    -0.359 N 
HETATM   17  C   UNK N   1      30.787  12.997   4.274  0.00  0.00     0.123 C 
HETATM   18  C   UNK N   1      30.867  13.428   2.814  0.00  0.00     0.024 C 
HETATM   19  C   UNK N   1      30.787  12.247   1.858  0.00  0.00     0.043 C 
HETATM   20  C   UNK N   1      29.441  11.624   1.552  0.00  0.00    -0.025 A 
HETATM   21  C   UNK N   1      29.427  10.715   0.487  0.00  0.00     0.010 A 
HETATM   22  C   UNK N   1      28.259  10.055   0.115  0.00  0.00     0.001 A 
HETATM   23  C   UNK N   1      27.076  10.293   0.810  0.00  0.00     0.003 A 
HETATM   24  C   UNK N   1      27.061  11.190   1.881  0.00  0.00     0.037 A 
HETATM   25  C   UNK N   1      28.233  11.866   2.271  0.00  0.00     0.075 A 
HETATM   26  O   UNK N   1      28.223  12.709   3.342  0.00  0.00    -0.344 OA
HETATM   27  C   UNK N   1      27.537  20.340   6.401  0.00  0.00     0.042 C 
HETATM   28  C   UNK N   1      26.279  18.989   4.285  0.00  0.00     0.153 C 
HETATM   29  H   UNK N   1      27.367  15.379   3.060  0.00  0.00     0.154 HD
HETATM   30  H   UNK N   1      28.643  17.100   5.101  0.00  0.00     0.163 HD
HETATM   31  H   UNK N   1      31.573  14.068   5.906  0.00  0.00     0.162 HD
ENDROOT
BRANCH  13  32
HETATM   32  C   UNK N   1      31.627  17.200   6.020  0.00  0.00     0.073 C 
BRANCH  32  33
HETATM   33  C   UNK N   1      32.615  17.027   7.134  0.00  0.00    -0.056 A 
HETATM   34  C   UNK N   1      32.435  16.023   8.095  0.00  0.00     0.010 A 
HETATM   35  C   UNK N   1      33.298  15.950   9.197  0.00  0.00     0.043 A 
HETATM   36  C   UNK N   1      34.335  16.879   9.339  0.00  0.00     0.116 A 
HETATM   37  C   UNK N   1      34.515  17.876   8.380  0.00  0.00     0.043 A 
HETATM   38  F   UNK N   1      35.155  16.830  10.415  0.00  0.00    -0.206 F 
HETATM   39  C   UNK N   1      33.648  17.957   7.292  0.00  0.00     0.010 A 
ENDBRANCH  32  33
ENDBRANCH  13  32
BRANCH   5  40
HETATM   40  C   UNK N   1      24.207  15.814   4.429  0.00  0.00     0.017 A 
HETATM   41  C   UNK N   1      23.443  16.782   5.311  0.00  0.00     0.007 A 
HETATM   42  C   UNK N   1      23.286  16.841   3.798  0.00  0.00     0.007 A 
ENDBRANCH   5  40
TORSDOF 3
ENDMDL
MODEL 8
REMARK VINA RESULT:      -7.6      3.039      7.534
REMARK  3 active torsions:
REMARK  status: ('A' for Active; 'I' for Inactive)
REMARK    1  A    between atoms: C_5  and  C_37 
REMARK    2  A    between atoms: C_13  and  C_27 
REMARK    3  A    between atoms: C_27  and  C_28 
ROOT
HETATM    1  C   UNK N   1      35.173   8.496  12.467  0.00  0.00     0.042 C 
HETATM    2  C   UNK N   1      36.129   9.665  12.270  0.00  0.00     0.142 C 
HETATM    3  C   UNK N   1      37.476   9.226  11.706  0.00  0.00     0.146 C 
HETATM    4  N   UNK N   1      38.232  10.377  11.202  0.00  0.00    -0.406 N 
HETATM    5  C   UNK N   1      38.782  10.184   9.843  0.00  0.00     0.173 C 
HETATM    6  C   UNK N   1      38.077  11.038   8.805  0.00  0.00     0.243 C 
HETATM    7  O   UNK N   1      36.883  10.846   8.594  0.00  0.00    -0.271 OA
HETATM    8  N   UNK N   1      38.752  12.014   8.110  0.00  0.00    -0.342 N 
HETATM    9  C   UNK N   1      38.061  12.871   7.133  0.00  0.00     0.174 C 
HETATM   10  C   UNK N   1      36.946  13.668   7.776  0.00  0.00     0.241 C 
HETATM   11  O   UNK N   1      36.187  14.335   7.091  0.00  0.00    -0.271 OA
HETATM   12  N   UNK N   1      36.751  13.546   9.109  0.00  0.00    -0.346 N 
HETATM   13  C   UNK N   1      35.621  14.026   9.867  0.00  0.00     0.180 C 
HETATM   14  C   UNK N   1      35.716  13.399  11.240  0.00  0.00     0.240 C 
HETATM   15  O   UNK N   1      36.763  12.871  11.594  0.00  0.00    -0.271 OA
HETATM   16  N   UNK N   1      34.630  13.378  12.056  0.00  0.00    -0.359 N 
HETATM   17  C   UNK N   1      34.616  12.718  13.347  0.00  0.00     0.123 C 
HETATM   18  C   UNK N   1      35.815  13.128  14.195  0.00  0.00     0.024 C 
HETATM   19  C   UNK N   1      35.789  12.494  15.577  0.00  0.00     0.043 C 
HETATM   20  C   UNK N   1      36.221  11.052  15.746  0.00  0.00    -0.025 A 
HETATM   21  C   UNK N   1      36.400  10.629  17.069  0.00  0.00     0.010 A 
HETATM   22  C   UNK N   1      36.775   9.320  17.364  0.00  0.00     0.001 A 
HETATM   23  C   UNK N   1      36.976   8.406  16.334  0.00  0.00     0.003 A 
HETATM   24  C   UNK N   1      36.799   8.799  15.005  0.00  0.00     0.037 A 
HETATM   25  C   UNK N   1      36.420  10.117  14.687  0.00  0.00     0.075 A 
HETATM   26  O   UNK N   1      36.208  10.485  13.391  0.00  0.00    -0.344 OA
HETATM   27  C   UNK N   1      39.003  13.809   6.377  0.00  0.00     0.042 C 
HETATM   28  C   UNK N   1      40.175  12.183   8.344  0.00  0.00     0.153 C 
HETATM   29  H   UNK N   1      38.365  11.233  11.741  0.00  0.00     0.154 HD
HETATM   30  H   UNK N   1      37.455  13.080   9.616  0.00  0.00     0.163 HD
HETATM   31  H   UNK N   1      33.810  13.834  11.755  0.00  0.00     0.162 HD
ENDROOT
BRANCH  13  32
HETATM   32  C   UNK N   1      35.573  15.565   9.826  0.00  0.00     0.073 C 
BRANCH  32  33
HETATM   33  C   UNK N   1      34.322  16.214   9.316  0.00  0.00    -0.056 A 
HETATM   34  C   UNK N   1      33.112  15.508   9.295  0.00  0.00     0.010 A 
HETATM   35  C   UNK N   1      31.978  16.083   8.705  0.00  0.00     0.043 A 
HETATM   36  C   UNK N   1      32.056  17.359   8.135  0.00  0.00     0.116 A 
HETATM   37  C   UNK N   1      33.261  18.062   8.158  0.00  0.00     0.043 A 
HETATM   38  F   UNK N   1      30.972  17.909   7.539  0.00  0.00    -0.206 F 
HETATM   39  C   UNK N   1      34.391  17.484   8.733  0.00  0.00     0.010 A 
ENDBRANCH  32  33
ENDBRANCH  13  32
BRANCH   5  40
HETATM   40  C   UNK N   1      39.110   8.718   9.466  0.00  0.00     0.017 A 
HETATM   41  C   UNK N   1      40.033   8.599   8.269  0.00  0.00     0.007 A 
HETATM   42  C   UNK N   1      40.577   8.389   9.675  0.00  0.00     0.007 A 
ENDBRANCH   5  40
TORSDOF 3
ENDMDL
MODEL 9
REMARK VINA RESULT:      -7.5      3.440      7.765
REMARK  3 active torsions:
REMARK  status: ('A' for Active; 'I' for Inactive)
REMARK    1  A    between atoms: C_5  and  C_37 
REMARK    2  A    between atoms: C_13  and  C_27 
REMARK    3  A    between atoms: C_27  and  C_28 
ROOT
HETATM    1  C   UNK N   1      34.764  10.657  11.159  0.00  0.00     0.042 C 
HETATM    2  C   UNK N   1      35.645  11.665  10.432  0.00  0.00     0.142 C 
HETATM    3  C   UNK N   1      36.912  11.030   9.869  0.00  0.00     0.146 C 
HETATM    4  N   UNK N   1      37.552  11.917   8.893  0.00  0.00    -0.406 N 
HETATM    5  C   UNK N   1      37.911  11.250   7.622  0.00  0.00     0.173 C 
HETATM    6  C   UNK N   1      37.038  11.701   6.464  0.00  0.00     0.243 C 
HETATM    7  O   UNK N   1      35.833  11.471   6.508  0.00  0.00    -0.271 OA
HETATM    8  N   UNK N   1      37.578  12.359   5.383  0.00  0.00    -0.342 N 
HETATM    9  C   UNK N   1      36.729  12.834   4.279  0.00  0.00     0.174 C 
HETATM   10  C   UNK N   1      35.690  13.828   4.758  0.00  0.00     0.241 C 
HETATM   11  O   UNK N   1      34.822  14.228   3.999  0.00  0.00    -0.271 OA
HETATM   12  N   UNK N   1      35.690  14.184   6.062  0.00  0.00    -0.346 N 
HETATM   13  C   UNK N   1      34.665  14.921   6.759  0.00  0.00     0.180 C 
HETATM   14  C   UNK N   1      34.973  14.811   8.235  0.00  0.00     0.240 C 
HETATM   15  O   UNK N   1      36.075  14.419   8.597  0.00  0.00    -0.271 OA
HETATM   16  N   UNK N   1      34.014  15.098   9.155  0.00  0.00    -0.359 N 
HETATM   17  C   UNK N   1      34.204  14.932  10.582  0.00  0.00     0.123 C 
HETATM   18  C   UNK N   1      35.497  15.588  11.053  0.00  0.00     0.024 C 
HETATM   19  C   UNK N   1      35.687  15.477  12.558  0.00  0.00     0.043 C 
HETATM   20  C   UNK N   1      36.184  14.177  13.155  0.00  0.00    -0.025 A 
HETATM   21  C   UNK N   1      36.562  14.239  14.502  0.00  0.00     0.010 A 
HETATM   22  C   UNK N   1      37.016  13.109  15.178  0.00  0.00     0.001 A 
HETATM   23  C   UNK N   1      37.099  11.888  14.513  0.00  0.00     0.003 A 
HETATM   24  C   UNK N   1      36.723  11.796  13.170  0.00  0.00     0.037 A 
HETATM   25  C   UNK N   1      36.261  12.927  12.471  0.00  0.00     0.075 A 
HETATM   26  O   UNK N   1      35.856  12.823  11.174  0.00  0.00    -0.344 OA
HETATM   27  C   UNK N   1      37.523  13.430   3.117  0.00  0.00     0.042 C 
HETATM   28  C   UNK N   1      39.013  12.571   5.336  0.00  0.00     0.153 C 
HETATM   29  H   UNK N   1      37.733  12.904   9.074  0.00  0.00     0.154 HD
HETATM   30  H   UNK N   1      36.473  13.910   6.593  0.00  0.00     0.163 HD
HETATM   31  H   UNK N   1      33.146  15.436   8.835  0.00  0.00     0.162 HD
ENDROOT
BRANCH  13  32
HETATM   32  C   UNK N   1      34.562  16.349   6.192  0.00  0.00     0.073 C 
BRANCH  32  33
HETATM   33  C   UNK N   1      33.208  16.847   5.787  0.00  0.00    -0.056 A 
HETATM   34  C   UNK N   1      32.143  16.833   6.697  0.00  0.00     0.010 A 
HETATM   35  C   UNK N   1      30.856  17.187   6.271  0.00  0.00     0.043 A 
HETATM   36  C   UNK N   1      30.634  17.551   4.938  0.00  0.00     0.116 A 
HETATM   37  C   UNK N   1      31.696  17.567   4.033  0.00  0.00     0.043 A 
HETATM   38  F   UNK N   1      29.388  17.869   4.513  0.00  0.00    -0.206 F 
HETATM   39  C   UNK N   1      32.973  17.202   4.454  0.00  0.00     0.010 A 
ENDBRANCH  32  33
ENDBRANCH  13  32
BRANCH   5  40
HETATM   40  C   UNK N   1      38.228   9.739   7.737  0.00  0.00     0.017 A 
HETATM   41  C   UNK N   1      38.504   9.081   6.399  0.00  0.00     0.007 A 
HETATM   42  C   UNK N   1      39.656   9.423   7.333  0.00  0.00     0.007 A 
ENDBRANCH   5  40
TORSDOF 3
ENDMDL
