MODEL 1
REMARK VINA RESULT:      -6.6      0.000      0.000
REMARK  1 active torsions:
REMARK  status: ('A' for Active; 'I' for Inactive)
REMARK    1  A    between atoms: C_2  and  C_4 
ROOT
HETATM    1  C   UNK N   1      35.749  14.520  11.796  0.00  0.00     0.122 A 
HETATM    2  O   UNK N   1      36.187  14.766  13.020  0.00  0.00    -0.302 OA
HETATM    3  C   UNK N   1      35.838  13.755  13.782  0.00  0.00     0.141 A 
HETATM    4  C   UNK N   1      36.092  13.557  15.221  0.00  0.00     0.217 A 
HETATM    5  O   UNK N   1      36.700  14.392  15.870  0.00  0.00    -0.284 OA
HETATM    6  C   UNK N   1      35.579  12.301  15.851  0.00  0.00     0.031 A 
HETATM    7  C   UNK N   1      35.786  12.050  17.214  0.00  0.00     0.016 A 
HETATM    8  C   UNK N   1      35.303  10.873  17.795  0.00  0.00     0.001 A 
HETATM    9  C   UNK N   1      34.611   9.937  17.022  0.00  0.00     0.001 A 
HETATM   10  C   UNK N   1      34.396  10.173  15.663  0.00  0.00     0.016 A 
HETATM   11  C   UNK N   1      34.873  11.346  15.066  0.00  0.00     0.029 A 
HETATM   12  C   UNK N   1      34.642  11.591  13.620  0.00  0.00     0.196 A 
HETATM   13  O   UNK N   1      34.040  10.787  12.926  0.00  0.00    -0.287 OA
HETATM   14  C   UNK N   1      35.160  12.832  13.043  0.00  0.00     0.056 A 
HETATM   15  C   UNK N   1      35.088  13.300  11.754  0.00  0.00     0.059 A 
ENDROOT
BRANCH   1  16
HETATM   16  C   UNK N   1      35.935  15.410  10.639  0.00  0.00     0.179 C 
HETATM   17  C   UNK N   1      35.372  15.036   9.306  0.00  0.00     0.099 C 
HETATM   18  O   UNK N   1      36.548  16.456  10.761  0.00  0.00    -0.291 OA
ENDBRANCH   1  16
TORSDOF 1
ENDMDL
MODEL 2
REMARK VINA RESULT:      -6.6     19.122     21.576
REMARK  1 active torsions:
REMARK  status: ('A' for Active; 'I' for Inactive)
REMARK    1  A    between atoms: C_2  and  C_4 
ROOT
HETATM    1  C   UNK N   1      27.779  24.126  -4.228  0.00  0.00     0.122 A 
HETATM    2  O   UNK N   1      28.559  23.914  -3.180  0.00  0.00    -0.302 OA
HETATM    3  C   UNK N   1      29.557  23.155  -3.569  0.00  0.00     0.141 A 
HETATM    4  C   UNK N   1      30.688  22.643  -2.774  0.00  0.00     0.217 A 
HETATM    5  O   UNK N   1      30.792  22.911  -1.588  0.00  0.00    -0.284 OA
HETATM    6  C   UNK N   1      31.698  21.788  -3.471  0.00  0.00     0.031 A 
HETATM    7  C   UNK N   1      32.798  21.269  -2.775  0.00  0.00     0.016 A 
HETATM    8  C   UNK N   1      33.737  20.471  -3.435  0.00  0.00     0.001 A 
HETATM    9  C   UNK N   1      33.588  20.184  -4.794  0.00  0.00     0.001 A 
HETATM   10  C   UNK N   1      32.498  20.693  -5.502  0.00  0.00     0.016 A 
HETATM   11  C   UNK N   1      31.549  21.494  -4.856  0.00  0.00     0.029 A 
HETATM   12  C   UNK N   1      30.391  22.033  -5.615  0.00  0.00     0.196 A 
HETATM   13  O   UNK N   1      30.242  21.795  -6.802  0.00  0.00    -0.287 OA
HETATM   14  C   UNK N   1      29.427  22.865  -4.894  0.00  0.00     0.056 A 
HETATM   15  C   UNK N   1      28.285  23.480  -5.347  0.00  0.00     0.059 A 
ENDROOT
BRANCH   1  16
HETATM   16  C   UNK N   1      26.548  24.932  -4.214  0.00  0.00     0.179 C 
HETATM   17  C   UNK N   1      25.631  24.923  -5.394  0.00  0.00     0.099 C 
HETATM   18  O   UNK N   1      26.270  25.610  -3.240  0.00  0.00    -0.291 OA
ENDBRANCH   1  16
TORSDOF 1
ENDMDL
MODEL 3
REMARK VINA RESULT:      -6.6     19.735     23.185
REMARK  1 active torsions:
REMARK  status: ('A' for Active; 'I' for Inactive)
REMARK    1  A    between atoms: C_2  and  C_4 
ROOT
HETATM    1  C   UNK N   1      30.311  23.144  -3.311  0.00  0.00     0.122 A 
HETATM    2  O   UNK N   1      28.989  23.180  -3.247  0.00  0.00    -0.302 OA
HETATM    3  C   UNK N   1      28.606  24.405  -3.522  0.00  0.00     0.141 A 
HETATM    4  C   UNK N   1      27.238  24.950  -3.579  0.00  0.00     0.217 A 
HETATM    5  O   UNK N   1      26.271  24.240  -3.354  0.00  0.00    -0.284 OA
HETATM    6  C   UNK N   1      27.079  26.397  -3.920  0.00  0.00     0.031 A 
HETATM    7  C   UNK N   1      25.807  26.980  -3.991  0.00  0.00     0.016 A 
HETATM    8  C   UNK N   1      25.668  28.334  -4.311  0.00  0.00     0.001 A 
HETATM    9  C   UNK N   1      26.797  29.118  -4.563  0.00  0.00     0.001 A 
HETATM   10  C   UNK N   1      28.071  28.553  -4.496  0.00  0.00     0.016 A 
HETATM   11  C   UNK N   1      28.227  27.199  -4.177  0.00  0.00     0.029 A 
HETATM   12  C   UNK N   1      29.586  26.604  -4.108  0.00  0.00     0.196 A 
HETATM   13  O   UNK N   1      30.585  27.271  -4.324  0.00  0.00    -0.287 OA
HETATM   14  C   UNK N   1      29.696  25.185  -3.770  0.00  0.00     0.056 A 
HETATM   15  C   UNK N   1      30.813  24.395  -3.641  0.00  0.00     0.059 A 
ENDROOT
BRANCH   1  16
HETATM   16  C   UNK N   1      31.135  21.951  -3.067  0.00  0.00     0.179 C 
HETATM   17  C   UNK N   1      30.992  20.747  -3.943  0.00  0.00     0.099 C 
HETATM   18  O   UNK N   1      31.939  21.936  -2.151  0.00  0.00    -0.291 OA
ENDBRANCH   1  16
TORSDOF 1
ENDMDL
MODEL 4
REMARK VINA RESULT:      -6.4      2.689      7.636
REMARK  1 active torsions:
REMARK  status: ('A' for Active; 'I' for Inactive)
REMARK    1  A    between atoms: C_2  and  C_4 
ROOT
HETATM    1  C   UNK N   1      35.157  14.039  12.277  0.00  0.00     0.122 A 
HETATM    2  O   UNK N   1      34.381  13.516  11.342  0.00  0.00    -0.302 OA
HETATM    3  C   UNK N   1      34.238  14.410  10.391  0.00  0.00     0.141 A 
HETATM    4  C   UNK N   1      33.468  14.306   9.139  0.00  0.00     0.217 A 
HETATM    5  O   UNK N   1      32.850  13.289   8.866  0.00  0.00    -0.284 OA
HETATM    6  C   UNK N   1      33.473  15.486   8.219  0.00  0.00     0.031 A 
HETATM    7  C   UNK N   1      32.763  15.454   7.012  0.00  0.00     0.016 A 
HETATM    8  C   UNK N   1      32.773  16.562   6.158  0.00  0.00     0.001 A 
HETATM    9  C   UNK N   1      33.492  17.710   6.502  0.00  0.00     0.001 A 
HETATM   10  C   UNK N   1      34.204  17.757   7.701  0.00  0.00     0.016 A 
HETATM   11  C   UNK N   1      34.205  16.657   8.566  0.00  0.00     0.029 A 
HETATM   12  C   UNK N   1      34.965  16.714   9.841  0.00  0.00     0.196 A 
HETATM   13  O   UNK N   1      35.599  17.706  10.160  0.00  0.00    -0.287 OA
HETATM   14  C   UNK N   1      34.933  15.538  10.711  0.00  0.00     0.056 A 
HETATM   15  C   UNK N   1      35.538  15.326  11.926  0.00  0.00     0.059 A 
ENDROOT
BRANCH   1  16
HETATM   16  C   UNK N   1      35.562  13.357  13.516  0.00  0.00     0.179 C 
HETATM   17  C   UNK N   1      36.885  12.666  13.595  0.00  0.00     0.099 C 
HETATM   18  O   UNK N   1      34.822  13.351  14.484  0.00  0.00    -0.291 OA
ENDBRANCH   1  16
TORSDOF 1
ENDMDL
MODEL 5
REMARK VINA RESULT:      -6.4     19.612     22.904
REMARK  1 active torsions:
REMARK  status: ('A' for Active; 'I' for Inactive)
REMARK    1  A    between atoms: C_2  and  C_4 
ROOT
HETATM    1  C   UNK N   1      30.515  22.881  -3.329  0.00  0.00     0.122 A 
HETATM    2  O   UNK N   1      30.882  24.066  -3.790  0.00  0.00    -0.302 OA
HETATM    3  C   UNK N   1      29.810  24.821  -3.857  0.00  0.00     0.141 A 
HETATM    4  C   UNK N   1      29.697  26.221  -4.306  0.00  0.00     0.217 A 
HETATM    5  O   UNK N   1      30.680  26.838  -4.684  0.00  0.00    -0.284 OA
HETATM    6  C   UNK N   1      28.341  26.852  -4.281  0.00  0.00     0.031 A 
HETATM    7  C   UNK N   1      28.163  28.179  -4.695  0.00  0.00     0.016 A 
HETATM    8  C   UNK N   1      26.892  28.761  -4.668  0.00  0.00     0.001 A 
HETATM    9  C   UNK N   1      25.788  28.024  -4.229  0.00  0.00     0.001 A 
HETATM   10  C   UNK N   1      25.949  26.701  -3.814  0.00  0.00     0.016 A 
HETATM   11  C   UNK N   1      27.215  26.104  -3.834  0.00  0.00     0.029 A 
HETATM   12  C   UNK N   1      27.380  24.696  -3.391  0.00  0.00     0.196 A 
HETATM   13  O   UNK N   1      26.430  24.035  -3.005  0.00  0.00    -0.287 OA
HETATM   14  C   UNK N   1      28.723  24.118  -3.432  0.00  0.00     0.056 A 
HETATM   15  C   UNK N   1      29.150  22.859  -3.084  0.00  0.00     0.059 A 
ENDROOT
BRANCH   1  16
HETATM   16  C   UNK N   1      31.423  21.745  -3.107  0.00  0.00     0.179 C 
HETATM   17  C   UNK N   1      31.436  20.596  -4.062  0.00  0.00     0.099 C 
HETATM   18  O   UNK N   1      32.168  21.734  -2.143  0.00  0.00    -0.291 OA
ENDBRANCH   1  16
TORSDOF 1
ENDMDL
MODEL 6
REMARK VINA RESULT:      -6.3     14.126     15.255
REMARK  1 active torsions:
REMARK  status: ('A' for Active; 'I' for Inactive)
REMARK    1  A    between atoms: C_2  and  C_4 
ROOT
HETATM    1  C   UNK N   1      21.114  16.500   6.112  0.00  0.00     0.122 A 
HETATM    2  O   UNK N   1      22.245  15.838   6.290  0.00  0.00    -0.302 OA
HETATM    3  C   UNK N   1      22.094  15.058   7.336  0.00  0.00     0.141 A 
HETATM    4  C   UNK N   1      23.065  14.127   7.937  0.00  0.00     0.217 A 
HETATM    5  O   UNK N   1      24.184  13.998   7.465  0.00  0.00    -0.284 OA
HETATM    6  C   UNK N   1      22.632  13.350   9.139  0.00  0.00     0.031 A 
HETATM    7  C   UNK N   1      23.505  12.447   9.760  0.00  0.00     0.016 A 
HETATM    8  C   UNK N   1      23.092  11.724  10.883  0.00  0.00     0.001 A 
HETATM    9  C   UNK N   1      21.803  11.897  11.397  0.00  0.00     0.001 A 
HETATM   10  C   UNK N   1      20.921  12.792  10.791  0.00  0.00     0.016 A 
HETATM   11  C   UNK N   1      21.320  13.523   9.665  0.00  0.00     0.029 A 
HETATM   12  C   UNK N   1      20.377  14.474   9.024  0.00  0.00     0.196 A 
HETATM   13  O   UNK N   1      19.248  14.640   9.457  0.00  0.00    -0.287 OA
HETATM   14  C   UNK N   1      20.842  15.214   7.850  0.00  0.00     0.056 A 
HETATM   15  C   UNK N   1      20.184  16.141   7.078  0.00  0.00     0.059 A 
ENDROOT
BRANCH   1  16
HETATM   16  C   UNK N   1      20.870  17.480   5.042  0.00  0.00     0.179 C 
HETATM   17  C   UNK N   1      20.017  17.115   3.869  0.00  0.00     0.099 C 
HETATM   18  O   UNK N   1      21.361  18.594   5.105  0.00  0.00    -0.291 OA
ENDBRANCH   1  16
TORSDOF 1
ENDMDL
MODEL 7
REMARK VINA RESULT:      -6.3      7.101     10.912
REMARK  1 active torsions:
REMARK  status: ('A' for Active; 'I' for Inactive)
REMARK    1  A    between atoms: C_2  and  C_4 
ROOT
HETATM    1  C   UNK N   1      33.418  17.702   7.608  0.00  0.00     0.122 A 
HETATM    2  O   UNK N   1      32.158  17.557   7.985  0.00  0.00    -0.302 OA
HETATM    3  C   UNK N   1      31.449  17.273   6.917  0.00  0.00     0.141 A 
HETATM    4  C   UNK N   1      30.001  17.021   6.815  0.00  0.00     0.217 A 
HETATM    5  O   UNK N   1      29.287  17.061   7.804  0.00  0.00    -0.284 OA
HETATM    6  C   UNK N   1      29.441  16.717   5.461  0.00  0.00     0.031 A 
HETATM    7  C   UNK N   1      28.072  16.468   5.293  0.00  0.00     0.016 A 
HETATM    8  C   UNK N   1      27.558  16.185   4.024  0.00  0.00     0.001 A 
HETATM    9  C   UNK N   1      28.404  16.148   2.912  0.00  0.00     0.001 A 
HETATM   10  C   UNK N   1      29.770  16.394   3.063  0.00  0.00     0.016 A 
HETATM   11  C   UNK N   1      30.301  16.679   4.326  0.00  0.00     0.029 A 
HETATM   12  C   UNK N   1      31.754  16.940   4.481  0.00  0.00     0.196 A 
HETATM   13  O   UNK N   1      32.511  16.913   3.524  0.00  0.00    -0.287 OA
HETATM   14  C   UNK N   1      32.260  17.233   5.822  0.00  0.00     0.056 A 
HETATM   15  C   UNK N   1      33.540  17.507   6.239  0.00  0.00     0.059 A 
ENDROOT
BRANCH   1  16
HETATM   16  C   UNK N   1      34.536  18.026   8.508  0.00  0.00     0.179 C 
HETATM   17  C   UNK N   1      34.937  17.067   9.582  0.00  0.00     0.099 C 
HETATM   18  O   UNK N   1      35.141  19.076   8.383  0.00  0.00    -0.291 OA
ENDBRANCH   1  16
TORSDOF 1
ENDMDL
MODEL 8
REMARK VINA RESULT:      -6.3      2.742      7.027
REMARK  1 active torsions:
REMARK  status: ('A' for Active; 'I' for Inactive)
REMARK    1  A    between atoms: C_2  and  C_4 
ROOT
HETATM    1  C   UNK N   1      35.785  14.214  12.558  0.00  0.00     0.122 A 
HETATM    2  O   UNK N   1      35.993  15.448  12.127  0.00  0.00    -0.302 OA
HETATM    3  C   UNK N   1      35.333  15.598  11.002  0.00  0.00     0.141 A 
HETATM    4  C   UNK N   1      35.247  16.789  10.138  0.00  0.00     0.217 A 
HETATM    5  O   UNK N   1      35.835  17.818  10.429  0.00  0.00    -0.284 OA
HETATM    6  C   UNK N   1      34.416  16.690   8.898  0.00  0.00     0.031 A 
HETATM    7  C   UNK N   1      34.292  17.784   8.032  0.00  0.00     0.016 A 
HETATM    8  C   UNK N   1      33.513  17.683   6.875  0.00  0.00     0.001 A 
HETATM    9  C   UNK N   1      32.852  16.489   6.572  0.00  0.00     0.001 A 
HETATM   10  C   UNK N   1      32.966  15.390   7.424  0.00  0.00     0.016 A 
HETATM   11  C   UNK N   1      33.742  15.475   8.586  0.00  0.00     0.029 A 
HETATM   12  C   UNK N   1      33.860  14.302   9.490  0.00  0.00     0.196 A 
HETATM   13  O   UNK N   1      33.291  13.250   9.244  0.00  0.00    -0.287 OA
HETATM   14  C   UNK N   1      34.682  14.442  10.691  0.00  0.00     0.056 A 
HETATM   15  C   UNK N   1      34.956  13.528  11.681  0.00  0.00     0.059 A 
ENDROOT
BRANCH   1  16
HETATM   16  C   UNK N   1      36.349  13.645  13.791  0.00  0.00     0.179 C 
HETATM   17  C   UNK N   1      36.784  14.544  14.903  0.00  0.00     0.099 C 
HETATM   18  O   UNK N   1      36.466  12.438  13.913  0.00  0.00    -0.291 OA
ENDBRANCH   1  16
TORSDOF 1
ENDMDL
MODEL 9
REMARK VINA RESULT:      -6.2      7.198     10.950
REMARK  1 active torsions:
REMARK  status: ('A' for Active; 'I' for Inactive)
REMARK    1  A    between atoms: C_2  and  C_4 
ROOT
HETATM    1  C   UNK N   1      33.234  17.752   7.708  0.00  0.00     0.122 A 
HETATM    2  O   UNK N   1      33.216  17.589   6.395  0.00  0.00    -0.302 OA
HETATM    3  C   UNK N   1      31.977  17.342   6.037  0.00  0.00     0.141 A 
HETATM    4  C   UNK N   1      31.442  17.090   4.687  0.00  0.00     0.217 A 
HETATM    5  O   UNK N   1      32.175  17.093   3.712  0.00  0.00    -0.284 OA
HETATM    6  C   UNK N   1      29.974  16.833   4.558  0.00  0.00     0.031 A 
HETATM    7  C   UNK N   1      29.399  16.586   3.304  0.00  0.00     0.016 A 
HETATM    8  C   UNK N   1      28.026  16.347   3.192  0.00  0.00     0.001 A 
HETATM    9  C   UNK N   1      27.215  16.351   4.330  0.00  0.00     0.001 A 
HETATM   10  C   UNK N   1      27.771  16.596   5.586  0.00  0.00     0.016 A 
HETATM   11  C   UNK N   1      29.144  16.837   5.715  0.00  0.00     0.029 A 
HETATM   12  C   UNK N   1      29.731  17.096   7.055  0.00  0.00     0.196 A 
HETATM   13  O   UNK N   1      29.040  17.105   8.061  0.00  0.00    -0.287 OA
HETATM   14  C   UNK N   1      31.171  17.343   7.136  0.00  0.00     0.056 A 
HETATM   15  C   UNK N   1      31.957  17.605   8.232  0.00  0.00     0.059 A 
ENDROOT
BRANCH   1  16
HETATM   16  C   UNK N   1      34.435  18.046   8.504  0.00  0.00     0.179 C 
HETATM   17  C   UNK N   1      34.923  17.063   9.519  0.00  0.00     0.099 C 
HETATM   18  O   UNK N   1      35.039  19.092   8.342  0.00  0.00    -0.291 OA
ENDBRANCH   1  16
TORSDOF 1
ENDMDL
