MODEL 1
REMARK VINA RESULT:      -6.1      0.000      0.000
REMARK  5 active torsions:
REMARK  status: ('A' for Active; 'I' for Inactive)
REMARK    1  A    between atoms: C_5  and  C_2 
REMARK    2  A    between atoms: O_19  and  C_2 
REMARK    3  A    between atoms: C_6  and  O_20 
REMARK    4  A    between atoms: N_11  and  C_8 
REMARK    5  A    between atoms: C_10  and  N_18 
ROOT
HETATM    1  C   UNK N   1      29.410  18.258   9.843  0.00  0.00     0.183 A 
HETATM    2  C   UNK N   1      30.994  16.914   5.935  0.00  0.00     0.188 A 
HETATM    3  C   UNK N   1      29.507  17.862   7.149  0.00  0.00     0.122 A 
HETATM    4  C   UNK N   1      28.409  18.510   7.693  0.00  0.00     0.131 A 
HETATM    5  C   UNK N   1      30.498  17.434   7.951  0.00  0.00     0.142 A 
HETATM    6  N   UNK N   1      28.381  18.700   9.046  0.00  0.00    -0.337 N 
ATOM      7  HN  UNK N   1      27.586  19.174   9.471  1.00  0.00     0.168 HD
HETATM    8  N   UNK N   1      30.484  17.612   9.293  0.00  0.00    -0.336 N 
ATOM      9  HN  UNK N   1      31.250  17.276   9.877  1.00  0.00     0.168 HD
HETATM   10  N   UNK N   1      29.788  17.550   5.869  0.00  0.00    -0.346 N 
ATOM     11  HN  UNK N   1      29.227  17.746   5.040  1.00  0.00     0.167 HD
HETATM   12  N   UNK N   1      31.441  16.835   7.216  0.00  0.00    -0.297 N 
ENDROOT
BRANCH  12  13
HETATM   13  C   UNK N   1      32.657  16.212   7.743  0.00  0.00     0.259 C 
HETATM   14  C   UNK N   1      33.905  16.425   6.909  0.00  0.00     0.169 C 
HETATM   15  C   UNK N   1      34.934  15.942   7.892  0.00  0.00     0.070 C 
HETATM   16  C   UNK N   1      34.305  16.307   9.239  0.00  0.00     0.150 C 
HETATM   17  O   UNK N   1      32.970  16.718   9.013  0.00  0.00    -0.356 OA
BRANCH  14  18
HETATM   18  O   UNK N   1      34.117  17.785   6.667  0.00  0.00    -0.391 OA
HETATM   19  H   UNK N   1      34.375  18.536   6.110  0.00  0.00     0.210 HD
ENDBRANCH  14  18
BRANCH  16  20
HETATM   20  C   UNK N   1      34.315  15.084  10.149  0.00  0.00     0.196 C 
BRANCH  20  21
HETATM   21  O   UNK N   1      33.232  15.126  11.028  0.00  0.00    -0.398 OA
HETATM   22  H   UNK N   1      33.226  14.739  11.917  0.00  0.00     0.209 HD
ENDBRANCH  20  21
ENDBRANCH  16  20
ENDBRANCH  12  13
BRANCH   4  23
HETATM   23  N   UNK N   1      27.346  18.958   6.883  0.00  0.00    -0.383 N 
HETATM   24  H   UNK N   1      26.531  19.340   7.281  0.00  0.00     0.157 HD
HETATM   25  H   UNK N   1      27.421  18.888   5.904  0.00  0.00     0.157 HD
ENDBRANCH   4  23
TORSDOF 5
ENDMDL
MODEL 2
REMARK VINA RESULT:      -6.1      4.889      7.853
REMARK  5 active torsions:
REMARK  status: ('A' for Active; 'I' for Inactive)
REMARK    1  A    between atoms: C_5  and  C_2 
REMARK    2  A    between atoms: O_19  and  C_2 
REMARK    3  A    between atoms: C_6  and  O_20 
REMARK    4  A    between atoms: N_11  and  C_8 
REMARK    5  A    between atoms: C_10  and  N_18 
ROOT
HETATM    1  C   UNK N   1      36.771  11.582  10.259  0.00  0.00     0.183 A 
HETATM    2  C   UNK N   1      35.983  15.437  12.286  0.00  0.00     0.188 A 
HETATM    3  C   UNK N   1      36.768  13.445  12.247  0.00  0.00     0.122 A 
HETATM    4  C   UNK N   1      37.346  12.209  12.488  0.00  0.00     0.131 A 
HETATM    5  C   UNK N   1      36.213  13.705  11.050  0.00  0.00     0.142 A 
HETATM    6  N   UNK N   1      37.339  11.289  11.476  0.00  0.00    -0.337 N 
ATOM      7  HN  UNK N   1      37.759  10.373  11.627  1.00  0.00     0.168 HD
HETATM    8  N   UNK N   1      36.195  12.803  10.039  0.00  0.00    -0.336 N 
ATOM      9  HN  UNK N   1      35.766  13.028   9.141  1.00  0.00     0.168 HD
HETATM   10  N   UNK N   1      36.640  14.518  13.052  0.00  0.00    -0.346 N 
ATOM     11  HN  UNK N   1      36.962  14.620  14.014  1.00  0.00     0.167 HD
HETATM   12  N   UNK N   1      35.712  14.945  11.048  0.00  0.00    -0.297 N 
ENDROOT
BRANCH  12  13
HETATM   13  C   UNK N   1      35.000  15.569   9.931  0.00  0.00     0.259 C 
HETATM   14  C   UNK N   1      33.612  15.021   9.664  0.00  0.00     0.169 C 
HETATM   15  C   UNK N   1      33.116  16.077   8.716  0.00  0.00     0.070 C 
HETATM   16  C   UNK N   1      33.847  17.331   9.204  0.00  0.00     0.150 C 
HETATM   17  O   UNK N   1      34.819  16.941  10.155  0.00  0.00    -0.356 OA
BRANCH  14  18
HETATM   18  O   UNK N   1      32.832  15.054  10.823  0.00  0.00    -0.391 OA
HETATM   19  H   UNK N   1      31.987  15.037  11.300  0.00  0.00     0.210 HD
ENDBRANCH  14  18
BRANCH  16  20
HETATM   20  C   UNK N   1      34.532  18.007   8.023  0.00  0.00     0.196 C 
BRANCH  20  21
HETATM   21  O   UNK N   1      35.251  19.124   8.454  0.00  0.00    -0.398 OA
HETATM   22  H   UNK N   1      35.327  19.956   7.964  0.00  0.00     0.209 HD
ENDBRANCH  20  21
ENDBRANCH  16  20
ENDBRANCH  12  13
BRANCH   4  23
HETATM   23  N   UNK N   1      37.924  11.899  13.736  0.00  0.00    -0.383 N 
HETATM   24  H   UNK N   1      38.211  12.609  14.353  0.00  0.00     0.157 HD
HETATM   25  H   UNK N   1      38.041  10.956  13.993  0.00  0.00     0.157 HD
ENDBRANCH   4  23
TORSDOF 5
ENDMDL
MODEL 3
REMARK VINA RESULT:      -6.0      4.576      7.211
REMARK  5 active torsions:
REMARK  status: ('A' for Active; 'I' for Inactive)
REMARK    1  A    between atoms: C_5  and  C_2 
REMARK    2  A    between atoms: O_19  and  C_2 
REMARK    3  A    between atoms: C_6  and  O_20 
REMARK    4  A    between atoms: N_11  and  C_8 
REMARK    5  A    between atoms: C_10  and  N_18 
ROOT
HETATM    1  C   UNK N   1      36.076  14.934  13.055  0.00  0.00     0.183 A 
HETATM    2  C   UNK N   1      35.966  13.095   9.031  0.00  0.00     0.188 A 
HETATM    3  C   UNK N   1      36.576  13.122  11.083  0.00  0.00     0.122 A 
HETATM    4  C   UNK N   1      37.103  12.901  12.346  0.00  0.00     0.131 A 
HETATM    5  C   UNK N   1      35.838  14.221  10.847  0.00  0.00     0.142 A 
HETATM    6  N   UNK N   1      36.839  13.821  13.322  0.00  0.00    -0.337 N 
ATOM      7  HN  UNK N   1      37.213  13.682  14.259  1.00  0.00     0.168 HD
HETATM    8  N   UNK N   1      35.570  15.143  11.802  0.00  0.00    -0.336 N 
ATOM      9  HN  UNK N   1      35.007  15.968  11.593  1.00  0.00     0.168 HD
HETATM   10  N   UNK N   1      36.677  12.388   9.958  0.00  0.00    -0.346 N 
ATOM     11  HN  UNK N   1      37.171  11.506   9.829  1.00  0.00     0.167 HD
HETATM   12  N   UNK N   1      35.445  14.230   9.569  0.00  0.00    -0.297 N 
ENDROOT
BRANCH  12  13
HETATM   13  C   UNK N   1      34.655  15.286   8.934  0.00  0.00     0.259 C 
HETATM   14  C   UNK N   1      33.152  15.119   9.039  0.00  0.00     0.169 C 
HETATM   15  C   UNK N   1      32.727  16.487   8.583  0.00  0.00     0.070 C 
HETATM   16  C   UNK N   1      33.880  17.371   9.063  0.00  0.00     0.150 C 
HETATM   17  O   UNK N   1      34.929  16.534   9.511  0.00  0.00    -0.356 OA
BRANCH  14  18
HETATM   18  O   UNK N   1      32.761  14.947  10.370  0.00  0.00    -0.391 OA
HETATM   19  H   UNK N   1      32.129  15.012  11.103  0.00  0.00     0.210 HD
ENDBRANCH  14  18
BRANCH  16  20
HETATM   20  C   UNK N   1      34.373  18.231   7.905  0.00  0.00     0.196 C 
BRANCH  20  21
HETATM   21  O   UNK N   1      35.286  19.182   8.363  0.00  0.00    -0.398 OA
HETATM   22  H   UNK N   1      36.225  19.010   8.534  0.00  0.00     0.209 HD
ENDBRANCH  20  21
ENDBRANCH  16  20
ENDBRANCH  12  13
BRANCH   4  23
HETATM   23  N   UNK N   1      37.892  11.767  12.625  0.00  0.00    -0.383 N 
HETATM   24  H   UNK N   1      38.829  11.858  12.911  0.00  0.00     0.157 HD
HETATM   25  H   UNK N   1      37.499  10.869  12.531  0.00  0.00     0.157 HD
ENDBRANCH   4  23
TORSDOF 5
ENDMDL
MODEL 4
REMARK VINA RESULT:      -6.0      8.002     10.989
REMARK  5 active torsions:
REMARK  status: ('A' for Active; 'I' for Inactive)
REMARK    1  A    between atoms: C_5  and  C_2 
REMARK    2  A    between atoms: O_19  and  C_2 
REMARK    3  A    between atoms: C_6  and  O_20 
REMARK    4  A    between atoms: N_11  and  C_8 
REMARK    5  A    between atoms: C_10  and  N_18 
ROOT
HETATM    1  C   UNK N   1      26.384  20.631   2.969  0.00  0.00     0.183 A 
HETATM    2  C   UNK N   1      23.700  17.772   5.021  0.00  0.00     0.188 A 
HETATM    3  C   UNK N   1      25.624  18.643   4.670  0.00  0.00     0.122 A 
HETATM    4  C   UNK N   1      26.958  19.020   4.632  0.00  0.00     0.131 A 
HETATM    5  C   UNK N   1      24.732  19.251   3.868  0.00  0.00     0.142 A 
HETATM    6  N   UNK N   1      27.317  20.021   3.773  0.00  0.00    -0.337 N 
ATOM      7  HN  UNK N   1      28.291  20.319   3.727  1.00  0.00     0.168 HD
HETATM    8  N   UNK N   1      25.073  20.242   3.011  0.00  0.00    -0.336 N 
ATOM      9  HN  UNK N   1      24.374  20.685   2.414  1.00  0.00     0.168 HD
HETATM   10  N   UNK N   1      25.007  17.703   5.412  0.00  0.00    -0.346 N 
ATOM     11  HN  UNK N   1      25.421  17.083   6.107  1.00  0.00     0.167 HD
HETATM   12  N   UNK N   1      23.520  18.723   4.067  0.00  0.00    -0.297 N 
ENDROOT
BRANCH  12  13
HETATM   13  C   UNK N   1      22.302  19.106   3.350  0.00  0.00     0.259 C 
HETATM   14  C   UNK N   1      21.006  18.831   4.087  0.00  0.00     0.169 C 
HETATM   15  C   UNK N   1      20.065  19.617   3.217  0.00  0.00     0.070 C 
HETATM   16  C   UNK N   1      20.951  20.760   2.716  0.00  0.00     0.150 C 
HETATM   17  O   UNK N   1      22.289  20.482   3.080  0.00  0.00    -0.356 OA
BRANCH  14  18
HETATM   18  O   UNK N   1      21.026  19.406   5.361  0.00  0.00    -0.391 OA
HETATM   19  H   UNK N   1      21.468  19.698   6.174  0.00  0.00     0.210 HD
ENDBRANCH  14  18
BRANCH  16  20
HETATM   20  C   UNK N   1      20.844  20.854   1.199  0.00  0.00     0.196 C 
BRANCH  20  21
HETATM   21  O   UNK N   1      20.514  22.155   0.816  0.00  0.00    -0.398 OA
HETATM   22  H   UNK N   1      21.156  22.842   0.583  0.00  0.00     0.209 HD
ENDBRANCH  20  21
ENDBRANCH  16  20
ENDBRANCH  12  13
BRANCH   4  23
HETATM   23  N   UNK N   1      27.922  18.394   5.448  0.00  0.00    -0.383 N 
HETATM   24  H   UNK N   1      27.666  17.952   6.289  0.00  0.00     0.157 HD
HETATM   25  H   UNK N   1      28.867  18.400   5.171  0.00  0.00     0.157 HD
ENDBRANCH   4  23
TORSDOF 5
ENDMDL
MODEL 5
REMARK VINA RESULT:      -5.8      4.008      5.873
REMARK  5 active torsions:
REMARK  status: ('A' for Active; 'I' for Inactive)
REMARK    1  A    between atoms: C_5  and  C_2 
REMARK    2  A    between atoms: O_19  and  C_2 
REMARK    3  A    between atoms: C_6  and  O_20 
REMARK    4  A    between atoms: N_11  and  C_8 
REMARK    5  A    between atoms: C_10  and  N_18 
ROOT
HETATM    1  C   UNK N   1      32.447  14.562   8.730  0.00  0.00     0.183 A 
HETATM    2  C   UNK N   1      35.531  16.206  11.446  0.00  0.00     0.188 A 
HETATM    3  C   UNK N   1      34.173  16.378   9.799  0.00  0.00     0.122 A 
HETATM    4  C   UNK N   1      33.398  16.750   8.711  0.00  0.00     0.131 A 
HETATM    5  C   UNK N   1      34.070  15.136  10.303  0.00  0.00     0.142 A 
HETATM    6  N   UNK N   1      32.537  15.824   8.191  0.00  0.00    -0.337 N 
ATOM      7  HN  UNK N   1      31.955  16.071   7.392  1.00  0.00     0.168 HD
HETATM    8  N   UNK N   1      33.224  14.208   9.798  0.00  0.00    -0.336 N 
ATOM      9  HN  UNK N   1      33.168  13.272  10.201  1.00  0.00     0.168 HD
HETATM   10  N   UNK N   1      35.086  17.081  10.497  0.00  0.00    -0.346 N 
ATOM     11  HN  UNK N   1      35.378  18.047  10.350  1.00  0.00     0.167 HD
HETATM   12  N   UNK N   1      34.911  15.001  11.334  0.00  0.00    -0.297 N 
ENDROOT
BRANCH  12  13
HETATM   13  C   UNK N   1      35.105  13.776  12.114  0.00  0.00     0.259 C 
HETATM   14  C   UNK N   1      36.296  12.933  11.704  0.00  0.00     0.169 C 
HETATM   15  C   UNK N   1      36.342  11.997  12.879  0.00  0.00     0.070 C 
HETATM   16  C   UNK N   1      35.817  12.871  14.020  0.00  0.00     0.150 C 
HETATM   17  O   UNK N   1      35.310  14.071  13.469  0.00  0.00    -0.356 OA
BRANCH  14  18
HETATM   18  O   UNK N   1      37.467  13.696  11.690  0.00  0.00    -0.391 OA
HETATM   19  H   UNK N   1      38.095  14.326  12.076  0.00  0.00     0.210 HD
ENDBRANCH  14  18
BRANCH  16  20
HETATM   20  C   UNK N   1      34.700  12.133  14.748  0.00  0.00     0.196 C 
BRANCH  20  21
HETATM   21  O   UNK N   1      34.094  12.973  15.684  0.00  0.00    -0.398 OA
HETATM   22  H   UNK N   1      33.256  12.787  16.134  0.00  0.00     0.209 HD
ENDBRANCH  20  21
ENDBRANCH  16  20
ENDBRANCH  12  13
BRANCH   4  23
HETATM   23  N   UNK N   1      33.491  18.039   8.149  0.00  0.00    -0.383 N 
HETATM   24  H   UNK N   1      33.094  18.819   8.598  0.00  0.00     0.157 HD
HETATM   25  H   UNK N   1      33.961  18.159   7.292  0.00  0.00     0.157 HD
ENDBRANCH   4  23
TORSDOF 5
ENDMDL
MODEL 6
REMARK VINA RESULT:      -5.7      2.217      3.579
REMARK  5 active torsions:
REMARK  status: ('A' for Active; 'I' for Inactive)
REMARK    1  A    between atoms: C_5  and  C_2 
REMARK    2  A    between atoms: O_19  and  C_2 
REMARK    3  A    between atoms: C_6  and  O_20 
REMARK    4  A    between atoms: N_11  and  C_8 
REMARK    5  A    between atoms: C_10  and  N_18 
ROOT
HETATM    1  C   UNK N   1      31.180  17.043   8.600  0.00  0.00     0.183 A 
HETATM    2  C   UNK N   1      35.018  15.560   6.971  0.00  0.00     0.188 A 
HETATM    3  C   UNK N   1      33.086  16.455   6.745  0.00  0.00     0.122 A 
HETATM    4  C   UNK N   1      31.900  17.037   6.326  0.00  0.00     0.131 A 
HETATM    5  C   UNK N   1      33.277  16.183   8.048  0.00  0.00     0.142 A 
HETATM    6  N   UNK N   1      30.957  17.326   7.273  0.00  0.00    -0.337 N 
ATOM      7  HN  UNK N   1      30.077  17.756   6.992  1.00  0.00     0.168 HD
HETATM    8  N   UNK N   1      32.351  16.461   8.997  0.00  0.00    -0.336 N 
ATOM      9  HN  UNK N   1      32.524  16.242   9.979  1.00  0.00     0.168 HD
HETATM   10  N   UNK N   1      34.167  16.075   6.036  0.00  0.00    -0.346 N 
ATOM     11  HN  UNK N   1      34.315  16.154   5.030  1.00  0.00     0.167 HD
HETATM   12  N   UNK N   1      34.478  15.621   8.217  0.00  0.00    -0.297 N 
ENDROOT
BRANCH  12  13
HETATM   13  C   UNK N   1      35.022  15.155   9.494  0.00  0.00     0.259 C 
HETATM   14  C   UNK N   1      35.702  16.219  10.332  0.00  0.00     0.169 C 
HETATM   15  C   UNK N   1      35.825  15.463  11.625  0.00  0.00     0.070 C 
HETATM   16  C   UNK N   1      34.596  14.552  11.595  0.00  0.00     0.150 C 
HETATM   17  O   UNK N   1      34.010  14.633  10.311  0.00  0.00    -0.356 OA
BRANCH  14  18
HETATM   18  O   UNK N   1      34.856  17.314  10.530  0.00  0.00    -0.391 OA
HETATM   19  H   UNK N   1      34.423  18.137  10.252  0.00  0.00     0.210 HD
ENDBRANCH  14  18
BRANCH  16  20
HETATM   20  C   UNK N   1      35.026  13.116  11.870  0.00  0.00     0.196 C 
BRANCH  20  21
HETATM   21  O   UNK N   1      34.423  12.645  13.039  0.00  0.00    -0.398 OA
HETATM   22  H   UNK N   1      33.652  12.060  13.066  0.00  0.00     0.209 HD
ENDBRANCH  20  21
ENDBRANCH  16  20
ENDBRANCH  12  13
BRANCH   4  23
HETATM   23  N   UNK N   1      31.662  17.323   4.966  0.00  0.00    -0.383 N 
HETATM   24  H   UNK N   1      31.034  18.031   4.699  0.00  0.00     0.157 HD
HETATM   25  H   UNK N   1      32.132  16.804   4.274  0.00  0.00     0.157 HD
ENDBRANCH   4  23
TORSDOF 5
ENDMDL
MODEL 7
REMARK VINA RESULT:      -5.7      9.356     11.319
REMARK  5 active torsions:
REMARK  status: ('A' for Active; 'I' for Inactive)
REMARK    1  A    between atoms: C_5  and  C_2 
REMARK    2  A    between atoms: O_19  and  C_2 
REMARK    3  A    between atoms: C_6  and  O_20 
REMARK    4  A    between atoms: N_11  and  C_8 
REMARK    5  A    between atoms: C_10  and  N_18 
ROOT
HETATM    1  C   UNK N   1      24.697  12.922   9.874  0.00  0.00     0.183 A 
HETATM    2  C   UNK N   1      20.408  13.989   9.634  0.00  0.00     0.188 A 
HETATM    3  C   UNK N   1      22.055  12.962  10.538  0.00  0.00     0.122 A 
HETATM    4  C   UNK N   1      22.925  12.195  11.297  0.00  0.00     0.131 A 
HETATM    5  C   UNK N   1      22.518  13.663   9.488  0.00  0.00     0.142 A 
HETATM    6  N   UNK N   1      24.247  12.191  10.948  0.00  0.00    -0.337 N 
ATOM      7  HN  UNK N   1      24.909  11.637  11.490  1.00  0.00     0.168 HD
HETATM    8  N   UNK N   1      23.824  13.667   9.129  0.00  0.00    -0.336 N 
ATOM      9  HN  UNK N   1      24.147  14.209   8.327  1.00  0.00     0.168 HD
HETATM   10  N   UNK N   1      20.725  13.145  10.659  0.00  0.00    -0.346 N 
ATOM     11  HN  UNK N   1      20.100  12.745  11.358  1.00  0.00     0.167 HD
HETATM   12  N   UNK N   1      21.507  14.315   8.904  0.00  0.00    -0.297 N 
ENDROOT
BRANCH  12  13
HETATM   13  C   UNK N   1      21.619  15.154   7.709  0.00  0.00     0.259 C 
HETATM   14  C   UNK N   1      21.513  14.415   6.390  0.00  0.00     0.169 C 
HETATM   15  C   UNK N   1      21.354  15.592   5.469  0.00  0.00     0.070 C 
HETATM   16  C   UNK N   1      20.618  16.606   6.348  0.00  0.00     0.150 C 
HETATM   17  O   UNK N   1      20.601  16.117   7.676  0.00  0.00    -0.356 OA
BRANCH  14  18
HETATM   18  O   UNK N   1      20.347  13.645   6.341  0.00  0.00    -0.391 OA
HETATM   19  H   UNK N   1      19.691  13.093   5.888  0.00  0.00     0.210 HD
ENDBRANCH  14  18
BRANCH  16  20
HETATM   20  C   UNK N   1      21.353  17.940   6.305  0.00  0.00     0.196 C 
BRANCH  20  21
HETATM   21  O   UNK N   1      20.854  18.799   7.286  0.00  0.00    -0.398 OA
HETATM   22  H   UNK N   1      19.914  18.933   7.478  0.00  0.00     0.209 HD
ENDBRANCH  20  21
ENDBRANCH  16  20
ENDBRANCH  12  13
BRANCH   4  23
HETATM   23  N   UNK N   1      22.471  11.436  12.394  0.00  0.00    -0.383 N 
HETATM   24  H   UNK N   1      22.122  10.525  12.271  0.00  0.00     0.157 HD
HETATM   25  H   UNK N   1      22.503  11.826  13.298  0.00  0.00     0.157 HD
ENDBRANCH   4  23
TORSDOF 5
ENDMDL
MODEL 8
REMARK VINA RESULT:      -5.5      4.506      6.417
REMARK  5 active torsions:
REMARK  status: ('A' for Active; 'I' for Inactive)
REMARK    1  A    between atoms: C_5  and  C_2 
REMARK    2  A    between atoms: O_19  and  C_2 
REMARK    3  A    between atoms: C_6  and  O_20 
REMARK    4  A    between atoms: N_11  and  C_8 
REMARK    5  A    between atoms: C_10  and  N_18 
ROOT
HETATM    1  C   UNK N   1      35.270  16.901  10.969  0.00  0.00     0.183 A 
HETATM    2  C   UNK N   1      34.194  12.705  10.061  0.00  0.00     0.188 A 
HETATM    3  C   UNK N   1      34.249  14.791   9.581  0.00  0.00     0.122 A 
HETATM    4  C   UNK N   1      34.146  16.062   9.039  0.00  0.00     0.131 A 
HETATM    5  C   UNK N   1      34.839  14.616  10.777  0.00  0.00     0.142 A 
HETATM    6  N   UNK N   1      34.667  17.107   9.751  0.00  0.00    -0.337 N 
ATOM      7  HN  UNK N   1      34.606  18.052   9.374  1.00  0.00     0.168 HD
HETATM    8  N   UNK N   1      35.357  15.641  11.495  0.00  0.00    -0.336 N 
ATOM      9  HN  UNK N   1      35.798  15.479  12.400  1.00  0.00     0.168 HD
HETATM   10  N   UNK N   1      33.831  13.604   9.100  0.00  0.00    -0.346 N 
ATOM     11  HN  UNK N   1      33.352  13.419   8.219  1.00  0.00     0.167 HD
HETATM   12  N   UNK N   1      34.816  13.320  11.102  0.00  0.00    -0.297 N 
ENDROOT
BRANCH  12  13
HETATM   13  C   UNK N   1      35.333  12.750  12.348  0.00  0.00     0.259 C 
HETATM   14  C   UNK N   1      36.816  12.432  12.345  0.00  0.00     0.169 C 
HETATM   15  C   UNK N   1      37.012  12.192  13.816  0.00  0.00     0.070 C 
HETATM   16  C   UNK N   1      35.978  13.129  14.446  0.00  0.00     0.150 C 
HETATM   17  O   UNK N   1      35.148  13.635  13.419  0.00  0.00    -0.356 OA
BRANCH  14  18
HETATM   18  O   UNK N   1      37.565  13.550  11.968  0.00  0.00    -0.391 OA
HETATM   19  H   UNK N   1      38.360  13.984  11.620  0.00  0.00     0.210 HD
ENDBRANCH  14  18
BRANCH  16  20
HETATM   20  C   UNK N   1      35.134  12.349  15.447  0.00  0.00     0.196 C 
BRANCH  20  21
HETATM   21  O   UNK N   1      33.995  13.079  15.792  0.00  0.00    -0.398 OA
HETATM   22  H   UNK N   1      33.660  13.187  16.695  0.00  0.00     0.209 HD
ENDBRANCH  20  21
ENDBRANCH  16  20
ENDBRANCH  12  13
BRANCH   4  23
HETATM   23  N   UNK N   1      33.522  16.283   7.794  0.00  0.00    -0.383 N 
HETATM   24  H   UNK N   1      33.949  15.998   6.955  0.00  0.00     0.157 HD
HETATM   25  H   UNK N   1      32.645  16.728   7.766  0.00  0.00     0.157 HD
ENDBRANCH   4  23
TORSDOF 5
ENDMDL
MODEL 9
REMARK VINA RESULT:      -5.5     10.321     11.539
REMARK  5 active torsions:
REMARK  status: ('A' for Active; 'I' for Inactive)
REMARK    1  A    between atoms: C_5  and  C_2 
REMARK    2  A    between atoms: O_19  and  C_2 
REMARK    3  A    between atoms: C_6  and  O_20 
REMARK    4  A    between atoms: N_11  and  C_8 
REMARK    5  A    between atoms: C_10  and  N_18 
ROOT
HETATM    1  C   UNK N   1      22.820  19.971   3.241  0.00  0.00     0.183 A 
HETATM    2  C   UNK N   1      19.164  17.487   3.001  0.00  0.00     0.188 A 
HETATM    3  C   UNK N   1      20.403  19.100   2.333  0.00  0.00     0.122 A 
HETATM    4  C   UNK N   1      20.998  20.190   1.716  0.00  0.00     0.131 A 
HETATM    5  C   UNK N   1      21.016  18.497   3.367  0.00  0.00     0.142 A 
HETATM    6  N   UNK N   1      22.212  20.609   2.186  0.00  0.00    -0.337 N 
ATOM      7  HN  UNK N   1      22.672  21.407   1.750  1.00  0.00     0.168 HD
HETATM    8  N   UNK N   1      22.216  18.903   3.845  0.00  0.00    -0.336 N 
ATOM      9  HN  UNK N   1      22.657  18.426   4.632  1.00  0.00     0.168 HD
HETATM   10  N   UNK N   1      19.231  18.488   2.075  0.00  0.00    -0.346 N 
ATOM     11  HN  UNK N   1      18.550  18.719   1.352  1.00  0.00     0.167 HD
HETATM   12  N   UNK N   1      20.261  17.485   3.806  0.00  0.00    -0.297 N 
ENDROOT
BRANCH  12  13
HETATM   13  C   UNK N   1      20.583  16.618   4.941  0.00  0.00     0.259 C 
HETATM   14  C   UNK N   1      21.506  15.458   4.625  0.00  0.00     0.169 C 
HETATM   15  C   UNK N   1      21.839  15.029   6.027  0.00  0.00     0.070 C 
HETATM   16  C   UNK N   1      21.777  16.348   6.802  0.00  0.00     0.150 C 
HETATM   17  O   UNK N   1      21.230  17.339   5.955  0.00  0.00    -0.356 OA
BRANCH  14  18
HETATM   18  O   UNK N   1      22.675  15.906   4.003  0.00  0.00    -0.391 OA
HETATM   19  H   UNK N   1      23.638  16.002   3.933  0.00  0.00     0.210 HD
ENDBRANCH  14  18
BRANCH  16  20
HETATM   20  C   UNK N   1      20.887  16.173   8.026  0.00  0.00     0.196 C 
BRANCH  20  21
HETATM   21  O   UNK N   1      20.495  17.418   8.521  0.00  0.00    -0.398 OA
HETATM   22  H   UNK N   1      20.273  17.600   9.446  0.00  0.00     0.209 HD
ENDBRANCH  20  21
ENDBRANCH  16  20
ENDBRANCH  12  13
BRANCH   4  23
HETATM   23  N   UNK N   1      20.377  20.854   0.639  0.00  0.00    -0.383 N 
HETATM   24  H   UNK N   1      19.397  20.895   0.565  0.00  0.00     0.157 HD
HETATM   25  H   UNK N   1      20.934  21.284  -0.049  0.00  0.00     0.157 HD
ENDBRANCH   4  23
TORSDOF 5
ENDMDL
