MODEL 1
REMARK VINA RESULT:      -6.6      0.000      0.000
REMARK  4 active torsions:
REMARK  status: ('A' for Active; 'I' for Inactive)
REMARK       I    between atoms: C_2  and  N_4 
REMARK    1  A    between atoms: N_4  and  C_5 
REMARK    2  A    between atoms: C_8  and  C_11 
REMARK       I    between atoms: C_11  and  N_13 
REMARK    3  A    between atoms: N_13  and  C_14 
REMARK    4  A    between atoms: C_19  and  N_20 
ROOT
HETATM    1  C   UNK N   1      34.432  16.779   7.424  0.00  0.00     0.256 C 
HETATM    2  O   UNK N   1      34.622  17.961   7.174  0.00  0.00    -0.267 OA
HETATM    3  N   UNK N   1      33.771  15.972   6.552  0.00  0.00    -0.321 N 
HETATM    4  H   UNK N   1      33.798  15.010   6.755  0.00  0.00     0.169 HD
ENDROOT
BRANCH   1   5
HETATM    5  C   UNK N   1      34.916  16.214   8.699  0.00  0.00     0.032 A 
HETATM    6  C   UNK N   1      34.889  16.994   9.865  0.00  0.00     0.019 A 
HETATM    7  C   UNK N   1      35.409  16.498  11.060  0.00  0.00     0.030 A 
HETATM    8  C   UNK N   1      35.992  15.230  11.104  0.00  0.00     0.034 A 
HETATM    9  C   UNK N   1      36.007  14.439   9.942  0.00  0.00     0.030 A 
HETATM   10  C   UNK N   1      35.467  14.926   8.749  0.00  0.00     0.019 A 
BRANCH   8  11
HETATM   11  N   UNK N   1      36.548  14.773  12.333  0.00  0.00    -0.328 N 
HETATM   12  C   UNK N   1      35.875  14.073  13.284  0.00  0.00     0.218 C 
HETATM   13  C   UNK N   1      36.565  13.720  14.555  0.00  0.00     0.117 C 
HETATM   14  O   UNK N   1      34.731  13.689  13.097  0.00  0.00    -0.274 OA
HETATM   15  H   UNK N   1      37.493  14.982  12.508  0.00  0.00     0.169 HD
ENDBRANCH   8  11
ENDBRANCH   1   5
BRANCH   3  16
HETATM   16  C   UNK N   1      33.045  16.337   5.379  0.00  0.00     0.061 A 
HETATM   17  C   UNK N   1      33.624  16.025   4.142  0.00  0.00     0.032 A 
HETATM   18  C   UNK N   1      32.955  16.291   2.947  0.00  0.00     0.002 A 
HETATM   19  C   UNK N   1      31.684  16.863   2.972  0.00  0.00     0.002 A 
HETATM   20  C   UNK N   1      31.078  17.157   4.192  0.00  0.00     0.031 A 
HETATM   21  C   UNK N   1      31.738  16.900   5.398  0.00  0.00     0.052 A 
BRANCH  21  22
HETATM   22  N   UNK N   1      31.048  17.147   6.600  0.00  0.00    -0.397 N 
HETATM   23  H   UNK N   1      30.922  16.424   7.257  0.00  0.00     0.156 HD
HETATM   24  H   UNK N   1      30.690  18.046   6.785  0.00  0.00     0.156 HD
ENDBRANCH  21  22
ENDBRANCH   3  16
TORSDOF 4
ENDMDL
MODEL 2
REMARK VINA RESULT:      -6.6     13.493     16.508
REMARK  4 active torsions:
REMARK  status: ('A' for Active; 'I' for Inactive)
REMARK       I    between atoms: C_2  and  N_4 
REMARK    1  A    between atoms: N_4  and  C_5 
REMARK    2  A    between atoms: C_8  and  C_11 
REMARK       I    between atoms: C_11  and  N_13 
REMARK    3  A    between atoms: N_13  and  C_14 
REMARK    4  A    between atoms: C_19  and  N_20 
ROOT
HETATM    1  C   UNK N   1      28.511  23.898  -5.438  0.00  0.00     0.256 C 
HETATM    2  O   UNK N   1      28.820  24.628  -6.369  0.00  0.00    -0.267 OA
HETATM    3  N   UNK N   1      27.405  24.146  -4.687  0.00  0.00    -0.321 N 
HETATM    4  H   UNK N   1      27.142  23.431  -4.064  0.00  0.00     0.169 HD
ENDROOT
BRANCH   1   5
HETATM    5  C   UNK N   1      29.355  22.732  -5.111  0.00  0.00     0.032 A 
HETATM    6  C   UNK N   1      29.943  22.629  -3.841  0.00  0.00     0.019 A 
HETATM    7  C   UNK N   1      30.799  21.570  -3.542  0.00  0.00     0.030 A 
HETATM    8  C   UNK N   1      31.108  20.615  -4.514  0.00  0.00     0.034 A 
HETATM    9  C   UNK N   1      30.509  20.707  -5.782  0.00  0.00     0.030 A 
HETATM   10  C   UNK N   1      29.634  21.756  -6.077  0.00  0.00     0.019 A 
BRANCH   8  11
HETATM   11  N   UNK N   1      32.017  19.571  -4.184  0.00  0.00    -0.328 N 
HETATM   12  C   UNK N   1      33.347  19.573  -4.463  0.00  0.00     0.218 C 
HETATM   13  C   UNK N   1      34.167  18.379  -4.120  0.00  0.00     0.117 C 
HETATM   14  O   UNK N   1      33.891  20.553  -4.948  0.00  0.00    -0.274 OA
HETATM   15  H   UNK N   1      31.654  18.785  -3.717  0.00  0.00     0.169 HD
ENDBRANCH   8  11
ENDBRANCH   1   5
BRANCH   3  16
HETATM   16  C   UNK N   1      26.573  25.305  -4.684  0.00  0.00     0.061 A 
HETATM   17  C   UNK N   1      26.752  26.223  -3.642  0.00  0.00     0.032 A 
HETATM   18  C   UNK N   1      26.023  27.413  -3.597  0.00  0.00     0.002 A 
HETATM   19  C   UNK N   1      25.110  27.709  -4.607  0.00  0.00     0.002 A 
HETATM   20  C   UNK N   1      24.935  26.822  -5.668  0.00  0.00     0.031 A 
HETATM   21  C   UNK N   1      25.655  25.624  -5.725  0.00  0.00     0.052 A 
BRANCH  21  22
HETATM   22  N   UNK N   1      25.493  24.803  -6.857  0.00  0.00    -0.397 N 
HETATM   23  H   UNK N   1      24.828  24.077  -6.851  0.00  0.00     0.156 HD
HETATM   24  H   UNK N   1      26.047  24.954  -7.657  0.00  0.00     0.156 HD
ENDBRANCH  21  22
ENDBRANCH   3  16
TORSDOF 4
ENDMDL
MODEL 3
REMARK VINA RESULT:      -6.5      4.150      6.199
REMARK  4 active torsions:
REMARK  status: ('A' for Active; 'I' for Inactive)
REMARK       I    between atoms: C_2  and  N_4 
REMARK    1  A    between atoms: N_4  and  C_5 
REMARK    2  A    between atoms: C_8  and  C_11 
REMARK       I    between atoms: C_11  and  N_13 
REMARK    3  A    between atoms: N_13  and  C_14 
REMARK    4  A    between atoms: C_19  and  N_20 
ROOT
HETATM    1  C   UNK N   1      28.912  17.601   5.461  0.00  0.00     0.256 C 
HETATM    2  O   UNK N   1      28.895  16.975   4.410  0.00  0.00    -0.267 OA
HETATM    3  N   UNK N   1      27.935  18.497   5.762  0.00  0.00    -0.321 N 
HETATM    4  H   UNK N   1      27.938  18.838   6.686  0.00  0.00     0.169 HD
ENDROOT
BRANCH   1   5
HETATM    5  C   UNK N   1      30.016  17.393   6.418  0.00  0.00     0.032 A 
HETATM    6  C   UNK N   1      31.176  16.716   6.012  0.00  0.00     0.019 A 
HETATM    7  C   UNK N   1      32.197  16.451   6.925  0.00  0.00     0.030 A 
HETATM    8  C   UNK N   1      32.062  16.826   8.263  0.00  0.00     0.034 A 
HETATM    9  C   UNK N   1      30.908  17.517   8.671  0.00  0.00     0.030 A 
HETATM   10  C   UNK N   1      29.894  17.804   7.752  0.00  0.00     0.019 A 
BRANCH   8  11
HETATM   11  N   UNK N   1      33.107  16.503   9.173  0.00  0.00    -0.328 N 
HETATM   12  C   UNK N   1      34.274  17.188   9.301  0.00  0.00     0.218 C 
HETATM   13  C   UNK N   1      35.311  16.693  10.248  0.00  0.00     0.117 C 
HETATM   14  O   UNK N   1      34.471  18.226   8.687  0.00  0.00    -0.274 OA
HETATM   15  H   UNK N   1      32.975  15.721   9.755  0.00  0.00     0.169 HD
ENDBRANCH   8  11
ENDBRANCH   1   5
BRANCH   3  16
HETATM   16  C   UNK N   1      26.904  19.006   4.918  0.00  0.00     0.061 A 
HETATM   17  C   UNK N   1      27.243  20.047   4.045  0.00  0.00     0.032 A 
HETATM   18  C   UNK N   1      26.312  20.562   3.142  0.00  0.00     0.002 A 
HETATM   19  C   UNK N   1      25.025  20.030   3.089  0.00  0.00     0.002 A 
HETATM   20  C   UNK N   1      24.673  18.976   3.930  0.00  0.00     0.031 A 
HETATM   21  C   UNK N   1      25.594  18.452   4.843  0.00  0.00     0.052 A 
BRANCH  21  22
HETATM   22  N   UNK N   1      25.208  17.339   5.614  0.00  0.00    -0.397 N 
HETATM   23  H   UNK N   1      25.891  16.761   6.025  0.00  0.00     0.156 HD
HETATM   24  H   UNK N   1      24.253  17.138   5.741  0.00  0.00     0.156 HD
ENDBRANCH  21  22
ENDBRANCH   3  16
TORSDOF 4
ENDMDL
MODEL 4
REMARK VINA RESULT:      -6.5      4.917      6.921
REMARK  4 active torsions:
REMARK  status: ('A' for Active; 'I' for Inactive)
REMARK       I    between atoms: C_2  and  N_4 
REMARK    1  A    between atoms: N_4  and  C_5 
REMARK    2  A    between atoms: C_8  and  C_11 
REMARK       I    between atoms: C_11  and  N_13 
REMARK    3  A    between atoms: N_13  and  C_14 
REMARK    4  A    between atoms: C_19  and  N_20 
ROOT
HETATM    1  C   UNK N   1      27.799  19.188   6.475  0.00  0.00     0.256 C 
HETATM    2  O   UNK N   1      27.310  20.152   7.047  0.00  0.00    -0.267 OA
HETATM    3  N   UNK N   1      27.368  18.809   5.242  0.00  0.00    -0.321 N 
HETATM    4  H   UNK N   1      27.916  18.128   4.789  0.00  0.00     0.169 HD
ENDROOT
BRANCH   1   5
HETATM    5  C   UNK N   1      28.869  18.412   7.132  0.00  0.00     0.032 A 
HETATM    6  C   UNK N   1      29.186  18.657   8.476  0.00  0.00     0.019 A 
HETATM    7  C   UNK N   1      30.241  17.981   9.089  0.00  0.00     0.030 A 
HETATM    8  C   UNK N   1      31.016  17.075   8.362  0.00  0.00     0.034 A 
HETATM    9  C   UNK N   1      30.692  16.815   7.019  0.00  0.00     0.030 A 
HETATM   10  C   UNK N   1      29.621  17.475   6.410  0.00  0.00     0.019 A 
BRANCH   8  11
HETATM   11  N   UNK N   1      32.109  16.434   9.011  0.00  0.00    -0.328 N 
HETATM   12  C   UNK N   1      33.401  16.851   8.963  0.00  0.00     0.218 C 
HETATM   13  C   UNK N   1      34.454  16.040   9.634  0.00  0.00     0.117 C 
HETATM   14  O   UNK N   1      33.709  17.900   8.419  0.00  0.00    -0.274 OA
HETATM   15  H   UNK N   1      31.913  15.624   9.534  0.00  0.00     0.169 HD
ENDBRANCH   8  11
ENDBRANCH   1   5
BRANCH   3  16
HETATM   16  C   UNK N   1      26.229  19.270   4.517  0.00  0.00     0.061 A 
HETATM   17  C   UNK N   1      26.442  20.252   3.541  0.00  0.00     0.032 A 
HETATM   18  C   UNK N   1      25.394  20.715   2.745  0.00  0.00     0.002 A 
HETATM   19  C   UNK N   1      24.112  20.189   2.905  0.00  0.00     0.002 A 
HETATM   20  C   UNK N   1      23.883  19.192   3.852  0.00  0.00     0.031 A 
HETATM   21  C   UNK N   1      24.923  18.721   4.660  0.00  0.00     0.052 A 
BRANCH  21  22
HETATM   22  N   UNK N   1      24.650  17.662   5.546  0.00  0.00    -0.397 N 
HETATM   23  H   UNK N   1      25.207  16.850   5.534  0.00  0.00     0.156 HD
HETATM   24  H   UNK N   1      23.900  17.733   6.179  0.00  0.00     0.156 HD
ENDBRANCH  21  22
ENDBRANCH   3  16
TORSDOF 4
ENDMDL
MODEL 5
REMARK VINA RESULT:      -6.3      7.244     11.909
REMARK  4 active torsions:
REMARK  status: ('A' for Active; 'I' for Inactive)
REMARK       I    between atoms: C_2  and  N_4 
REMARK    1  A    between atoms: N_4  and  C_5 
REMARK    2  A    between atoms: C_8  and  C_11 
REMARK       I    between atoms: C_11  and  N_13 
REMARK    3  A    between atoms: N_13  and  C_14 
REMARK    4  A    between atoms: C_19  and  N_20 
ROOT
HETATM    1  C   UNK N   1      26.974  19.245   5.374  0.00  0.00     0.256 C 
HETATM    2  O   UNK N   1      27.842  20.043   5.049  0.00  0.00    -0.267 OA
HETATM    3  N   UNK N   1      27.219  18.275   6.295  0.00  0.00    -0.321 N 
HETATM    4  H   UNK N   1      26.430  17.779   6.613  0.00  0.00     0.169 HD
ENDROOT
BRANCH   1   5
HETATM    5  C   UNK N   1      25.638  19.323   4.751  0.00  0.00     0.032 A 
HETATM    6  C   UNK N   1      24.693  18.315   4.996  0.00  0.00     0.019 A 
HETATM    7  C   UNK N   1      23.453  18.339   4.358  0.00  0.00     0.030 A 
HETATM    8  C   UNK N   1      23.148  19.349   3.442  0.00  0.00     0.034 A 
HETATM    9  C   UNK N   1      24.087  20.368   3.206  0.00  0.00     0.030 A 
HETATM   10  C   UNK N   1      25.322  20.358   3.861  0.00  0.00     0.019 A 
BRANCH   8  11
HETATM   11  N   UNK N   1      21.888  19.318   2.782  0.00  0.00    -0.328 N 
HETATM   12  C   UNK N   1      20.689  19.570   3.370  0.00  0.00     0.218 C 
HETATM   13  C   UNK N   1      19.441  19.432   2.571  0.00  0.00     0.117 C 
HETATM   14  O   UNK N   1      20.619  19.952   4.529  0.00  0.00    -0.274 OA
HETATM   15  H   UNK N   1      21.884  19.095   1.824  0.00  0.00     0.169 HD
ENDBRANCH   8  11
ENDBRANCH   1   5
BRANCH   3  16
HETATM   16  C   UNK N   1      28.468  17.884   6.864  0.00  0.00     0.061 A 
HETATM   17  C   UNK N   1      29.475  17.473   5.982  0.00  0.00     0.032 A 
HETATM   18  C   UNK N   1      30.745  17.132   6.449  0.00  0.00     0.002 A 
HETATM   19  C   UNK N   1      31.032  17.211   7.811  0.00  0.00     0.002 A 
HETATM   20  C   UNK N   1      30.052  17.643   8.703  0.00  0.00     0.031 A 
HETATM   21  C   UNK N   1      28.773  17.984   8.251  0.00  0.00     0.052 A 
BRANCH  21  22
HETATM   22  N   UNK N   1      27.848  18.485   9.186  0.00  0.00    -0.397 N 
HETATM   23  H   UNK N   1      27.025  17.983   9.386  0.00  0.00     0.156 HD
HETATM   24  H   UNK N   1      28.024  19.341   9.641  0.00  0.00     0.156 HD
ENDBRANCH  21  22
ENDBRANCH   3  16
TORSDOF 4
ENDMDL
MODEL 6
REMARK VINA RESULT:      -6.3      1.435      2.190
REMARK  4 active torsions:
REMARK  status: ('A' for Active; 'I' for Inactive)
REMARK       I    between atoms: C_2  and  N_4 
REMARK    1  A    between atoms: N_4  and  C_5 
REMARK    2  A    between atoms: C_8  and  C_11 
REMARK       I    between atoms: C_11  and  N_13 
REMARK    3  A    between atoms: N_13  and  C_14 
REMARK    4  A    between atoms: C_19  and  N_20 
ROOT
HETATM    1  C   UNK N   1      33.792  15.719   8.077  0.00  0.00     0.256 C 
HETATM    2  O   UNK N   1      32.578  15.570   8.115  0.00  0.00    -0.267 OA
HETATM    3  N   UNK N   1      34.415  16.133   6.942  0.00  0.00    -0.321 N 
HETATM    4  H   UNK N   1      35.364  16.377   7.040  0.00  0.00     0.169 HD
ENDROOT
BRANCH   1   5
HETATM    5  C   UNK N   1      34.601  15.436   9.278  0.00  0.00     0.032 A 
HETATM    6  C   UNK N   1      34.951  14.113   9.590  0.00  0.00     0.019 A 
HETATM    7  C   UNK N   1      35.654  13.824  10.759  0.00  0.00     0.030 A 
HETATM    8  C   UNK N   1      35.992  14.844  11.650  0.00  0.00     0.034 A 
HETATM    9  C   UNK N   1      35.657  16.172  11.335  0.00  0.00     0.030 A 
HETATM   10  C   UNK N   1      34.971  16.466  10.153  0.00  0.00     0.019 A 
BRANCH   8  11
HETATM   11  N   UNK N   1      36.675  14.505  12.852  0.00  0.00    -0.328 N 
HETATM   12  C   UNK N   1      36.102  13.935  13.945  0.00  0.00     0.218 C 
HETATM   13  C   UNK N   1      36.927  13.700  15.162  0.00  0.00     0.117 C 
HETATM   14  O   UNK N   1      34.936  13.572  13.932  0.00  0.00    -0.274 OA
HETATM   15  H   UNK N   1      37.638  14.699  12.895  0.00  0.00     0.169 HD
ENDBRANCH   8  11
ENDBRANCH   1   5
BRANCH   3  16
HETATM   16  C   UNK N   1      33.875  16.264   5.627  0.00  0.00     0.061 A 
HETATM   17  C   UNK N   1      33.206  17.456   5.323  0.00  0.00     0.032 A 
HETATM   18  C   UNK N   1      32.701  17.691   4.043  0.00  0.00     0.002 A 
HETATM   19  C   UNK N   1      32.871  16.738   3.041  0.00  0.00     0.002 A 
HETATM   20  C   UNK N   1      33.557  15.555   3.315  0.00  0.00     0.031 A 
HETATM   21  C   UNK N   1      34.065  15.304   4.593  0.00  0.00     0.052 A 
BRANCH  21  22
HETATM   22  N   UNK N   1      34.814  14.128   4.793  0.00  0.00    -0.397 N 
HETATM   23  H   UNK N   1      34.981  13.515   4.041  0.00  0.00     0.156 HD
HETATM   24  H   UNK N   1      35.170  13.918   5.686  0.00  0.00     0.156 HD
ENDBRANCH  21  22
ENDBRANCH   3  16
TORSDOF 4
ENDMDL
MODEL 7
REMARK VINA RESULT:      -6.2      3.435     10.026
REMARK  4 active torsions:
REMARK  status: ('A' for Active; 'I' for Inactive)
REMARK       I    between atoms: C_2  and  N_4 
REMARK    1  A    between atoms: N_4  and  C_5 
REMARK    2  A    between atoms: C_8  and  C_11 
REMARK       I    between atoms: C_11  and  N_13 
REMARK    3  A    between atoms: N_13  and  C_14 
REMARK    4  A    between atoms: C_19  and  N_20 
ROOT
HETATM    1  C   UNK N   1      36.048  13.499  14.956  0.00  0.00     0.256 C 
HETATM    2  O   UNK N   1      37.152  13.709  15.439  0.00  0.00    -0.267 OA
HETATM    3  N   UNK N   1      35.030  13.010  15.712  0.00  0.00    -0.321 N 
HETATM    4  H   UNK N   1      34.141  13.018  15.290  0.00  0.00     0.169 HD
ENDROOT
BRANCH   1   5
HETATM    5  C   UNK N   1      35.813  13.767  13.523  0.00  0.00     0.032 A 
HETATM    6  C   UNK N   1      36.063  15.046  13.002  0.00  0.00     0.019 A 
HETATM    7  C   UNK N   1      35.777  15.333  11.667  0.00  0.00     0.030 A 
HETATM    8  C   UNK N   1      35.210  14.360  10.841  0.00  0.00     0.034 A 
HETATM    9  C   UNK N   1      34.973  13.074  11.356  0.00  0.00     0.030 A 
HETATM   10  C   UNK N   1      35.278  12.778  12.687  0.00  0.00     0.019 A 
BRANCH   8  11
HETATM   11  N   UNK N   1      34.897  14.702   9.495  0.00  0.00    -0.328 N 
HETATM   12  C   UNK N   1      33.664  15.049   9.042  0.00  0.00     0.218 C 
HETATM   13  C   UNK N   1      33.467  15.315   7.590  0.00  0.00     0.117 C 
HETATM   14  O   UNK N   1      32.723  15.190   9.809  0.00  0.00    -0.274 OA
HETATM   15  H   UNK N   1      35.631  14.686   8.841  0.00  0.00     0.169 HD
ENDBRANCH   8  11
ENDBRANCH   1   5
BRANCH   3  16
HETATM   16  C   UNK N   1      35.079  12.489  17.040  0.00  0.00     0.061 A 
HETATM   17  C   UNK N   1      35.093  11.096  17.184  0.00  0.00     0.032 A 
HETATM   18  C   UNK N   1      35.202  10.503  18.443  0.00  0.00     0.002 A 
HETATM   19  C   UNK N   1      35.314  11.301  19.581  0.00  0.00     0.002 A 
HETATM   20  C   UNK N   1      35.329  12.689  19.459  0.00  0.00     0.031 A 
HETATM   21  C   UNK N   1      35.217  13.297  18.204  0.00  0.00     0.052 A 
BRANCH  21  22
HETATM   22  N   UNK N   1      35.313  14.700  18.133  0.00  0.00    -0.397 N 
HETATM   23  H   UNK N   1      34.747  15.204  17.506  0.00  0.00     0.156 HD
HETATM   24  H   UNK N   1      35.950  15.178  18.712  0.00  0.00     0.156 HD
ENDBRANCH  21  22
ENDBRANCH   3  16
TORSDOF 4
ENDMDL
MODEL 8
REMARK VINA RESULT:      -6.2      2.724      4.223
REMARK  4 active torsions:
REMARK  status: ('A' for Active; 'I' for Inactive)
REMARK       I    between atoms: C_2  and  N_4 
REMARK    1  A    between atoms: N_4  and  C_5 
REMARK    2  A    between atoms: C_8  and  C_11 
REMARK       I    between atoms: C_11  and  N_13 
REMARK    3  A    between atoms: N_13  and  C_14 
REMARK    4  A    between atoms: C_19  and  N_20 
ROOT
HETATM    1  C   UNK N   1      35.668  15.223  10.830  0.00  0.00     0.256 C 
HETATM    2  O   UNK N   1      36.625  15.936  10.564  0.00  0.00    -0.267 OA
HETATM    3  N   UNK N   1      34.607  15.125   9.985  0.00  0.00    -0.321 N 
HETATM    4  H   UNK N   1      33.957  14.417  10.195  0.00  0.00     0.169 HD
ENDROOT
BRANCH   1   5
HETATM    5  C   UNK N   1      35.650  14.461  12.095  0.00  0.00     0.032 A 
HETATM    6  C   UNK N   1      36.387  14.920  13.197  0.00  0.00     0.019 A 
HETATM    7  C   UNK N   1      36.437  14.174  14.374  0.00  0.00     0.030 A 
HETATM    8  C   UNK N   1      35.780  12.944  14.459  0.00  0.00     0.034 A 
HETATM    9  C   UNK N   1      35.029  12.488  13.362  0.00  0.00     0.030 A 
HETATM   10  C   UNK N   1      34.960  13.246  12.189  0.00  0.00     0.019 A 
BRANCH   8  11
HETATM   11  N   UNK N   1      35.887  12.192  15.663  0.00  0.00    -0.328 N 
HETATM   12  C   UNK N   1      35.202  12.448  16.809  0.00  0.00     0.218 C 
HETATM   13  C   UNK N   1      35.466  11.619  18.017  0.00  0.00     0.117 C 
HETATM   14  O   UNK N   1      34.343  13.315  16.854  0.00  0.00    -0.274 OA
HETATM   15  H   UNK N   1      36.506  11.428  15.666  0.00  0.00     0.169 HD
ENDBRANCH   8  11
ENDBRANCH   1   5
BRANCH   3  16
HETATM   16  C   UNK N   1      34.314  15.912   8.831  0.00  0.00     0.061 A 
HETATM   17  C   UNK N   1      33.752  17.177   9.041  0.00  0.00     0.032 A 
HETATM   18  C   UNK N   1      33.492  18.036   7.972  0.00  0.00     0.002 A 
HETATM   19  C   UNK N   1      33.804  17.644   6.671  0.00  0.00     0.002 A 
HETATM   20  C   UNK N   1      34.389  16.399   6.441  0.00  0.00     0.031 A 
HETATM   21  C   UNK N   1      34.652  15.527   7.502  0.00  0.00     0.052 A 
BRANCH  21  22
HETATM   22  N   UNK N   1      35.311  14.315   7.220  0.00  0.00    -0.397 N 
HETATM   23  H   UNK N   1      36.088  14.304   6.614  0.00  0.00     0.156 HD
HETATM   24  H   UNK N   1      34.995  13.477   7.627  0.00  0.00     0.156 HD
ENDBRANCH  21  22
ENDBRANCH   3  16
TORSDOF 4
ENDMDL
MODEL 9
REMARK VINA RESULT:      -6.2      2.023      8.529
REMARK  4 active torsions:
REMARK  status: ('A' for Active; 'I' for Inactive)
REMARK       I    between atoms: C_2  and  N_4 
REMARK    1  A    between atoms: N_4  and  C_5 
REMARK    2  A    between atoms: C_8  and  C_11 
REMARK       I    between atoms: C_11  and  N_13 
REMARK    3  A    between atoms: N_13  and  C_14 
REMARK    4  A    between atoms: C_19  and  N_20 
ROOT
HETATM    1  C   UNK N   1      35.711  13.503  11.495  0.00  0.00     0.256 C 
HETATM    2  O   UNK N   1      36.863  13.098  11.561  0.00  0.00    -0.267 OA
HETATM    3  N   UNK N   1      34.850  13.353  12.537  0.00  0.00    -0.321 N 
HETATM    4  H   UNK N   1      34.000  13.842  12.462  0.00  0.00     0.169 HD
ENDROOT
BRANCH   1   5
HETATM    5  C   UNK N   1      35.235  14.158  10.260  0.00  0.00     0.032 A 
HETATM    6  C   UNK N   1      33.990  14.805  10.247  0.00  0.00     0.019 A 
HETATM    7  C   UNK N   1      33.498  15.366   9.069  0.00  0.00     0.030 A 
HETATM    8  C   UNK N   1      34.223  15.262   7.880  0.00  0.00     0.034 A 
HETATM    9  C   UNK N   1      35.477  14.628   7.892  0.00  0.00     0.030 A 
HETATM   10  C   UNK N   1      35.983  14.084   9.077  0.00  0.00     0.019 A 
BRANCH   8  11
HETATM   11  N   UNK N   1      33.669  15.812   6.689  0.00  0.00    -0.328 N 
HETATM   12  C   UNK N   1      33.831  17.095   6.270  0.00  0.00     0.218 C 
HETATM   13  C   UNK N   1      33.134  17.553   5.038  0.00  0.00     0.117 C 
HETATM   14  O   UNK N   1      34.573  17.865   6.860  0.00  0.00    -0.274 OA
HETATM   15  H   UNK N   1      33.125  15.217   6.126  0.00  0.00     0.169 HD
ENDBRANCH   8  11
ENDBRANCH   1   5
BRANCH   3  16
HETATM   16  C   UNK N   1      35.020  12.582  13.726  0.00  0.00     0.061 A 
HETATM   17  C   UNK N   1      34.267  11.408  13.844  0.00  0.00     0.032 A 
HETATM   18  C   UNK N   1      34.416  10.564  14.945  0.00  0.00     0.002 A 
HETATM   19  C   UNK N   1      35.338  10.878  15.943  0.00  0.00     0.002 A 
HETATM   20  C   UNK N   1      36.117  12.028  15.833  0.00  0.00     0.031 A 
HETATM   21  C   UNK N   1      35.975  12.886  14.737  0.00  0.00     0.052 A 
BRANCH  21  22
HETATM   22  N   UNK N   1      36.841  13.992  14.641  0.00  0.00    -0.397 N 
HETATM   23  H   UNK N   1      37.775  13.916  14.942  0.00  0.00     0.156 HD
HETATM   24  H   UNK N   1      36.511  14.843  14.274  0.00  0.00     0.156 HD
ENDBRANCH  21  22
ENDBRANCH   3  16
TORSDOF 4
ENDMDL
