REMARK  9 active torsions:
REMARK  status: ('A' for Active; 'I' for Inactive)
REMARK    1  A    between atoms: O_2  and  C_3 
REMARK    2  A    between atoms: C_7  and  O_26 
REMARK    3  A    between atoms: C_8  and  C_9 
REMARK    4  A    between atoms: C_11  and  N_15 
REMARK    5  A    between atoms: N_15  and  C_16 
REMARK    6  A    between atoms: O_26  and  C_27 
REMARK    7  A    between atoms: C_27  and  C_28 
REMARK    8  A    between atoms: C_28  and  C_29 
REMARK    9  A    between atoms: C_29  and  N_30 
ROOT
HETATM    1  C   UNK N   1       0.679  -7.086   0.140  0.00  0.00     0.122 A 
HETATM    2  C   UNK N   1       1.258  -8.313   0.456  0.00  0.00     0.137 A 
HETATM    3  N   UNK N   1       0.529  -9.441   0.231  0.00  0.00    -0.353 N 
ATOM      4  HN  UNK N   1       0.921 -10.352   0.471  1.00  0.00     0.166 HD
HETATM    5  C   UNK N   1      -0.722  -9.364  -0.315  0.00  0.00     0.129 A 
HETATM    6  C   UNK N   1      -1.253  -8.151  -0.676  0.00  0.00     0.130 A 
HETATM    7  N   UNK N   1      -0.548  -7.045  -0.434  0.00  0.00    -0.348 N 
ATOM      8  HN  UNK N   1      -0.945  -6.141  -0.689  1.00  0.00     0.167 HD
HETATM    9  C   UNK N   1      -1.550 -10.506  -0.426  0.00  0.00     0.119 C 
HETATM   10  N   UNK N   1      -2.199 -11.455  -0.503  0.00  0.00    -0.190 NA
ENDROOT
BRANCH   1  11
HETATM   11  N   UNK N   1       1.275  -5.877   0.478  0.00  0.00    -0.326 N 
HETATM   12  H   UNK N   1       2.238  -5.793   0.662  0.00  0.00     0.169 HD
BRANCH  11  13
HETATM   13  C   UNK N   1       0.397  -4.783   0.538  0.00  0.00     0.123 A 
HETATM   14  C   UNK N   1       0.450  -3.743  -0.300  0.00  0.00     0.082 A 
HETATM   15  C   UNK N   1      -0.618  -2.988   0.018  0.00  0.00     0.067 A 
HETATM   16  N   UNK N   1      -1.333  -3.601   0.987  0.00  0.00    -0.298 N 
HETATM   17  N   UNK N   1      -0.720  -4.731   1.286  0.00  0.00    -0.285 N 
HETATM   18  H   UNK N   1      -2.162  -3.265   1.398  0.00  0.00     0.187 HD
ATOM     19  HN  UNK N   1      -1.034  -5.432   1.956  1.00  0.00     0.188 HD
BRANCH  15  20
HETATM   20  C   UNK N   1      -0.654  -1.544  -0.151  0.00  0.00     0.059 A 
HETATM   21  C   UNK N   1       0.582  -0.771  -0.184  0.00  0.00     0.084 A 
HETATM   22  C   UNK N   1       0.485   0.599   0.021  0.00  0.00     0.038 A 
HETATM   23  C   UNK N   1      -0.730   1.227   0.241  0.00  0.00     0.005 A 
HETATM   24  C   UNK N   1      -1.912   0.505   0.209  0.00  0.00     0.038 A 
HETATM   25  C   UNK N   1      -1.908  -0.868  -0.000  0.00  0.00     0.083 A 
BRANCH  21  26
HETATM   26  O   UNK N   1       1.881  -1.229  -0.271  0.00  0.00    -0.350 OA
BRANCH  26  27
HETATM   27  C   UNK N   1       2.488  -2.255  -0.979  0.00  0.00     0.177 C 
BRANCH  27  28
HETATM   28  C   UNK N   1       3.262  -3.174  -0.021  0.00  0.00     0.046 C 
BRANCH  28  29
HETATM   29  C   UNK N   1       4.753  -2.910  -0.057  0.00  0.00     0.113 C 
BRANCH  29  30
HETATM   30  N   UNK N   1       5.032  -1.568   0.418  0.00  0.00    -0.430 N 
HETATM   31  H   UNK N   1       5.947  -1.265   0.752  0.00  0.00     0.149 HD
HETATM   32  H   UNK N   1       4.271  -0.889   0.418  0.00  0.00     0.149 HD
ENDBRANCH  29  30
ENDBRANCH  28  29
ENDBRANCH  27  28
ENDBRANCH  26  27
ENDBRANCH  21  26
BRANCH  25  33
HETATM   33  O   UNK N   1      -3.124  -1.488  -0.026  0.00  0.00    -0.355 OA
HETATM   34  C   UNK N   1      -3.418  -2.629  -0.742  0.00  0.00     0.210 C 
ENDBRANCH  25  33
ENDBRANCH  15  20
ENDBRANCH  11  13
ENDBRANCH   1  11
TORSDOF 9
