MODEL 1
REMARK VINA RESULT:      -8.0      0.000      0.000
REMARK  6 active torsions:
REMARK  status: ('A' for Active; 'I' for Inactive)
REMARK    1  A    between atoms: O_2  and  C_3 
REMARK    2  A    between atoms: C_8  and  O_9 
REMARK    3  A    between atoms: O_9  and  C_10 
REMARK       I    between atoms: N_13  and  C_16 
REMARK    4  A    between atoms: C_16  and  C_18 
REMARK    5  A    between atoms: C_20  and  N_26 
REMARK    6  A    between atoms: N_26  and  C_27 
ROOT
HETATM    1  C   UNK N   1      22.228  19.256   3.653  0.00  0.00     0.103 A 
HETATM    2  C   UNK N   1      23.283  20.023   3.132  0.00  0.00     0.070 A 
HETATM    3  C   UNK N   1      24.594  19.791   3.547  0.00  0.00     0.050 A 
HETATM    4  C   UNK N   1      24.867  18.793   4.502  0.00  0.00     0.038 A 
HETATM    5  C   UNK N   1      23.819  18.005   5.001  0.00  0.00     0.057 A 
HETATM    6  C   UNK N   1      22.501  18.236   4.573  0.00  0.00     0.103 A 
HETATM    7  C   UNK N   1      26.185  18.640   4.951  0.00  0.00     0.119 A 
HETATM    8  N   UNK N   1      27.162  19.432   4.424  0.00  0.00    -0.338 N 
ATOM      9  HN  UNK N   1      28.122  19.324   4.749  1.00  0.00     0.168 HD
HETATM   10  C   UNK N   1      26.882  20.363   3.474  0.00  0.00     0.182 A 
HETATM   11  N   UNK N   1      25.606  20.548   3.050  0.00  0.00    -0.351 N 
ATOM     12  HN  UNK N   1      25.405  21.262   2.351  1.00  0.00     0.166 HD
ENDROOT
BRANCH   6  13
HETATM   13  O   UNK N   1      21.478  17.475   5.023  0.00  0.00    -0.343 OA
BRANCH  13  14
HETATM   14  C   UNK N   1      21.113  16.286   4.426  0.00  0.00     0.132 C 
HETATM   15  C   UNK N   1      19.599  16.087   4.603  0.00  0.00     0.052 C 
HETATM   16  C   UNK N   1      19.259  16.172   6.099  0.00  0.00     0.128 C 
HETATM   17  N   UNK N   1      20.182  15.386   6.912  0.00  0.00    -0.349 N 
HETATM   18  C   UNK N   1      21.081  14.460   6.245  0.00  0.00     0.128 C 
HETATM   19  C   UNK N   1      20.163  15.533   8.279  0.00  0.00     0.242 C 
HETATM   20  C   UNK N   1      21.868  15.137   5.109  0.00  0.00     0.052 C 
HETATM   21  O   UNK N   1      19.406  16.349   8.783  0.00  0.00    -0.268 OA
BRANCH  19  22
HETATM   22  C   UNK N   1      21.017  14.743   9.214  0.00  0.00     0.064 C 
HETATM   23  C   UNK N   1      20.617  13.694   9.931  0.00  0.00     0.017 C 
ENDBRANCH  19  22
ENDBRANCH  13  14
ENDBRANCH   6  13
BRANCH   1  24
HETATM   24  O   UNK N   1      20.944  19.461   3.264  0.00  0.00    -0.353 OA
HETATM   25  C   UNK N   1      20.587  19.795   1.978  0.00  0.00     0.210 C 
ENDBRANCH   1  24
BRANCH   7  26
HETATM   26  N   UNK N   1      26.489  17.701   5.978  0.00  0.00    -0.339 N 
HETATM   27  H   UNK N   1      25.735  17.231   6.403  0.00  0.00     0.167 HD
BRANCH  26  28
HETATM   28  C   UNK N   1      27.802  17.390   6.434  0.00  0.00     0.074 A 
HETATM   29  C   UNK N   1      28.567  16.383   5.825  0.00  0.00     0.034 A 
HETATM   30  C   UNK N   1      29.870  16.126   6.250  0.00  0.00     0.028 A 
HETATM   31  C   UNK N   1      30.433  16.876   7.282  0.00  0.00     0.059 A 
HETATM   32  C   UNK N   1      29.682  17.891   7.899  0.00  0.00     0.096 A 
HETATM   33 Cl   UNK N   1      32.082  16.530   7.776  0.00  0.00    -0.082 Cl
HETATM   34  C   UNK N   1      28.368  18.145   7.471  0.00  0.00     0.166 A 
HETATM   35 Cl   UNK N   1      30.372  18.856   9.199  0.00  0.00    -0.079 Cl
HETATM   36  F   UNK N   1      27.645  19.135   8.057  0.00  0.00    -0.202 F 
ENDBRANCH  26  28
ENDBRANCH   7  26
TORSDOF 6
ENDMDL
MODEL 2
REMARK VINA RESULT:      -8.0      2.500      3.424
REMARK  6 active torsions:
REMARK  status: ('A' for Active; 'I' for Inactive)
REMARK    1  A    between atoms: O_2  and  C_3 
REMARK    2  A    between atoms: C_8  and  O_9 
REMARK    3  A    between atoms: O_9  and  C_10 
REMARK       I    between atoms: N_13  and  C_16 
REMARK    4  A    between atoms: C_16  and  C_18 
REMARK    5  A    between atoms: C_20  and  N_26 
REMARK    6  A    between atoms: N_26  and  C_27 
ROOT
HETATM    1  C   UNK N   1      22.769  16.238   6.008  0.00  0.00     0.103 A 
HETATM    2  C   UNK N   1      23.169  17.316   5.201  0.00  0.00     0.070 A 
HETATM    3  C   UNK N   1      24.513  17.489   4.873  0.00  0.00     0.050 A 
HETATM    4  C   UNK N   1      25.481  16.590   5.359  0.00  0.00     0.038 A 
HETATM    5  C   UNK N   1      25.081  15.495   6.139  0.00  0.00     0.057 A 
HETATM    6  C   UNK N   1      23.724  15.319   6.460  0.00  0.00     0.103 A 
HETATM    7  C   UNK N   1      26.829  16.839   5.071  0.00  0.00     0.119 A 
HETATM    8  N   UNK N   1      27.156  17.916   4.302  0.00  0.00    -0.338 N 
ATOM      9  HN  UNK N   1      28.136  18.101   4.091  1.00  0.00     0.168 HD
HETATM   10  C   UNK N   1      26.202  18.750   3.810  0.00  0.00     0.182 A 
HETATM   11  N   UNK N   1      24.892  18.543   4.105  0.00  0.00    -0.351 N 
ATOM     12  HN  UNK N   1      24.187  19.186   3.747  1.00  0.00     0.166 HD
ENDROOT
BRANCH   6  13
HETATM   13  O   UNK N   1      23.312  14.259   7.192  0.00  0.00    -0.343 OA
BRANCH  13  14
HETATM   14  C   UNK N   1      23.259  12.977   6.686  0.00  0.00     0.132 C 
HETATM   15  C   UNK N   1      21.825  12.445   6.835  0.00  0.00     0.052 C 
HETATM   16  C   UNK N   1      21.404  12.559   8.309  0.00  0.00     0.128 C 
HETATM   17  N   UNK N   1      22.444  12.072   9.210  0.00  0.00    -0.349 N 
HETATM   18  C   UNK N   1      23.562  11.334   8.647  0.00  0.00     0.128 C 
HETATM   19  C   UNK N   1      22.328  12.311  10.559  0.00  0.00     0.242 C 
HETATM   20  C   UNK N   1      24.225  12.089   7.482  0.00  0.00     0.052 C 
HETATM   21  O   UNK N   1      21.381  12.963  10.972  0.00  0.00    -0.268 OA
BRANCH  19  22
HETATM   22  C   UNK N   1      23.296  11.813  11.580  0.00  0.00     0.064 C 
HETATM   23  C   UNK N   1      23.109  11.830  12.899  0.00  0.00     0.017 C 
ENDBRANCH  19  22
ENDBRANCH  13  14
ENDBRANCH   6  13
BRANCH   1  24
HETATM   24  O   UNK N   1      21.467  16.047   6.340  0.00  0.00    -0.353 OA
HETATM   25  C   UNK N   1      20.856  16.674   7.401  0.00  0.00     0.210 C 
ENDBRANCH   1  24
BRANCH   7  26
HETATM   26  N   UNK N   1      27.845  16.002   5.615  0.00  0.00    -0.339 N 
HETATM   27  H   UNK N   1      27.722  15.028   5.540  0.00  0.00     0.167 HD
BRANCH  26  28
HETATM   28  C   UNK N   1      29.027  16.470   6.258  0.00  0.00     0.074 A 
HETATM   29  C   UNK N   1      30.296  16.263   5.694  0.00  0.00     0.034 A 
HETATM   30  C   UNK N   1      31.438  16.773   6.310  0.00  0.00     0.028 A 
HETATM   31  C   UNK N   1      31.332  17.504   7.493  0.00  0.00     0.059 A 
HETATM   32  C   UNK N   1      30.068  17.723   8.068  0.00  0.00     0.096 A 
HETATM   33 Cl   UNK N   1      32.795  18.140   8.227  0.00  0.00    -0.082 Cl
HETATM   34  C   UNK N   1      28.920  17.206   7.446  0.00  0.00     0.166 A 
HETATM   35 Cl   UNK N   1      29.907  18.648   9.557  0.00  0.00    -0.079 Cl
HETATM   36  F   UNK N   1      27.696  17.428   7.994  0.00  0.00    -0.202 F 
ENDBRANCH  26  28
ENDBRANCH   7  26
TORSDOF 6
ENDMDL
MODEL 3
REMARK VINA RESULT:      -8.0      2.536      3.364
REMARK  6 active torsions:
REMARK  status: ('A' for Active; 'I' for Inactive)
REMARK    1  A    between atoms: O_2  and  C_3 
REMARK    2  A    between atoms: C_8  and  O_9 
REMARK    3  A    between atoms: O_9  and  C_10 
REMARK       I    between atoms: N_13  and  C_16 
REMARK    4  A    between atoms: C_16  and  C_18 
REMARK    5  A    between atoms: C_20  and  N_26 
REMARK    6  A    between atoms: N_26  and  C_27 
ROOT
HETATM    1  C   UNK N   1      23.512  17.177   5.387  0.00  0.00     0.103 A 
HETATM    2  C   UNK N   1      23.865  18.428   4.853  0.00  0.00     0.070 A 
HETATM    3  C   UNK N   1      25.178  18.680   4.458  0.00  0.00     0.050 A 
HETATM    4  C   UNK N   1      26.163  17.685   4.604  0.00  0.00     0.038 A 
HETATM    5  C   UNK N   1      25.808  16.426   5.108  0.00  0.00     0.057 A 
HETATM    6  C   UNK N   1      24.482  16.172   5.496  0.00  0.00     0.103 A 
HETATM    7  C   UNK N   1      27.487  18.001   4.268  0.00  0.00     0.119 A 
HETATM    8  N   UNK N   1      27.769  19.241   3.777  0.00  0.00    -0.338 N 
ATOM      9  HN  UNK N   1      28.731  19.473   3.531  1.00  0.00     0.168 HD
HETATM   10  C   UNK N   1      26.795  20.173   3.607  0.00  0.00     0.182 A 
HETATM   11  N   UNK N   1      25.513  19.897   3.958  0.00  0.00    -0.351 N 
ATOM     12  HN  UNK N   1      24.793  20.611   3.844  1.00  0.00     0.166 HD
ENDROOT
BRANCH   6  13
HETATM   13  O   UNK N   1      24.111  14.959   5.964  0.00  0.00    -0.343 OA
BRANCH  13  14
HETATM   14  C   UNK N   1      25.019  13.968   6.274  0.00  0.00     0.132 C 
HETATM   15  C   UNK N   1      24.446  12.614   5.826  0.00  0.00     0.052 C 
HETATM   16  C   UNK N   1      23.063  12.423   6.468  0.00  0.00     0.128 C 
HETATM   17  N   UNK N   1      23.071  12.761   7.888  0.00  0.00    -0.349 N 
HETATM   18  C   UNK N   1      24.350  12.958   8.548  0.00  0.00     0.128 C 
HETATM   19  C   UNK N   1      21.875  12.867   8.558  0.00  0.00     0.242 C 
HETATM   20  C   UNK N   1      25.243  13.958   7.792  0.00  0.00     0.052 C 
HETATM   21  O   UNK N   1      20.829  12.720   7.944  0.00  0.00    -0.268 OA
BRANCH  19  22
HETATM   22  C   UNK N   1      21.762  13.149  10.019  0.00  0.00     0.064 C 
HETATM   23  C   UNK N   1      21.576  12.237  10.972  0.00  0.00     0.017 C 
ENDBRANCH  19  22
ENDBRANCH  13  14
ENDBRANCH   6  13
BRANCH   1  24
HETATM   24  O   UNK N   1      22.241  16.907   5.777  0.00  0.00    -0.353 OA
HETATM   25  C   UNK N   1      21.404  17.845   6.334  0.00  0.00     0.210 C 
ENDBRANCH   1  24
BRANCH   7  26
HETATM   26  N   UNK N   1      28.527  17.051   4.481  0.00  0.00    -0.339 N 
HETATM   27  H   UNK N   1      28.539  16.252   3.905  0.00  0.00     0.167 HD
BRANCH  26  28
HETATM   28  C   UNK N   1      29.550  17.172   5.465  0.00  0.00     0.074 A 
HETATM   29  C   UNK N   1      29.251  17.146   6.836  0.00  0.00     0.034 A 
HETATM   30  C   UNK N   1      30.269  17.214   7.786  0.00  0.00     0.028 A 
HETATM   31  C   UNK N   1      31.601  17.301   7.383  0.00  0.00     0.059 A 
HETATM   32  C   UNK N   1      31.918  17.325   6.014  0.00  0.00     0.096 A 
HETATM   33 Cl   UNK N   1      32.853  17.370   8.613  0.00  0.00    -0.082 Cl
HETATM   34  C   UNK N   1      30.889  17.258   5.059  0.00  0.00     0.166 A 
HETATM   35 Cl   UNK N   1      33.591  17.427   5.480  0.00  0.00    -0.079 Cl
HETATM   36  F   UNK N   1      31.193  17.268   3.735  0.00  0.00    -0.202 F 
ENDBRANCH  26  28
ENDBRANCH   7  26
TORSDOF 6
ENDMDL
MODEL 4
REMARK VINA RESULT:      -7.9      5.462      9.354
REMARK  6 active torsions:
REMARK  status: ('A' for Active; 'I' for Inactive)
REMARK    1  A    between atoms: O_2  and  C_3 
REMARK    2  A    between atoms: C_8  and  O_9 
REMARK    3  A    between atoms: O_9  and  C_10 
REMARK       I    between atoms: N_13  and  C_16 
REMARK    4  A    between atoms: C_16  and  C_18 
REMARK    5  A    between atoms: C_20  and  N_26 
REMARK    6  A    between atoms: N_26  and  C_27 
ROOT
HETATM    1  C   UNK N   1      32.743  17.578   7.388  0.00  0.00     0.103 A 
HETATM    2  C   UNK N   1      31.972  17.873   8.525  0.00  0.00     0.070 A 
HETATM    3  C   UNK N   1      30.585  17.732   8.492  0.00  0.00     0.050 A 
HETATM    4  C   UNK N   1      29.947  17.304   7.313  0.00  0.00     0.038 A 
HETATM    5  C   UNK N   1      30.716  16.979   6.186  0.00  0.00     0.057 A 
HETATM    6  C   UNK N   1      32.114  17.114   6.226  0.00  0.00     0.103 A 
HETATM    7  C   UNK N   1      28.547  17.247   7.294  0.00  0.00     0.119 A 
HETATM    8  N   UNK N   1      27.854  17.569   8.423  0.00  0.00    -0.338 N 
ATOM      9  HN  UNK N   1      26.835  17.529   8.412  1.00  0.00     0.168 HD
HETATM   10  C   UNK N   1      28.493  17.941   9.562  0.00  0.00     0.182 A 
HETATM   11  N   UNK N   1      29.847  18.034   9.591  0.00  0.00    -0.351 N 
ATOM     12  HN  UNK N   1      30.315  18.334  10.446  1.00  0.00     0.166 HD
ENDROOT
BRANCH   6  13
HETATM   13  O   UNK N   1      32.878  16.786   5.160  0.00  0.00    -0.343 OA
BRANCH  13  14
HETATM   14  C   UNK N   1      33.634  15.634   5.109  0.00  0.00     0.132 C 
HETATM   15  C   UNK N   1      33.726  15.166   3.648  0.00  0.00     0.052 C 
HETATM   16  C   UNK N   1      32.304  15.011   3.086  0.00  0.00     0.128 C 
HETATM   17  N   UNK N   1      31.429  14.298   4.011  0.00  0.00    -0.349 N 
HETATM   18  C   UNK N   1      32.024  13.622   5.151  0.00  0.00     0.128 C 
HETATM   19  C   UNK N   1      30.076  14.274   3.768  0.00  0.00     0.242 C 
HETATM   20  C   UNK N   1      32.948  14.553   5.956  0.00  0.00     0.052 C 
HETATM   21  O   UNK N   1      29.628  14.885   2.809  0.00  0.00    -0.268 OA
BRANCH  19  22
HETATM   22  C   UNK N   1      29.092  13.530   4.609  0.00  0.00     0.064 C 
HETATM   23  C   UNK N   1      28.646  12.297   4.372  0.00  0.00     0.017 C 
ENDBRANCH  19  22
ENDBRANCH  13  14
ENDBRANCH   6  13
BRANCH   1  24
HETATM   24  O   UNK N   1      34.093  17.707   7.396  0.00  0.00    -0.353 OA
HETATM   25  C   UNK N   1      34.771  18.534   8.261  0.00  0.00     0.210 C 
ENDBRANCH   1  24
BRANCH   7  26
HETATM   26  N   UNK N   1      27.859  16.901   6.095  0.00  0.00    -0.339 N 
HETATM   27  H   UNK N   1      27.881  15.958   5.813  0.00  0.00     0.167 HD
BRANCH  26  28
HETATM   28  C   UNK N   1      27.143  17.819   5.275  0.00  0.00     0.074 A 
HETATM   29  C   UNK N   1      27.792  18.884   4.630  0.00  0.00     0.034 A 
HETATM   30  C   UNK N   1      27.086  19.743   3.790  0.00  0.00     0.028 A 
HETATM   31  C   UNK N   1      25.721  19.548   3.572  0.00  0.00     0.059 A 
HETATM   32  C   UNK N   1      25.057  18.484   4.207  0.00  0.00     0.096 A 
HETATM   33 Cl   UNK N   1      24.873  20.644   2.495  0.00  0.00    -0.082 Cl
HETATM   34  C   UNK N   1      25.772  17.622   5.055  0.00  0.00     0.166 A 
HETATM   35 Cl   UNK N   1      23.338  18.213   3.944  0.00  0.00    -0.079 Cl
HETATM   36  F   UNK N   1      25.134  16.586   5.659  0.00  0.00    -0.202 F 
ENDBRANCH  26  28
ENDBRANCH   7  26
TORSDOF 6
ENDMDL
MODEL 5
REMARK VINA RESULT:      -7.8      8.536     12.793
REMARK  6 active torsions:
REMARK  status: ('A' for Active; 'I' for Inactive)
REMARK    1  A    between atoms: O_2  and  C_3 
REMARK    2  A    between atoms: C_8  and  O_9 
REMARK    3  A    between atoms: O_9  and  C_10 
REMARK       I    between atoms: N_13  and  C_16 
REMARK    4  A    between atoms: C_16  and  C_18 
REMARK    5  A    between atoms: C_20  and  N_26 
REMARK    6  A    between atoms: N_26  and  C_27 
ROOT
HETATM    1  C   UNK N   1      35.962  14.757   7.078  0.00  0.00     0.103 A 
HETATM    2  C   UNK N   1      37.015  13.867   7.349  0.00  0.00     0.070 A 
HETATM    3  C   UNK N   1      37.371  13.577   8.666  0.00  0.00     0.050 A 
HETATM    4  C   UNK N   1      36.684  14.185   9.733  0.00  0.00     0.038 A 
HETATM    5  C   UNK N   1      35.612  15.050   9.466  0.00  0.00     0.057 A 
HETATM    6  C   UNK N   1      35.250  15.332   8.138  0.00  0.00     0.103 A 
HETATM    7  C   UNK N   1      37.119  13.929  11.041  0.00  0.00     0.119 A 
HETATM    8  N   UNK N   1      38.163  13.075  11.237  0.00  0.00    -0.338 N 
ATOM      9  HN  UNK N   1      38.483  12.886  12.187  1.00  0.00     0.168 HD
HETATM   10  C   UNK N   1      38.787  12.468  10.193  0.00  0.00     0.182 A 
HETATM   11  N   UNK N   1      38.401  12.729   8.918  0.00  0.00    -0.351 N 
ATOM     12  HN  UNK N   1      38.888  12.283   8.141  1.00  0.00     0.166 HD
ENDROOT
BRANCH   6  13
HETATM   13  O   UNK N   1      34.207  16.144   7.856  0.00  0.00    -0.343 OA
BRANCH  13  14
HETATM   14  C   UNK N   1      33.264  16.502   8.797  0.00  0.00     0.132 C 
HETATM   15  C   UNK N   1      32.277  15.339   8.977  0.00  0.00     0.052 C 
HETATM   16  C   UNK N   1      31.690  14.969   7.606  0.00  0.00     0.128 C 
HETATM   17  N   UNK N   1      31.273  16.150   6.856  0.00  0.00    -0.349 N 
HETATM   18  C   UNK N   1      31.207  17.426   7.549  0.00  0.00     0.128 C 
HETATM   19  C   UNK N   1      30.941  16.019   5.529  0.00  0.00     0.242 C 
HETATM   20  C   UNK N   1      32.513  17.745   8.297  0.00  0.00     0.052 C 
HETATM   21  O   UNK N   1      31.044  14.926   4.991  0.00  0.00    -0.268 OA
BRANCH  19  22
HETATM   22  C   UNK N   1      30.445  17.141   4.679  0.00  0.00     0.064 C 
HETATM   23  C   UNK N   1      29.365  17.106   3.900  0.00  0.00     0.017 C 
ENDBRANCH  19  22
ENDBRANCH  13  14
ENDBRANCH   6  13
BRANCH   1  24
HETATM   24  O   UNK N   1      35.596  15.053   5.806  0.00  0.00    -0.353 OA
HETATM   25  C   UNK N   1      34.848  14.210   5.017  0.00  0.00     0.210 C 
ENDBRANCH   1  24
BRANCH   7  26
HETATM   26  N   UNK N   1      36.506  14.591  12.143  0.00  0.00    -0.339 N 
HETATM   27  H   UNK N   1      36.281  15.543  12.035  0.00  0.00     0.167 HD
BRANCH  26  28
HETATM   28  C   UNK N   1      36.195  13.976  13.390  0.00  0.00     0.074 A 
HETATM   29  C   UNK N   1      36.760  14.432  14.591  0.00  0.00     0.034 A 
HETATM   30  C   UNK N   1      36.406  13.852  15.808  0.00  0.00     0.028 A 
HETATM   31  C   UNK N   1      35.475  12.814  15.847  0.00  0.00     0.059 A 
HETATM   32  C   UNK N   1      34.896  12.348  14.654  0.00  0.00     0.096 A 
HETATM   33 Cl   UNK N   1      35.045  12.123  17.403  0.00  0.00    -0.082 Cl
HETATM   34  C   UNK N   1      35.258  12.933  13.429  0.00  0.00     0.166 A 
HETATM   35 Cl   UNK N   1      33.714  11.045  14.678  0.00  0.00    -0.079 Cl
HETATM   36  F   UNK N   1      34.690  12.493  12.276  0.00  0.00    -0.202 F 
ENDBRANCH  26  28
ENDBRANCH   7  26
TORSDOF 6
ENDMDL
MODEL 6
REMARK VINA RESULT:      -7.7      6.397      9.951
REMARK  6 active torsions:
REMARK  status: ('A' for Active; 'I' for Inactive)
REMARK    1  A    between atoms: O_2  and  C_3 
REMARK    2  A    between atoms: C_8  and  O_9 
REMARK    3  A    between atoms: O_9  and  C_10 
REMARK       I    between atoms: N_13  and  C_16 
REMARK    4  A    between atoms: C_16  and  C_18 
REMARK    5  A    between atoms: C_20  and  N_26 
REMARK    6  A    between atoms: N_26  and  C_27 
ROOT
HETATM    1  C   UNK N   1      32.782  16.930   5.315  0.00  0.00     0.103 A 
HETATM    2  C   UNK N   1      33.998  16.259   5.104  0.00  0.00     0.070 A 
HETATM    3  C   UNK N   1      34.611  15.565   6.147  0.00  0.00     0.050 A 
HETATM    4  C   UNK N   1      34.018  15.543   7.424  0.00  0.00     0.038 A 
HETATM    5  C   UNK N   1      32.789  16.186   7.630  0.00  0.00     0.057 A 
HETATM    6  C   UNK N   1      32.171  16.876   6.574  0.00  0.00     0.103 A 
HETATM    7  C   UNK N   1      34.701  14.900   8.466  0.00  0.00     0.119 A 
HETATM    8  N   UNK N   1      35.890  14.288   8.202  0.00  0.00    -0.338 N 
ATOM      9  HN  UNK N   1      36.389  13.820   8.958  1.00  0.00     0.168 HD
HETATM   10  C   UNK N   1      36.424  14.288   6.953  0.00  0.00     0.182 A 
HETATM   11  N   UNK N   1      35.794  14.933   5.938  0.00  0.00    -0.351 N 
ATOM     12  HN  UNK N   1      36.214  14.943   5.008  1.00  0.00     0.166 HD
ENDROOT
BRANCH   6  13
HETATM   13  O   UNK N   1      30.975  17.484   6.742  0.00  0.00    -0.343 OA
BRANCH  13  14
HETATM   14  C   UNK N   1      29.952  16.929   7.483  0.00  0.00     0.132 C 
HETATM   15  C   UNK N   1      28.888  16.378   6.522  0.00  0.00     0.052 C 
HETATM   16  C   UNK N   1      28.441  17.504   5.577  0.00  0.00     0.128 C 
HETATM   17  N   UNK N   1      28.179  18.746   6.297  0.00  0.00    -0.349 N 
HETATM   18  C   UNK N   1      28.105  18.706   7.748  0.00  0.00     0.128 C 
HETATM   19  C   UNK N   1      27.994  19.907   5.585  0.00  0.00     0.242 C 
HETATM   20  C   UNK N   1      29.334  18.019   8.369  0.00  0.00     0.052 C 
HETATM   21  O   UNK N   1      28.095  19.886   4.367  0.00  0.00    -0.268 OA
BRANCH  19  22
HETATM   22  C   UNK N   1      27.661  21.222   6.207  0.00  0.00     0.064 C 
HETATM   23  C   UNK N   1      26.440  21.636   6.542  0.00  0.00     0.017 C 
ENDBRANCH  19  22
ENDBRANCH  13  14
ENDBRANCH   6  13
BRANCH   1  24
HETATM   24  O   UNK N   1      32.167  17.610   4.316  0.00  0.00    -0.353 OA
HETATM   25  C   UNK N   1      31.787  17.031   3.127  0.00  0.00     0.210 C 
ENDBRANCH   1  24
BRANCH   7  26
HETATM   26  N   UNK N   1      34.177  14.929   9.791  0.00  0.00    -0.339 N 
HETATM   27  H   UNK N   1      33.272  15.296   9.915  0.00  0.00     0.167 HD
BRANCH  26  28
HETATM   28  C   UNK N   1      34.867  14.465  10.947  0.00  0.00     0.074 A 
HETATM   29  C   UNK N   1      35.524  15.354  11.812  0.00  0.00     0.034 A 
HETATM   30  C   UNK N   1      36.150  14.890  12.968  0.00  0.00     0.028 A 
HETATM   31  C   UNK N   1      36.123  13.531  13.284  0.00  0.00     0.059 A 
HETATM   32  C   UNK N   1      35.466  12.628  12.430  0.00  0.00     0.096 A 
HETATM   33 Cl   UNK N   1      36.912  12.991  14.756  0.00  0.00    -0.082 Cl
HETATM   34  C   UNK N   1      34.838  13.099  11.265  0.00  0.00     0.166 A 
HETATM   35 Cl   UNK N   1      35.412  10.910  12.810  0.00  0.00    -0.079 Cl
HETATM   36  F   UNK N   1      34.191  12.230  10.446  0.00  0.00    -0.202 F 
ENDBRANCH  26  28
ENDBRANCH   7  26
TORSDOF 6
ENDMDL
MODEL 7
REMARK VINA RESULT:      -7.6      2.170      3.087
REMARK  6 active torsions:
REMARK  status: ('A' for Active; 'I' for Inactive)
REMARK    1  A    between atoms: O_2  and  C_3 
REMARK    2  A    between atoms: C_8  and  O_9 
REMARK    3  A    between atoms: O_9  and  C_10 
REMARK       I    between atoms: N_13  and  C_16 
REMARK    4  A    between atoms: C_16  and  C_18 
REMARK    5  A    between atoms: C_20  and  N_26 
REMARK    6  A    between atoms: N_26  and  C_27 
ROOT
HETATM    1  C   UNK N   1      22.410  17.164   5.384  0.00  0.00     0.103 A 
HETATM    2  C   UNK N   1      22.414  18.322   4.588  0.00  0.00     0.070 A 
HETATM    3  C   UNK N   1      23.611  18.820   4.076  0.00  0.00     0.050 A 
HETATM    4  C   UNK N   1      24.827  18.173   4.364  0.00  0.00     0.038 A 
HETATM    5  C   UNK N   1      24.823  17.000   5.134  0.00  0.00     0.057 A 
HETATM    6  C   UNK N   1      23.613  16.495   5.640  0.00  0.00     0.103 A 
HETATM    7  C   UNK N   1      26.017  18.746   3.896  0.00  0.00     0.119 A 
HETATM    8  N   UNK N   1      25.956  19.884   3.148  0.00  0.00    -0.338 N 
ATOM      9  HN  UNK N   1      26.820  20.304   2.806  1.00  0.00     0.168 HD
HETATM   10  C   UNK N   1      24.768  20.471   2.848  0.00  0.00     0.182 A 
HETATM   11  N   UNK N   1      23.607  19.949   3.320  0.00  0.00    -0.351 N 
ATOM     12  HN  UNK N   1      22.722  20.408   3.105  1.00  0.00     0.166 HD
ENDROOT
BRANCH   6  13
HETATM   13  O   UNK N   1      23.582  15.354   6.365  0.00  0.00    -0.343 OA
BRANCH  13  14
HETATM   14  C   UNK N   1      23.733  14.106   5.799  0.00  0.00     0.132 C 
HETATM   15  C   UNK N   1      22.365  13.408   5.766  0.00  0.00     0.052 C 
HETATM   16  C   UNK N   1      21.782  13.389   7.187  0.00  0.00     0.128 C 
HETATM   17  N   UNK N   1      22.773  12.971   8.175  0.00  0.00    -0.349 N 
HETATM   18  C   UNK N   1      24.023  12.397   7.707  0.00  0.00     0.128 C 
HETATM   19  C   UNK N   1      22.489  13.119   9.512  0.00  0.00     0.242 C 
HETATM   20  C   UNK N   1      24.709  13.288   6.657  0.00  0.00     0.052 C 
HETATM   21  O   UNK N   1      21.433  13.635   9.847  0.00  0.00    -0.268 OA
BRANCH  19  22
HETATM   22  C   UNK N   1      23.397  12.675  10.610  0.00  0.00     0.064 C 
HETATM   23  C   UNK N   1      23.032  11.974  11.683  0.00  0.00     0.017 C 
ENDBRANCH  19  22
ENDBRANCH  13  14
ENDBRANCH   6  13
BRANCH   1  24
HETATM   24  O   UNK N   1      21.258  16.659   5.892  0.00  0.00    -0.353 OA
HETATM   25  C   UNK N   1      20.679  17.111   7.055  0.00  0.00     0.210 C 
ENDBRANCH   1  24
BRANCH   7  26
HETATM   26  N   UNK N   1      27.274  18.169   4.238  0.00  0.00    -0.339 N 
HETATM   27  H   UNK N   1      27.729  17.629   3.552  0.00  0.00     0.167 HD
BRANCH  26  28
HETATM   28  C   UNK N   1      27.920  18.318   5.499  0.00  0.00     0.074 A 
HETATM   29  C   UNK N   1      27.510  19.295   6.420  0.00  0.00     0.034 A 
HETATM   30  C   UNK N   1      28.119  19.393   7.670  0.00  0.00     0.028 A 
HETATM   31  C   UNK N   1      29.141  18.512   8.024  0.00  0.00     0.059 A 
HETATM   32  C   UNK N   1      29.561  17.525   7.115  0.00  0.00     0.096 A 
HETATM   33 Cl   UNK N   1      29.871  18.661   9.615  0.00  0.00    -0.082 Cl
HETATM   34  C   UNK N   1      28.946  17.431   5.856  0.00  0.00     0.166 A 
HETATM   35 Cl   UNK N   1      30.843  16.398   7.542  0.00  0.00    -0.079 Cl
HETATM   36  F   UNK N   1      29.341  16.470   4.981  0.00  0.00    -0.202 F 
ENDBRANCH  26  28
ENDBRANCH   7  26
TORSDOF 6
ENDMDL
MODEL 8
REMARK VINA RESULT:      -7.6     13.893     15.673
REMARK  6 active torsions:
REMARK  status: ('A' for Active; 'I' for Inactive)
REMARK    1  A    between atoms: O_2  and  C_3 
REMARK    2  A    between atoms: C_8  and  O_9 
REMARK    3  A    between atoms: O_9  and  C_10 
REMARK       I    between atoms: N_13  and  C_16 
REMARK    4  A    between atoms: C_16  and  C_18 
REMARK    5  A    between atoms: C_20  and  N_26 
REMARK    6  A    between atoms: N_26  and  C_27 
ROOT
HETATM    1  C   UNK N   1      29.154  20.741  -7.543  0.00  0.00     0.103 A 
HETATM    2  C   UNK N   1      28.004  21.109  -8.262  0.00  0.00     0.070 A 
HETATM    3  C   UNK N   1      27.219  22.179  -7.835  0.00  0.00     0.050 A 
HETATM    4  C   UNK N   1      27.567  22.891  -6.671  0.00  0.00     0.038 A 
HETATM    5  C   UNK N   1      28.731  22.545  -5.969  0.00  0.00     0.057 A 
HETATM    6  C   UNK N   1      29.525  21.472  -6.407  0.00  0.00     0.103 A 
HETATM    7  C   UNK N   1      26.713  23.910  -6.231  0.00  0.00     0.119 A 
HETATM    8  N   UNK N   1      25.599  24.204  -6.960  0.00  0.00    -0.338 N 
ATOM      9  HN  UNK N   1      24.975  24.945  -6.642  1.00  0.00     0.168 HD
HETATM   10  C   UNK N   1      25.303  23.531  -8.102  0.00  0.00     0.182 A 
HETATM   11  N   UNK N   1      26.101  22.518  -8.527  0.00  0.00    -0.351 N 
ATOM     12  HN  UNK N   1      25.859  22.006  -9.376  1.00  0.00     0.166 HD
ENDROOT
BRANCH   6  13
HETATM   13  O   UNK N   1      30.662  21.135  -5.760  0.00  0.00    -0.343 OA
BRANCH  13  14
HETATM   14  C   UNK N   1      31.905  21.593  -6.144  0.00  0.00     0.132 C 
HETATM   15  C   UNK N   1      32.853  21.527  -4.937  0.00  0.00     0.052 C 
HETATM   16  C   UNK N   1      32.227  22.307  -3.771  0.00  0.00     0.128 C 
HETATM   17  N   UNK N   1      31.707  23.602  -4.200  0.00  0.00    -0.349 N 
HETATM   18  C   UNK N   1      32.060  24.089  -5.522  0.00  0.00     0.128 C 
HETATM   19  C   UNK N   1      30.916  24.325  -3.339  0.00  0.00     0.242 C 
HETATM   20  C   UNK N   1      31.772  23.047  -6.618  0.00  0.00     0.052 C 
HETATM   21  O   UNK N   1      30.628  23.852  -2.250  0.00  0.00    -0.268 OA
BRANCH  19  22
HETATM   22  C   UNK N   1      30.377  25.683  -3.644  0.00  0.00     0.064 C 
HETATM   23  C   UNK N   1      30.964  26.838  -3.334  0.00  0.00     0.017 C 
ENDBRANCH  19  22
ENDBRANCH  13  14
ENDBRANCH   6  13
BRANCH   1  24
HETATM   24  O   UNK N   1      29.935  19.705  -7.939  0.00  0.00    -0.353 OA
HETATM   25  C   UNK N   1      29.498  18.401  -7.986  0.00  0.00     0.210 C 
ENDBRANCH   1  24
BRANCH   7  26
HETATM   26  N   UNK N   1      26.984  24.597  -5.012  0.00  0.00    -0.339 N 
HETATM   27  H   UNK N   1      27.304  24.062  -4.249  0.00  0.00     0.167 HD
BRANCH  26  28
HETATM   28  C   UNK N   1      26.827  25.999  -4.817  0.00  0.00     0.074 A 
HETATM   29  C   UNK N   1      26.094  26.508  -3.733  0.00  0.00     0.034 A 
HETATM   30  C   UNK N   1      25.993  27.883  -3.526  0.00  0.00     0.028 A 
HETATM   31  C   UNK N   1      26.630  28.772  -4.393  0.00  0.00     0.059 A 
HETATM   32  C   UNK N   1      27.371  28.278  -5.481  0.00  0.00     0.096 A 
HETATM   33 Cl   UNK N   1      26.489  30.495  -4.088  0.00  0.00    -0.082 Cl
HETATM   34  C   UNK N   1      27.468  26.892  -5.687  0.00  0.00     0.166 A 
HETATM   35 Cl   UNK N   1      28.189  29.379  -6.584  0.00  0.00    -0.079 Cl
HETATM   36  F   UNK N   1      28.195  26.413  -6.730  0.00  0.00    -0.202 F 
ENDBRANCH  26  28
ENDBRANCH   7  26
TORSDOF 6
ENDMDL
MODEL 9
REMARK VINA RESULT:      -7.6     13.282     15.600
REMARK  6 active torsions:
REMARK  status: ('A' for Active; 'I' for Inactive)
REMARK    1  A    between atoms: O_2  and  C_3 
REMARK    2  A    between atoms: C_8  and  O_9 
REMARK    3  A    between atoms: O_9  and  C_10 
REMARK       I    between atoms: N_13  and  C_16 
REMARK    4  A    between atoms: C_16  and  C_18 
REMARK    5  A    between atoms: C_20  and  N_26 
REMARK    6  A    between atoms: N_26  and  C_27 
ROOT
HETATM    1  C   UNK N   1      30.608  27.397  -3.813  0.00  0.00     0.103 A 
HETATM    2  C   UNK N   1      30.058  28.640  -3.460  0.00  0.00     0.070 A 
HETATM    3  C   UNK N   1      28.674  28.815  -3.429  0.00  0.00     0.050 A 
HETATM    4  C   UNK N   1      27.820  27.747  -3.765  0.00  0.00     0.038 A 
HETATM    5  C   UNK N   1      28.367  26.496  -4.088  0.00  0.00     0.057 A 
HETATM    6  C   UNK N   1      29.761  26.322  -4.108  0.00  0.00     0.103 A 
HETATM    7  C   UNK N   1      26.439  27.981  -3.797  0.00  0.00     0.119 A 
HETATM    8  N   UNK N   1      25.968  29.217  -3.467  0.00  0.00    -0.338 N 
ATOM      9  HN  UNK N   1      24.963  29.391  -3.490  1.00  0.00     0.168 HD
HETATM   10  C   UNK N   1      26.808  30.222  -3.108  0.00  0.00     0.182 A 
HETATM   11  N   UNK N   1      28.151  30.024  -3.102  0.00  0.00    -0.351 N 
ATOM     12  HN  UNK N   1      28.774  30.791  -2.850  1.00  0.00     0.166 HD
ENDROOT
BRANCH   6  13
HETATM   13  O   UNK N   1      30.310  25.120  -4.395  0.00  0.00    -0.343 OA
BRANCH  13  14
HETATM   14  C   UNK N   1      29.796  24.274  -5.355  0.00  0.00     0.132 C 
HETATM   15  C   UNK N   1      29.015  23.149  -4.657  0.00  0.00     0.052 C 
HETATM   16  C   UNK N   1      29.938  22.461  -3.639  0.00  0.00     0.128 C 
HETATM   17  N   UNK N   1      31.252  22.173  -4.205  0.00  0.00    -0.349 N 
HETATM   18  C   UNK N   1      31.435  22.306  -5.640  0.00  0.00     0.128 C 
HETATM   19  C   UNK N   1      32.268  21.771  -3.370  0.00  0.00     0.242 C 
HETATM   20  C   UNK N   1      30.957  23.673  -6.159  0.00  0.00     0.052 C 
HETATM   21  O   UNK N   1      32.063  21.705  -2.167  0.00  0.00    -0.268 OA
BRANCH  19  22
HETATM   22  C   UNK N   1      33.633  21.393  -3.841  0.00  0.00     0.064 C 
HETATM   23  C   UNK N   1      34.202  20.198  -3.689  0.00  0.00     0.017 C 
ENDBRANCH  19  22
ENDBRANCH  13  14
ENDBRANCH   6  13
BRANCH   1  24
HETATM   24  O   UNK N   1      31.951  27.202  -3.848  0.00  0.00    -0.353 OA
HETATM   25  C   UNK N   1      32.748  27.607  -4.893  0.00  0.00     0.210 C 
ENDBRANCH   1  24
BRANCH   7  26
HETATM   26  N   UNK N   1      25.547  26.952  -4.214  0.00  0.00    -0.339 N 
HETATM   27  H   UNK N   1      24.834  26.686  -3.588  0.00  0.00     0.167 HD
BRANCH  26  28
HETATM   28  C   UNK N   1      25.609  26.281  -5.469  0.00  0.00     0.074 A 
HETATM   29  C   UNK N   1      25.668  26.994  -6.676  0.00  0.00     0.034 A 
HETATM   30  C   UNK N   1      25.781  26.323  -7.893  0.00  0.00     0.028 A 
HETATM   31  C   UNK N   1      25.845  24.929  -7.923  0.00  0.00     0.059 A 
HETATM   32  C   UNK N   1      25.792  24.201  -6.722  0.00  0.00     0.096 A 
HETATM   33 Cl   UNK N   1      26.002  24.125  -9.476  0.00  0.00    -0.082 Cl
HETATM   34  C   UNK N   1      25.676  24.881  -5.498  0.00  0.00     0.166 A 
HETATM   35 Cl   UNK N   1      25.879  22.443  -6.733  0.00  0.00    -0.079 Cl
HETATM   36  F   UNK N   1      25.637  24.179  -4.336  0.00  0.00    -0.202 F 
ENDBRANCH  26  28
ENDBRANCH   7  26
TORSDOF 6
ENDMDL
