MODEL 1
REMARK VINA RESULT:      -5.9      0.000      0.000
REMARK  0 active torsions:
REMARK  status: ('A' for Active; 'I' for Inactive)
ROOT
HETATM    1  C   UNK N   1      25.379  22.164  -7.555  0.00  0.00     0.020 A 
HETATM    2  C   UNK N   1      25.724  22.759  -6.339  0.00  0.00     0.040 A 
HETATM    3  C   UNK N   1      25.937  24.135  -6.280  0.00  0.00     0.091 A 
HETATM    4  C   UNK N   1      25.777  24.913  -7.442  0.00  0.00     0.043 A 
HETATM    5  N   UNK N   1      25.438  24.305  -8.617  0.00  0.00    -0.367 N 
ATOM      6  HN  UNK N   1      25.328  24.872  -9.457  1.00  0.00     0.165 HD
HETATM    7  C   UNK N   1      25.244  22.962  -8.694  0.00  0.00     0.088 A 
HETATM    8  C   UNK N   1      26.006  26.398  -7.416  0.00  0.00     0.073 C 
HETATM    9  C   UNK N   1      26.259  26.962  -6.011  0.00  0.00     0.020 C 
HETATM   10  C   UNK N   1      27.039  28.255  -6.079  0.00  0.00     0.044 C 
HETATM   11  C   UNK N   1      26.625  28.992  -4.806  0.00  0.00     0.273 C 
HETATM   12  N   UNK N   1      25.510  28.238  -4.213  0.00  0.00     0.089 N 
HETATM   13  C   UNK N   1      25.005  27.417  -5.308  0.00  0.00     0.284 C 
HETATM   14  C   UNK N   1      26.024  27.324  -3.175  0.00  0.00     0.275 C 
HETATM   15  C   UNK N   1      27.189  26.438  -3.673  0.00  0.00     0.063 C 
HETATM   16  C   UNK N   1      26.975  25.929  -5.110  0.00  0.00     0.141 C 
HETATM   17  O   UNK N   1      26.316  24.716  -5.112  0.00  0.00    -0.343 OA
ENDROOT
TORSDOF 0
ENDMDL
MODEL 2
REMARK VINA RESULT:      -5.8     14.965     16.763
REMARK  0 active torsions:
REMARK  status: ('A' for Active; 'I' for Inactive)
ROOT
HETATM    1  C   UNK N   1      28.226  18.101   9.111  0.00  0.00     0.020 A 
HETATM    2  C   UNK N   1      28.344  17.665   7.789  0.00  0.00     0.040 A 
HETATM    3  C   UNK N   1      29.608  17.442   7.247  0.00  0.00     0.091 A 
HETATM    4  C   UNK N   1      30.751  17.633   8.045  0.00  0.00     0.043 A 
HETATM    5  N   UNK N   1      30.606  18.058   9.335  0.00  0.00    -0.367 N 
ATOM      6  HN  UNK N   1      31.437  18.200   9.908  1.00  0.00     0.165 HD
HETATM    7  C   UNK N   1      29.381  18.297   9.873  0.00  0.00     0.088 A 
HETATM    8  C   UNK N   1      32.129  17.408   7.490  0.00  0.00     0.073 C 
HETATM    9  C   UNK N   1      32.138  16.817   6.073  0.00  0.00     0.020 C 
HETATM   10  C   UNK N   1      33.425  17.152   5.354  0.00  0.00     0.044 C 
HETATM   11  C   UNK N   1      33.583  16.012   4.349  0.00  0.00     0.273 C 
HETATM   12  N   UNK N   1      32.564  15.003   4.675  0.00  0.00     0.089 N 
HETATM   13  C   UNK N   1      32.178  15.310   6.049  0.00  0.00     0.284 C 
HETATM   14  C   UNK N   1      31.374  15.205   3.826  0.00  0.00     0.275 C 
HETATM   15  C   UNK N   1      30.851  16.660   3.853  0.00  0.00     0.063 C 
HETATM   16  C   UNK N   1      30.909  17.284   5.259  0.00  0.00     0.141 C 
HETATM   17  O   UNK N   1      29.734  17.061   5.948  0.00  0.00    -0.343 OA
ENDROOT
TORSDOF 0
ENDMDL
MODEL 3
REMARK VINA RESULT:      -5.7     17.000     18.747
REMARK  0 active torsions:
REMARK  status: ('A' for Active; 'I' for Inactive)
ROOT
HETATM    1  C   UNK N   1      36.276  15.305  10.434  0.00  0.00     0.020 A 
HETATM    2  C   UNK N   1      35.856  14.833   9.187  0.00  0.00     0.040 A 
HETATM    3  C   UNK N   1      34.838  15.497   8.506  0.00  0.00     0.091 A 
HETATM    4  C   UNK N   1      34.262  16.651   9.069  0.00  0.00     0.043 A 
HETATM    5  N   UNK N   1      34.693  17.091  10.288  0.00  0.00    -0.367 N 
ATOM      6  HN  UNK N   1      34.270  17.925  10.694  1.00  0.00     0.165 HD
HETATM    7  C   UNK N   1      35.672  16.445  10.973  0.00  0.00     0.088 A 
HETATM    8  C   UNK N   1      33.157  17.387   8.364  0.00  0.00     0.073 C 
HETATM    9  C   UNK N   1      32.859  16.857   6.955  0.00  0.00     0.020 C 
HETATM   10  C   UNK N   1      31.443  17.184   6.541  0.00  0.00     0.044 C 
HETATM   11  C   UNK N   1      31.517  17.238   5.015  0.00  0.00     0.273 C 
HETATM   12  N   UNK N   1      32.940  17.176   4.649  0.00  0.00     0.089 N 
HETATM   13  C   UNK N   1      33.645  17.550   5.871  0.00  0.00     0.284 C 
HETATM   14  C   UNK N   1      33.313  15.784   4.333  0.00  0.00     0.275 C 
HETATM   15  C   UNK N   1      32.902  14.782   5.438  0.00  0.00     0.063 C 
HETATM   16  C   UNK N   1      33.130  15.338   6.855  0.00  0.00     0.141 C 
HETATM   17  O   UNK N   1      34.393  15.019   7.314  0.00  0.00    -0.343 OA
ENDROOT
TORSDOF 0
ENDMDL
MODEL 4
REMARK VINA RESULT:      -5.7      2.775      4.329
REMARK  0 active torsions:
REMARK  status: ('A' for Active; 'I' for Inactive)
ROOT
HETATM    1  C   UNK N   1      30.836  23.731  -2.861  0.00  0.00     0.020 A 
HETATM    2  C   UNK N   1      30.526  24.837  -3.658  0.00  0.00     0.040 A 
HETATM    3  C   UNK N   1      29.198  25.099  -3.986  0.00  0.00     0.091 A 
HETATM    4  C   UNK N   1      28.181  24.262  -3.491  0.00  0.00     0.043 A 
HETATM    5  N   UNK N   1      28.513  23.190  -2.712  0.00  0.00    -0.367 N 
ATOM      6  HN  UNK N   1      27.773  22.583  -2.359  1.00  0.00     0.165 HD
HETATM    7  C   UNK N   1      29.805  22.911  -2.398  0.00  0.00     0.088 A 
HETATM    8  C   UNK N   1      26.739  24.512  -3.831  0.00  0.00     0.073 C 
HETATM    9  C   UNK N   1      26.501  25.815  -4.607  0.00  0.00     0.020 C 
HETATM   10  C   UNK N   1      25.225  25.741  -5.413  0.00  0.00     0.044 C 
HETATM   11  C   UNK N   1      24.790  27.201  -5.534  0.00  0.00     0.273 C 
HETATM   12  N   UNK N   1      25.658  27.985  -4.643  0.00  0.00     0.089 N 
HETATM   13  C   UNK N   1      26.216  27.001  -3.721  0.00  0.00     0.284 C 
HETATM   14  C   UNK N   1      26.780  28.554  -5.414  0.00  0.00     0.275 C 
HETATM   15  C   UNK N   1      27.532  27.496  -6.256  0.00  0.00     0.063 C 
HETATM   16  C   UNK N   1      27.708  26.161  -5.509  0.00  0.00     0.141 C 
HETATM   17  O   UNK N   1      28.891  26.145  -4.797  0.00  0.00    -0.343 OA
ENDROOT
TORSDOF 0
ENDMDL
MODEL 5
REMARK VINA RESULT:      -5.5      1.523      5.305
REMARK  0 active torsions:
REMARK  status: ('A' for Active; 'I' for Inactive)
ROOT
HETATM    1  C   UNK N   1      25.443  27.990  -4.153  0.00  0.00     0.020 A 
HETATM    2  C   UNK N   1      25.334  27.452  -5.439  0.00  0.00     0.040 A 
HETATM    3  C   UNK N   1      25.883  26.202  -5.711  0.00  0.00     0.091 A 
HETATM    4  C   UNK N   1      26.519  25.482  -4.682  0.00  0.00     0.043 A 
HETATM    5  N   UNK N   1      26.609  26.031  -3.435  0.00  0.00    -0.367 N 
ATOM      6  HN  UNK N   1      27.076  25.508  -2.694  1.00  0.00     0.165 HD
HETATM    7  C   UNK N   1      26.095  27.257  -3.158  0.00  0.00     0.088 A 
HETATM    8  C   UNK N   1      27.129  24.133  -4.943  0.00  0.00     0.073 C 
HETATM    9  C   UNK N   1      26.846  23.587  -6.350  0.00  0.00     0.020 C 
HETATM   10  C   UNK N   1      27.904  22.591  -6.767  0.00  0.00     0.044 C 
HETATM   11  C   UNK N   1      27.176  21.689  -7.764  0.00  0.00     0.273 C 
HETATM   12  N   UNK N   1      25.750  22.041  -7.703  0.00  0.00     0.089 N 
HETATM   13  C   UNK N   1      25.603  22.739  -6.430  0.00  0.00     0.284 C 
HETATM   14  C   UNK N   1      25.427  23.003  -8.774  0.00  0.00     0.275 C 
HETATM   15  C   UNK N   1      26.376  24.224  -8.796  0.00  0.00     0.063 C 
HETATM   16  C   UNK N   1      26.723  24.730  -7.384  0.00  0.00     0.141 C 
HETATM   17  O   UNK N   1      25.821  25.691  -6.969  0.00  0.00    -0.343 OA
ENDROOT
TORSDOF 0
ENDMDL
MODEL 6
REMARK VINA RESULT:      -5.3     20.314     22.033
REMARK  0 active torsions:
REMARK  status: ('A' for Active; 'I' for Inactive)
ROOT
HETATM    1  C   UNK N   1      35.762  12.995  13.857  0.00  0.00     0.020 A 
HETATM    2  C   UNK N   1      34.986  12.843  12.705  0.00  0.00     0.040 A 
HETATM    3  C   UNK N   1      34.929  13.875  11.772  0.00  0.00     0.091 A 
HETATM    4  C   UNK N   1      35.674  15.050  11.987  0.00  0.00     0.043 A 
HETATM    5  N   UNK N   1      36.426  15.169  13.121  0.00  0.00    -0.367 N 
ATOM      6  HN  UNK N   1      36.960  16.024  13.275  1.00  0.00     0.165 HD
HETATM    7  C   UNK N   1      36.478  14.179  14.049  0.00  0.00     0.088 A 
HETATM    8  C   UNK N   1      35.630  16.186  11.004  0.00  0.00     0.073 C 
HETATM    9  C   UNK N   1      34.848  15.867   9.722  0.00  0.00     0.020 C 
HETATM   10  C   UNK N   1      34.333  17.131   9.073  0.00  0.00     0.044 C 
HETATM   11  C   UNK N   1      34.223  16.757   7.595  0.00  0.00     0.273 C 
HETATM   12  N   UNK N   1      34.865  15.444   7.432  0.00  0.00     0.089 N 
HETATM   13  C   UNK N   1      35.704  15.302   8.618  0.00  0.00     0.284 C 
HETATM   14  C   UNK N   1      33.844  14.380   7.483  0.00  0.00     0.275 C 
HETATM   15  C   UNK N   1      32.926  14.482   8.724  0.00  0.00     0.063 C 
HETATM   16  C   UNK N   1      33.694  14.875   9.998  0.00  0.00     0.141 C 
HETATM   17  O   UNK N   1      34.142  13.755  10.670  0.00  0.00    -0.343 OA
ENDROOT
TORSDOF 0
ENDMDL
MODEL 7
REMARK VINA RESULT:      -5.2     14.393     16.151
REMARK  0 active torsions:
REMARK  status: ('A' for Active; 'I' for Inactive)
ROOT
HETATM    1  C   UNK N   1      34.007  17.605   7.258  0.00  0.00     0.020 A 
HETATM    2  C   UNK N   1      33.181  17.391   6.151  0.00  0.00     0.040 A 
HETATM    3  C   UNK N   1      31.806  17.263   6.332  0.00  0.00     0.091 A 
HETATM    4  C   UNK N   1      31.261  17.376   7.625  0.00  0.00     0.043 A 
HETATM    5  N   UNK N   1      32.092  17.587   8.688  0.00  0.00    -0.367 N 
ATOM      6  HN  UNK N   1      31.693  17.663   9.624  1.00  0.00     0.165 HD
HETATM    7  C   UNK N   1      33.437  17.697   8.530  0.00  0.00     0.088 A 
HETATM    8  C   UNK N   1      29.783  17.235   7.857  0.00  0.00     0.073 C 
HETATM    9  C   UNK N   1      28.960  17.124   6.565  0.00  0.00     0.020 C 
HETATM   10  C   UNK N   1      27.648  16.417   6.817  0.00  0.00     0.044 C 
HETATM   11  C   UNK N   1      26.727  16.970   5.731  0.00  0.00     0.273 C 
HETATM   12  N   UNK N   1      27.439  18.083   5.085  0.00  0.00     0.089 N 
HETATM   13  C   UNK N   1      28.477  18.453   6.043  0.00  0.00     0.284 C 
HETATM   14  C   UNK N   1      28.115  17.601   3.866  0.00  0.00     0.275 C 
HETATM   15  C   UNK N   1      28.991  16.351   4.114  0.00  0.00     0.063 C 
HETATM   16  C   UNK N   1      29.762  16.423   5.445  0.00  0.00     0.141 C 
HETATM   17  O   UNK N   1      31.000  17.010   5.268  0.00  0.00    -0.343 OA
ENDROOT
TORSDOF 0
ENDMDL
MODEL 8
REMARK VINA RESULT:      -5.2     15.059     16.585
REMARK  0 active torsions:
REMARK  status: ('A' for Active; 'I' for Inactive)
ROOT
HETATM    1  C   UNK N   1      27.823  18.555   6.254  0.00  0.00     0.020 A 
HETATM    2  C   UNK N   1      28.682  17.986   7.198  0.00  0.00     0.040 A 
HETATM    3  C   UNK N   1      29.918  17.488   6.793  0.00  0.00     0.091 A 
HETATM    4  C   UNK N   1      30.299  17.588   5.441  0.00  0.00     0.043 A 
HETATM    5  N   UNK N   1      29.440  18.151   4.542  0.00  0.00    -0.367 N 
ATOM      6  HN  UNK N   1      29.718  18.217   3.562  1.00  0.00     0.165 HD
HETATM    7  C   UNK N   1      28.224  18.625   4.918  0.00  0.00     0.088 A 
HETATM    8  C   UNK N   1      31.622  17.055   4.968  0.00  0.00     0.073 C 
HETATM    9  C   UNK N   1      32.534  16.563   6.102  0.00  0.00     0.020 C 
HETATM   10  C   UNK N   1      33.526  15.542   5.595  0.00  0.00     0.044 C 
HETATM   11  C   UNK N   1      34.705  15.676   6.559  0.00  0.00     0.273 C 
HETATM   12  N   UNK N   1      34.452  16.864   7.388  0.00  0.00     0.089 N 
HETATM   13  C   UNK N   1      33.459  17.626   6.636  0.00  0.00     0.284 C 
HETATM   14  C   UNK N   1      33.827  16.460   8.661  0.00  0.00     0.275 C 
HETATM   15  C   UNK N   1      32.589  15.553   8.465  0.00  0.00     0.063 C 
HETATM   16  C   UNK N   1      31.710  15.998   7.282  0.00  0.00     0.141 C 
HETATM   17  O   UNK N   1      30.741  16.892   7.695  0.00  0.00    -0.343 OA
ENDROOT
TORSDOF 0
ENDMDL
MODEL 9
REMARK VINA RESULT:      -5.2     24.445     26.010
REMARK  0 active torsions:
REMARK  status: ('A' for Active; 'I' for Inactive)
ROOT
HETATM    1  C   UNK N   1      37.951  13.109   9.932  0.00  0.00     0.020 A 
HETATM    2  C   UNK N   1      37.915  12.140  10.938  0.00  0.00     0.040 A 
HETATM    3  C   UNK N   1      37.307  12.434  12.156  0.00  0.00     0.091 A 
HETATM    4  C   UNK N   1      36.712  13.695  12.351  0.00  0.00     0.043 A 
HETATM    5  N   UNK N   1      36.761  14.621  11.349  0.00  0.00    -0.367 N 
ATOM      6  HN  UNK N   1      36.333  15.536  11.496  1.00  0.00     0.165 HD
HETATM    7  C   UNK N   1      37.366  14.357  10.162  0.00  0.00     0.088 A 
HETATM    8  C   UNK N   1      36.054  14.047  13.655  0.00  0.00     0.073 C 
HETATM    9  C   UNK N   1      35.965  12.874  14.641  0.00  0.00     0.020 C 
HETATM   10  C   UNK N   1      35.867  13.370  16.066  0.00  0.00     0.044 C 
HETATM   11  C   UNK N   1      35.128  12.244  16.789  0.00  0.00     0.273 C 
HETATM   12  N   UNK N   1      34.653  11.308  15.759  0.00  0.00     0.089 N 
HETATM   13  C   UNK N   1      34.688  12.082  14.522  0.00  0.00     0.284 C 
HETATM   14  C   UNK N   1      35.613  10.198  15.614  0.00  0.00     0.275 C 
HETATM   15  C   UNK N   1      37.068  10.680  15.403  0.00  0.00     0.063 C 
HETATM   16  C   UNK N   1      37.157  11.904  14.472  0.00  0.00     0.141 C 
HETATM   17  O   UNK N   1      37.307  11.514  13.156  0.00  0.00    -0.343 OA
ENDROOT
TORSDOF 0
ENDMDL
