REMARK  0 active torsions:
REMARK  status: ('A' for Active; 'I' for Inactive)
ROOT
HETATM    1  C   UNK N   1       2.105  -1.432   1.122  0.00  0.00     0.030 C 
HETATM    2  C   UNK N   1       1.908   1.489  -1.634  0.00  0.00     0.030 C 
HETATM    3  C   UNK N   1      -0.607  -0.287  -1.073  0.00  0.00     0.036 C 
HETATM    4  C   UNK N   1      -0.652   1.176  -0.691  0.00  0.00     0.036 C 
HETATM    5  C   UNK N   1       0.278  -0.835   0.049  0.00  0.00     0.141 C 
HETATM    6  C   UNK N   1       0.410   1.200   0.405  0.00  0.00     0.141 C 
HETATM    7  C   UNK N   1       3.343  -0.788  -0.432  0.00  0.00     0.278 C 
HETATM    8  C   UNK N   1       3.101   1.190   0.400  0.00  0.00     0.278 C 
HETATM    9  C   UNK N   1       1.826  -0.743  -0.250  0.00  0.00     0.090 C 
HETATM   10  C   UNK N   1       1.793   0.856  -0.229  0.00  0.00     0.090 C 
HETATM   11  O   UNK N   1       3.934  -1.752  -0.900  0.00  0.00    -0.264 OA
HETATM   12  O   UNK N   1       3.421   2.305   0.783  0.00  0.00    -0.264 OA
HETATM   13  O   UNK N   1       0.057   0.065   1.118  0.00  0.00    -0.378 OA
HETATM   14  O   UNK N   1       4.003   0.260   0.098  0.00  0.00    -0.244 OA
ENDROOT
TORSDOF 0
