MODEL 1
REMARK VINA RESULT:      -8.3      0.000      0.000
REMARK  10 active torsions:
REMARK  status: ('A' for Active; 'I' for Inactive)
REMARK    1  A    between atoms: O_2  and  C_3 
REMARK       I    between atoms: C_3  and  N_5 
REMARK    2  A    between atoms: C_8  and  C_11 
REMARK    3  A    between atoms: C_11  and  C_12 
REMARK    4  A    between atoms: C_13  and  C_14 
REMARK    5  A    between atoms: C_17  and  N_39 
REMARK    6  A    between atoms: C_26  and  N_22 
REMARK    7  A    between atoms: C_27  and  O_38 
REMARK    8  A    between atoms: C_28  and  O_37 
REMARK    9  A    between atoms: C_29  and  C_31 
REMARK       I    between atoms: C_31  and  N_33 
REMARK   10  A    between atoms: N_33  and  C_34 
ROOT
HETATM    1  C   UNK N   1      25.518  17.037   5.366  0.00  0.00     0.164 A 
HETATM    2  N   UNK N   1      26.741  17.537   4.979  0.00  0.00    -0.320 N 
ATOM      3  HN  UNK N   1      27.597  17.083   5.298  1.00  0.00     0.169 HD
HETATM    4  C   UNK N   1      26.819  18.641   4.168  0.00  0.00     0.132 A 
HETATM    5  C   UNK N   1      25.626  19.224   3.744  0.00  0.00     0.122 A 
HETATM    6  C   UNK N   1      24.457  18.700   4.142  0.00  0.00     0.143 A 
HETATM    7  N   UNK N   1      24.375  17.622   4.943  0.00  0.00    -0.319 N 
ATOM      8  HN  UNK N   1      23.468  17.253   5.224  1.00  0.00     0.169 HD
HETATM    9  N   UNK N   1      23.442  19.419   3.660  0.00  0.00    -0.297 N 
HETATM   10  C   UNK N   1      24.031  20.414   2.944  0.00  0.00     0.188 A 
HETATM   11  N   UNK N   1      25.396  20.306   2.975  0.00  0.00    -0.346 N 
ATOM     12  HN  UNK N   1      26.081  20.908   2.520  1.00  0.00     0.167 HD
ENDROOT
BRANCH   9  13
HETATM   13  C   UNK N   1      22.020  19.196   3.962  0.00  0.00     0.263 C 
HETATM   14  C   UNK N   1      21.064  19.842   2.993  0.00  0.00     0.199 C 
HETATM   15  C   UNK N   1      19.884  18.927   3.141  0.00  0.00     0.189 C 
HETATM   16  C   UNK N   1      20.635  17.607   3.124  0.00  0.00     0.247 C 
HETATM   17  O   UNK N   1      21.737  17.813   3.971  0.00  0.00    -0.346 OA
BRANCH  14  18
HETATM   18  O   UNK N   1      20.753  21.139   3.401  0.00  0.00    -0.388 OA
HETATM   19  H   UNK N   1      21.256  21.610   4.084  0.00  0.00     0.210 HD
ENDBRANCH  14  18
BRANCH  15  20
HETATM   20  O   UNK N   1      19.039  19.083   2.044  0.00  0.00    -0.390 OA
HETATM   21  H   UNK N   1      18.744  18.667   1.218  0.00  0.00     0.210 HD
ENDBRANCH  15  20
BRANCH  16  22
HETATM   22  C   UNK N   1      19.982  16.291   3.544  0.00  0.00     0.249 C 
HETATM   23  O   UNK N   1      19.788  16.117   4.737  0.00  0.00    -0.271 OA
HETATM   24  N   UNK N   1      19.631  15.291   2.697  0.00  0.00    -0.354 N 
HETATM   25  H   UNK N   1      19.221  14.488   3.096  0.00  0.00     0.162 HD
BRANCH  24  26
HETATM   26  C   UNK N   1      19.803  15.298   1.276  0.00  0.00     0.084 A 
HETATM   27  C   UNK N   1      19.017  14.148   0.683  0.00  0.00     0.027 A 
HETATM   28  C   UNK N   1      20.512  14.022   0.872  0.00  0.00     0.027 A 
ENDBRANCH  24  26
ENDBRANCH  16  22
ENDBRANCH   9  13
BRANCH   4  29
HETATM   29  N   UNK N   1      28.072  19.166   3.791  0.00  0.00    -0.383 N 
HETATM   30  H   UNK N   1      28.677  18.652   3.210  0.00  0.00     0.157 HD
HETATM   31  H   UNK N   1      28.343  20.056   4.112  0.00  0.00     0.157 HD
ENDBRANCH   4  29
BRANCH   1  32
HETATM   32  C   UNK N   1      25.420  15.853   6.149  0.00  0.00    -0.030 C 
HETATM   33  C   UNK N   1      25.257  14.900   6.859  0.00  0.00    -0.098 C 
BRANCH  33  34
HETATM   34  C   UNK N   1      24.827  13.747   7.647  0.00  0.00     0.099 C 
BRANCH  34  35
HETATM   35  C   UNK N   1      23.434  13.248   7.199  0.00  0.00    -0.000 C 
HETATM   36  C   UNK N   1      22.595  12.506   8.268  0.00  0.00     0.025 C 
HETATM   37  C   UNK N   1      22.086  13.493   9.324  0.00  0.00     0.128 C 
HETATM   38  N   UNK N   1      21.345  14.532   8.650  0.00  0.00    -0.328 N 
HETATM   39  C   UNK N   1      20.027  14.732   8.972  0.00  0.00     0.362 C 
HETATM   40  C   UNK N   1      22.047  15.306   7.645  0.00  0.00     0.128 C 
HETATM   41  O   UNK N   1      19.540  14.104   9.901  0.00  0.00    -0.238 OA
HETATM   42  C   UNK N   1      22.612  14.375   6.572  0.00  0.00     0.025 C 
BRANCH  39  43
HETATM   43  O   UNK N   1      19.219  15.596   8.297  0.00  0.00    -0.309 OA
HETATM   44  C   UNK N   1      18.746  16.795   8.777  0.00  0.00     0.215 C 
ENDBRANCH  39  43
ENDBRANCH  34  35
ENDBRANCH  33  34
ENDBRANCH   1  32
TORSDOF 10
ENDMDL
MODEL 2
REMARK VINA RESULT:      -8.3      4.629      8.084
REMARK  10 active torsions:
REMARK  status: ('A' for Active; 'I' for Inactive)
REMARK    1  A    between atoms: O_2  and  C_3 
REMARK       I    between atoms: C_3  and  N_5 
REMARK    2  A    between atoms: C_8  and  C_11 
REMARK    3  A    between atoms: C_11  and  C_12 
REMARK    4  A    between atoms: C_13  and  C_14 
REMARK    5  A    between atoms: C_17  and  N_39 
REMARK    6  A    between atoms: C_26  and  N_22 
REMARK    7  A    between atoms: C_27  and  O_38 
REMARK    8  A    between atoms: C_28  and  O_37 
REMARK    9  A    between atoms: C_29  and  C_31 
REMARK       I    between atoms: C_31  and  N_33 
REMARK   10  A    between atoms: N_33  and  C_34 
ROOT
HETATM    1  C   UNK N   1      25.129  15.735   5.920  0.00  0.00     0.164 A 
HETATM    2  N   UNK N   1      24.572  14.925   6.883  0.00  0.00    -0.320 N 
ATOM      3  HN  UNK N   1      25.173  14.328   7.451  1.00  0.00     0.169 HD
HETATM    4  C   UNK N   1      23.216  14.914   7.088  0.00  0.00     0.132 A 
HETATM    5  C   UNK N   1      22.431  15.754   6.300  0.00  0.00     0.122 A 
HETATM    6  C   UNK N   1      23.017  16.531   5.377  0.00  0.00     0.143 A 
HETATM    7  N   UNK N   1      24.345  16.540   5.167  0.00  0.00    -0.319 N 
ATOM      8  HN  UNK N   1      24.754  17.144   4.455  1.00  0.00     0.169 HD
HETATM    9  N   UNK N   1      22.095  17.228   4.709  0.00  0.00    -0.297 N 
HETATM   10  C   UNK N   1      20.910  16.853   5.260  0.00  0.00     0.188 A 
HETATM   11  N   UNK N   1      21.097  15.938   6.262  0.00  0.00    -0.346 N 
ATOM     12  HN  UNK N   1      20.387  15.498   6.847  1.00  0.00     0.167 HD
ENDROOT
BRANCH   9  13
HETATM   13  C   UNK N   1      22.360  18.115   3.566  0.00  0.00     0.263 C 
HETATM   14  C   UNK N   1      21.495  19.347   3.515  0.00  0.00     0.199 C 
HETATM   15  C   UNK N   1      22.401  20.272   2.756  0.00  0.00     0.189 C 
HETATM   16  C   UNK N   1      23.693  19.948   3.484  0.00  0.00     0.247 C 
HETATM   17  O   UNK N   1      23.703  18.546   3.587  0.00  0.00    -0.346 OA
BRANCH  14  18
HETATM   18  O   UNK N   1      20.320  19.094   2.806  0.00  0.00    -0.388 OA
HETATM   19  H   UNK N   1      20.143  19.477   1.932  0.00  0.00     0.210 HD
ENDBRANCH  14  18
BRANCH  15  20
HETATM   20  O   UNK N   1      21.985  21.588   2.949  0.00  0.00    -0.390 OA
HETATM   21  H   UNK N   1      21.724  22.234   3.625  0.00  0.00     0.210 HD
ENDBRANCH  15  20
BRANCH  16  22
HETATM   22  C   UNK N   1      25.060  20.372   2.949  0.00  0.00     0.249 C 
HETATM   23  O   UNK N   1      25.121  20.724   1.781  0.00  0.00    -0.271 OA
HETATM   24  N   UNK N   1      26.215  20.357   3.662  0.00  0.00    -0.354 N 
HETATM   25  H   UNK N   1      27.033  20.650   3.197  0.00  0.00     0.162 HD
BRANCH  24  26
HETATM   26  C   UNK N   1      26.349  19.952   5.028  0.00  0.00     0.084 A 
HETATM   27  C   UNK N   1      27.166  20.992   5.766  0.00  0.00     0.027 A 
HETATM   28  C   UNK N   1      27.817  19.704   5.313  0.00  0.00     0.027 A 
ENDBRANCH  24  26
ENDBRANCH  16  22
ENDBRANCH   9  13
BRANCH   4  29
HETATM   29  N   UNK N   1      22.645  14.066   8.059  0.00  0.00    -0.383 N 
HETATM   30  H   UNK N   1      22.947  13.134   8.151  0.00  0.00     0.157 HD
HETATM   31  H   UNK N   1      21.937  14.410   8.650  0.00  0.00     0.157 HD
ENDBRANCH   4  29
BRANCH   1  32
HETATM   32  C   UNK N   1      26.538  15.810   5.743  0.00  0.00    -0.030 C 
HETATM   33  C   UNK N   1      27.722  15.778   5.550  0.00  0.00    -0.098 C 
BRANCH  33  34
HETATM   34  C   UNK N   1      29.104  15.693   5.082  0.00  0.00     0.099 C 
BRANCH  34  35
HETATM   35  C   UNK N   1      30.087  15.512   6.261  0.00  0.00    -0.000 C 
HETATM   36  C   UNK N   1      31.318  14.612   5.996  0.00  0.00     0.025 C 
HETATM   37  C   UNK N   1      32.306  15.323   5.064  0.00  0.00     0.128 C 
HETATM   38  N   UNK N   1      32.654  16.591   5.659  0.00  0.00    -0.328 N 
HETATM   39  C   UNK N   1      33.967  16.854   5.954  0.00  0.00     0.362 C 
HETATM   40  C   UNK N   1      31.574  17.521   5.927  0.00  0.00     0.128 C 
HETATM   41  O   UNK N   1      34.827  16.058   5.603  0.00  0.00    -0.238 OA
HETATM   42  C   UNK N   1      30.532  16.861   6.829  0.00  0.00     0.025 C 
BRANCH  39  43
HETATM   43  O   UNK N   1      34.369  17.964   6.634  0.00  0.00    -0.309 OA
HETATM   44  C   UNK N   1      34.436  18.086   8.002  0.00  0.00     0.215 C 
ENDBRANCH  39  43
ENDBRANCH  34  35
ENDBRANCH  33  34
ENDBRANCH   1  32
TORSDOF 10
ENDMDL
MODEL 3
REMARK VINA RESULT:      -7.7      1.804      2.535
REMARK  10 active torsions:
REMARK  status: ('A' for Active; 'I' for Inactive)
REMARK    1  A    between atoms: O_2  and  C_3 
REMARK       I    between atoms: C_3  and  N_5 
REMARK    2  A    between atoms: C_8  and  C_11 
REMARK    3  A    between atoms: C_11  and  C_12 
REMARK    4  A    between atoms: C_13  and  C_14 
REMARK    5  A    between atoms: C_17  and  N_39 
REMARK    6  A    between atoms: C_26  and  N_22 
REMARK    7  A    between atoms: C_27  and  O_38 
REMARK    8  A    between atoms: C_28  and  O_37 
REMARK    9  A    between atoms: C_29  and  C_31 
REMARK       I    between atoms: C_31  and  N_33 
REMARK   10  A    between atoms: N_33  and  C_34 
ROOT
HETATM    1  C   UNK N   1      25.464  16.737   5.388  0.00  0.00     0.164 A 
HETATM    2  N   UNK N   1      26.795  16.980   5.135  0.00  0.00    -0.320 N 
ATOM      3  HN  UNK N   1      27.505  16.363   5.528  1.00  0.00     0.169 HD
HETATM    4  C   UNK N   1      27.175  18.044   4.357  0.00  0.00     0.132 A 
HETATM    5  C   UNK N   1      26.173  18.855   3.828  0.00  0.00     0.122 A 
HETATM    6  C   UNK N   1      24.888  18.578   4.096  0.00  0.00     0.143 A 
HETATM    7  N   UNK N   1      24.510  17.540   4.864  0.00  0.00    -0.319 N 
ATOM      8  HN  UNK N   1      23.523  17.362   5.047  1.00  0.00     0.169 HD
HETATM    9  N   UNK N   1      24.092  19.488   3.530  0.00  0.00    -0.297 N 
HETATM   10  C   UNK N   1      24.939  20.342   2.896  0.00  0.00     0.188 A 
HETATM   11  N   UNK N   1      26.244  19.961   3.061  0.00  0.00    -0.346 N 
ATOM     12  HN  UNK N   1      27.079  20.412   2.688  1.00  0.00     0.167 HD
ENDROOT
BRANCH   9  13
HETATM   13  C   UNK N   1      22.631  19.556   3.684  0.00  0.00     0.263 C 
HETATM   14  C   UNK N   1      21.918  20.292   2.581  0.00  0.00     0.199 C 
HETATM   15  C   UNK N   1      20.575  19.627   2.647  0.00  0.00     0.189 C 
HETATM   16  C   UNK N   1      21.055  18.193   2.789  0.00  0.00     0.247 C 
HETATM   17  O   UNK N   1      22.088  18.255   3.740  0.00  0.00    -0.346 OA
BRANCH  14  18
HETATM   18  O   UNK N   1      21.824  21.652   2.877  0.00  0.00    -0.388 OA
HETATM   19  H   UNK N   1      22.222  22.045   3.670  0.00  0.00     0.210 HD
ENDBRANCH  14  18
BRANCH  15  20
HETATM   20  O   UNK N   1      19.888  19.853   1.456  0.00  0.00    -0.390 OA
HETATM   21  H   UNK N   1      19.932  20.314   0.603  0.00  0.00     0.210 HD
ENDBRANCH  15  20
BRANCH  16  22
HETATM   22  C   UNK N   1      20.122  17.057   3.207  0.00  0.00     0.249 C 
HETATM   23  O   UNK N   1      19.663  17.096   4.338  0.00  0.00    -0.271 OA
HETATM   24  N   UNK N   1      19.791  15.995   2.430  0.00  0.00    -0.354 N 
HETATM   25  H   UNK N   1      19.183  15.326   2.821  0.00  0.00     0.162 HD
BRANCH  24  26
HETATM   26  C   UNK N   1      20.249  15.760   1.094  0.00  0.00     0.084 A 
HETATM   27  C   UNK N   1      19.246  16.349   0.125  0.00  0.00     0.027 A 
HETATM   28  C   UNK N   1      19.249  14.862   0.395  0.00  0.00     0.027 A 
ENDBRANCH  24  26
ENDBRANCH  16  22
ENDBRANCH   9  13
BRANCH   4  29
HETATM   29  N   UNK N   1      28.539  18.305   4.118  0.00  0.00    -0.383 N 
HETATM   30  H   UNK N   1      29.232  17.937   4.712  0.00  0.00     0.157 HD
HETATM   31  H   UNK N   1      28.801  18.861   3.349  0.00  0.00     0.157 HD
ENDBRANCH   4  29
BRANCH   1  32
HETATM   32  C   UNK N   1      25.051  15.598   6.134  0.00  0.00    -0.030 C 
HETATM   33  C   UNK N   1      24.611  14.644   6.712  0.00  0.00    -0.098 C 
BRANCH  33  34
HETATM   34  C   UNK N   1      24.027  13.392   7.193  0.00  0.00     0.099 C 
BRANCH  34  35
HETATM   35  C   UNK N   1      22.530  13.565   7.536  0.00  0.00    -0.000 C 
HETATM   36  C   UNK N   1      21.748  14.599   6.689  0.00  0.00     0.025 C 
HETATM   37  C   UNK N   1      21.533  14.068   5.267  0.00  0.00     0.128 C 
HETATM   38  N   UNK N   1      20.862  12.794   5.359  0.00  0.00    -0.328 N 
HETATM   39  C   UNK N   1      19.643  12.633   4.752  0.00  0.00     0.362 C 
HETATM   40  C   UNK N   1      21.523  11.745   6.111  0.00  0.00     0.128 C 
HETATM   41  O   UNK N   1      19.202  13.535   4.053  0.00  0.00    -0.238 OA
HETATM   42  C   UNK N   1      21.799  12.222   7.537  0.00  0.00     0.025 C 
BRANCH  39  43
HETATM   43  O   UNK N   1      18.881  11.513   4.898  0.00  0.00    -0.309 OA
HETATM   44  C   UNK N   1      18.328  10.780   3.874  0.00  0.00     0.215 C 
ENDBRANCH  39  43
ENDBRANCH  34  35
ENDBRANCH  33  34
ENDBRANCH   1  32
TORSDOF 10
ENDMDL
MODEL 4
REMARK VINA RESULT:      -7.6     12.423     14.846
REMARK  10 active torsions:
REMARK  status: ('A' for Active; 'I' for Inactive)
REMARK    1  A    between atoms: O_2  and  C_3 
REMARK       I    between atoms: C_3  and  N_5 
REMARK    2  A    between atoms: C_8  and  C_11 
REMARK    3  A    between atoms: C_11  and  C_12 
REMARK    4  A    between atoms: C_13  and  C_14 
REMARK    5  A    between atoms: C_17  and  N_39 
REMARK    6  A    between atoms: C_26  and  N_22 
REMARK    7  A    between atoms: C_27  and  O_38 
REMARK    8  A    between atoms: C_28  and  O_37 
REMARK    9  A    between atoms: C_29  and  C_31 
REMARK       I    between atoms: C_31  and  N_33 
REMARK   10  A    between atoms: N_33  and  C_34 
ROOT
HETATM    1  C   UNK N   1      36.888  13.692  11.823  0.00  0.00     0.164 A 
HETATM    2  N   UNK N   1      38.009  13.067  11.327  0.00  0.00    -0.320 N 
ATOM      3  HN  UNK N   1      38.702  12.685  11.971  1.00  0.00     0.169 HD
HETATM    4  C   UNK N   1      38.204  12.952   9.974  0.00  0.00     0.132 A 
HETATM    5  C   UNK N   1      37.229  13.475   9.128  0.00  0.00     0.122 A 
HETATM    6  C   UNK N   1      36.149  14.072   9.655  0.00  0.00     0.143 A 
HETATM    7  N   UNK N   1      35.956  14.193  10.980  0.00  0.00    -0.319 N 
ATOM      8  HN  UNK N   1      35.122  14.654  11.343  1.00  0.00     0.169 HD
HETATM    9  N   UNK N   1      35.358  14.533   8.684  0.00  0.00    -0.297 N 
HETATM   10  C   UNK N   1      35.992  14.197   7.530  0.00  0.00     0.188 A 
HETATM   11  N   UNK N   1      37.160  13.527   7.783  0.00  0.00    -0.346 N 
ATOM     12  HN  UNK N   1      37.825  13.152   7.107  1.00  0.00     0.167 HD
ENDROOT
BRANCH   9  13
HETATM   13  C   UNK N   1      34.132  15.321   8.886  0.00  0.00     0.263 C 
HETATM   14  C   UNK N   1      34.358  16.801   9.051  0.00  0.00     0.199 C 
HETATM   15  C   UNK N   1      33.040  17.323   8.558  0.00  0.00     0.189 C 
HETATM   16  C   UNK N   1      32.900  16.431   7.337  0.00  0.00     0.247 C 
HETATM   17  O   UNK N   1      33.259  15.149   7.789  0.00  0.00    -0.346 OA
BRANCH  14  18
HETATM   18  O   UNK N   1      34.558  17.121  10.394  0.00  0.00    -0.388 OA
HETATM   19  H   UNK N   1      34.145  16.626  11.118  0.00  0.00     0.210 HD
ENDBRANCH  14  18
BRANCH  15  20
HETATM   20  O   UNK N   1      33.170  18.671   8.231  0.00  0.00    -0.390 OA
HETATM   21  H   UNK N   1      33.638  19.294   7.651  0.00  0.00     0.210 HD
ENDBRANCH  15  20
BRANCH  16  22
HETATM   22  C   UNK N   1      31.583  16.289   6.576  0.00  0.00     0.249 C 
HETATM   23  O   UNK N   1      30.554  16.270   7.233  0.00  0.00    -0.271 OA
HETATM   24  N   UNK N   1      31.472  16.151   5.230  0.00  0.00    -0.354 N 
HETATM   25  H   UNK N   1      30.563  16.063   4.862  0.00  0.00     0.162 HD
BRANCH  24  26
HETATM   26  C   UNK N   1      32.560  16.123   4.299  0.00  0.00     0.084 A 
HETATM   27  C   UNK N   1      32.895  17.544   3.899  0.00  0.00     0.027 A 
HETATM   28  C   UNK N   1      32.072  16.675   2.975  0.00  0.00     0.027 A 
ENDBRANCH  24  26
ENDBRANCH  16  22
ENDBRANCH   9  13
BRANCH   4  29
HETATM   29  N   UNK N   1      39.365  12.332   9.468  0.00  0.00    -0.383 N 
HETATM   30  H   UNK N   1      40.150  12.869   9.215  0.00  0.00     0.157 HD
HETATM   31  H   UNK N   1      39.390  11.354   9.366  0.00  0.00     0.157 HD
ENDBRANCH   4  29
BRANCH   1  32
HETATM   32  C   UNK N   1      36.637  13.758  13.221  0.00  0.00    -0.030 C 
HETATM   33  C   UNK N   1      36.434  13.708  14.403  0.00  0.00    -0.098 C 
BRANCH  33  34
HETATM   34  C   UNK N   1      36.397  13.522  15.852  0.00  0.00     0.099 C 
BRANCH  34  35
HETATM   35  C   UNK N   1      34.998  13.068  16.325  0.00  0.00    -0.000 C 
HETATM   36  C   UNK N   1      34.547  11.656  15.876  0.00  0.00     0.025 C 
HETATM   37  C   UNK N   1      35.334  10.581  16.631  0.00  0.00     0.128 C 
HETATM   38  N   UNK N   1      35.157  10.803  18.046  0.00  0.00    -0.328 N 
HETATM   39  C   UNK N   1      34.602   9.813  18.816  0.00  0.00     0.362 C 
HETATM   40  C   UNK N   1      35.572  12.088  18.576  0.00  0.00     0.128 C 
HETATM   41  O   UNK N   1      34.373   8.723  18.310  0.00  0.00    -0.238 OA
HETATM   42  C   UNK N   1      34.845  13.213  17.840  0.00  0.00     0.025 C 
BRANCH  39  43
HETATM   43  O   UNK N   1      34.276   9.985  20.128  0.00  0.00    -0.309 OA
HETATM   44  C   UNK N   1      34.554   9.102  21.145  0.00  0.00     0.215 C 
ENDBRANCH  39  43
ENDBRANCH  34  35
ENDBRANCH  33  34
ENDBRANCH   1  32
TORSDOF 10
ENDMDL
MODEL 5
REMARK VINA RESULT:      -7.5      8.267     12.130
REMARK  10 active torsions:
REMARK  status: ('A' for Active; 'I' for Inactive)
REMARK    1  A    between atoms: O_2  and  C_3 
REMARK       I    between atoms: C_3  and  N_5 
REMARK    2  A    between atoms: C_8  and  C_11 
REMARK    3  A    between atoms: C_11  and  C_12 
REMARK    4  A    between atoms: C_13  and  C_14 
REMARK    5  A    between atoms: C_17  and  N_39 
REMARK    6  A    between atoms: C_26  and  N_22 
REMARK    7  A    between atoms: C_27  and  O_38 
REMARK    8  A    between atoms: C_28  and  O_37 
REMARK    9  A    between atoms: C_29  and  C_31 
REMARK       I    between atoms: C_31  and  N_33 
REMARK   10  A    between atoms: N_33  and  C_34 
ROOT
HETATM    1  C   UNK N   1      30.726  16.410   5.014  0.00  0.00     0.164 A 
HETATM    2  N   UNK N   1      30.707  15.573   3.921  0.00  0.00    -0.320 N 
ATOM      3  HN  UNK N   1      29.981  15.682   3.213  1.00  0.00     0.169 HD
HETATM    4  C   UNK N   1      31.655  14.593   3.776  0.00  0.00     0.132 A 
HETATM    5  C   UNK N   1      32.637  14.485   4.758  0.00  0.00     0.122 A 
HETATM    6  C   UNK N   1      32.621  15.325   5.804  0.00  0.00     0.143 A 
HETATM    7  N   UNK N   1      31.689  16.283   5.955  0.00  0.00    -0.319 N 
ATOM      8  HN  UNK N   1      31.709  16.903   6.764  1.00  0.00     0.169 HD
HETATM    9  N   UNK N   1      33.617  15.036   6.644  0.00  0.00    -0.297 N 
HETATM   10  C   UNK N   1      34.255  13.979   6.074  0.00  0.00     0.188 A 
HETATM   11  N   UNK N   1      33.665  13.623   4.890  0.00  0.00    -0.346 N 
ATOM     12  HN  UNK N   1      33.941  12.876   4.254  1.00  0.00     0.167 HD
ENDROOT
BRANCH   9  13
HETATM   13  C   UNK N   1      33.855  15.688   7.940  0.00  0.00     0.263 C 
HETATM   14  C   UNK N   1      32.974  15.199   9.059  0.00  0.00     0.199 C 
HETATM   15  C   UNK N   1      33.858  15.492  10.236  0.00  0.00     0.189 C 
HETATM   16  C   UNK N   1      35.164  14.981   9.653  0.00  0.00     0.247 C 
HETATM   17  O   UNK N   1      35.194  15.491   8.344  0.00  0.00    -0.346 OA
BRANCH  14  18
HETATM   18  O   UNK N   1      31.794  15.941   9.116  0.00  0.00    -0.388 OA
HETATM   19  H   UNK N   1      31.127  15.814   9.810  0.00  0.00     0.210 HD
ENDBRANCH  14  18
BRANCH  15  20
HETATM   20  O   UNK N   1      33.428  14.749  11.334  0.00  0.00    -0.390 OA
HETATM   21  H   UNK N   1      32.845  14.765  12.109  0.00  0.00     0.210 HD
ENDBRANCH  15  20
BRANCH  16  22
HETATM   22  C   UNK N   1      36.519  15.291  10.289  0.00  0.00     0.249 C 
HETATM   23  O   UNK N   1      36.635  16.359  10.869  0.00  0.00    -0.271 OA
HETATM   24  N   UNK N   1      37.608  14.485  10.232  0.00  0.00    -0.354 N 
HETATM   25  H   UNK N   1      38.426  14.803  10.680  0.00  0.00     0.162 HD
BRANCH  24  26
HETATM   26  C   UNK N   1      37.675  13.212   9.578  0.00  0.00     0.084 A 
HETATM   27  C   UNK N   1      39.078  12.664   9.722  0.00  0.00     0.027 A 
HETATM   28  C   UNK N   1      38.653  13.316   8.425  0.00  0.00     0.027 A 
ENDBRANCH  24  26
ENDBRANCH  16  22
ENDBRANCH   9  13
BRANCH   4  29
HETATM   29  N   UNK N   1      31.621  13.721   2.668  0.00  0.00    -0.383 N 
HETATM   30  H   UNK N   1      32.068  12.845   2.705  0.00  0.00     0.157 HD
HETATM   31  H   UNK N   1      31.145  13.990   1.851  0.00  0.00     0.157 HD
ENDBRANCH   4  29
BRANCH   1  32
HETATM   32  C   UNK N   1      29.792  17.475   5.144  0.00  0.00    -0.030 C 
HETATM   33  C   UNK N   1      29.006  18.380   5.149  0.00  0.00    -0.098 C 
BRANCH  33  34
HETATM   34  C   UNK N   1      27.919  19.346   4.999  0.00  0.00     0.099 C 
BRANCH  34  35
HETATM   35  C   UNK N   1      27.136  19.113   3.688  0.00  0.00    -0.000 C 
HETATM   36  C   UNK N   1      26.184  17.892   3.666  0.00  0.00     0.025 C 
HETATM   37  C   UNK N   1      24.957  18.159   4.546  0.00  0.00     0.128 C 
HETATM   38  N   UNK N   1      24.327  19.372   4.084  0.00  0.00    -0.328 N 
HETATM   39  C   UNK N   1      23.025  19.329   3.656  0.00  0.00     0.362 C 
HETATM   40  C   UNK N   1      25.126  20.581   4.087  0.00  0.00     0.128 C 
HETATM   41  O   UNK N   1      22.391  18.291   3.781  0.00  0.00    -0.238 OA
HETATM   42  C   UNK N   1      26.389  20.374   3.250  0.00  0.00     0.025 C 
BRANCH  39  43
HETATM   43  O   UNK N   1      22.394  20.392   3.082  0.00  0.00    -0.309 OA
HETATM   44  C   UNK N   1      21.066  20.443   2.730  0.00  0.00     0.215 C 
ENDBRANCH  39  43
ENDBRANCH  34  35
ENDBRANCH  33  34
ENDBRANCH   1  32
TORSDOF 10
ENDMDL
MODEL 6
REMARK VINA RESULT:      -7.4      3.818      7.365
REMARK  10 active torsions:
REMARK  status: ('A' for Active; 'I' for Inactive)
REMARK    1  A    between atoms: O_2  and  C_3 
REMARK       I    between atoms: C_3  and  N_5 
REMARK    2  A    between atoms: C_8  and  C_11 
REMARK    3  A    between atoms: C_11  and  C_12 
REMARK    4  A    between atoms: C_13  and  C_14 
REMARK    5  A    between atoms: C_17  and  N_39 
REMARK    6  A    between atoms: C_26  and  N_22 
REMARK    7  A    between atoms: C_27  and  O_38 
REMARK    8  A    between atoms: C_28  and  O_37 
REMARK    9  A    between atoms: C_29  and  C_31 
REMARK       I    between atoms: C_31  and  N_33 
REMARK   10  A    between atoms: N_33  and  C_34 
ROOT
HETATM    1  C   UNK N   1      24.290  14.897   5.554  0.00  0.00     0.164 A 
HETATM    2  N   UNK N   1      23.730  14.365   6.694  0.00  0.00    -0.320 N 
ATOM      3  HN  UNK N   1      24.157  13.551   7.135  1.00  0.00     0.169 HD
HETATM    4  C   UNK N   1      22.603  14.922   7.243  0.00  0.00     0.132 A 
HETATM    5  C   UNK N   1      22.058  16.041   6.617  0.00  0.00     0.122 A 
HETATM    6  C   UNK N   1      22.639  16.529   5.511  0.00  0.00     0.143 A 
HETATM    7  N   UNK N   1      23.741  15.983   4.965  0.00  0.00    -0.319 N 
ATOM      8  HN  UNK N   1      24.154  16.381   4.122  1.00  0.00     0.169 HD
HETATM    9  N   UNK N   1      21.949  17.573   5.048  0.00  0.00    -0.297 N 
HETATM   10  C   UNK N   1      20.912  17.715   5.917  0.00  0.00     0.188 A 
HETATM   11  N   UNK N   1      20.965  16.774   6.910  0.00  0.00    -0.346 N 
ATOM     12  HN  UNK N   1      20.323  16.655   7.693  1.00  0.00     0.167 HD
ENDROOT
BRANCH   9  13
HETATM   13  C   UNK N   1      22.238  18.303   3.805  0.00  0.00     0.263 C 
HETATM   14  C   UNK N   1      21.414  19.547   3.602  0.00  0.00     0.199 C 
HETATM   15  C   UNK N   1      22.347  20.341   2.736  0.00  0.00     0.189 C 
HETATM   16  C   UNK N   1      23.631  20.067   3.499  0.00  0.00     0.247 C 
HETATM   17  O   UNK N   1      23.596  18.690   3.774  0.00  0.00    -0.346 OA
BRANCH  14  18
HETATM   18  O   UNK N   1      20.229  19.248   2.928  0.00  0.00    -0.388 OA
HETATM   19  H   UNK N   1      19.706  18.454   3.116  0.00  0.00     0.210 HD
ENDBRANCH  14  18
BRANCH  15  20
HETATM   20  O   UNK N   1      21.975  21.684   2.766  0.00  0.00    -0.390 OA
HETATM   21  H   UNK N   1      22.233  22.574   2.474  0.00  0.00     0.210 HD
ENDBRANCH  15  20
BRANCH  16  22
HETATM   22  C   UNK N   1      25.009  20.377   2.917  0.00  0.00     0.249 C 
HETATM   23  O   UNK N   1      25.064  20.673   1.733  0.00  0.00    -0.271 OA
HETATM   24  N   UNK N   1      26.177  20.318   3.605  0.00  0.00    -0.354 N 
HETATM   25  H   UNK N   1      27.001  20.537   3.111  0.00  0.00     0.162 HD
BRANCH  24  26
HETATM   26  C   UNK N   1      26.318  19.966   4.986  0.00  0.00     0.084 A 
HETATM   27  C   UNK N   1      26.901  21.146   5.733  0.00  0.00     0.027 A 
HETATM   28  C   UNK N   1      27.791  19.988   5.339  0.00  0.00     0.027 A 
ENDBRANCH  24  26
ENDBRANCH  16  22
ENDBRANCH   9  13
BRANCH   4  29
HETATM   29  N   UNK N   1      22.016  14.363   8.396  0.00  0.00    -0.383 N 
HETATM   30  H   UNK N   1      22.538  14.260   9.225  0.00  0.00     0.157 HD
HETATM   31  H   UNK N   1      21.077  14.073   8.373  0.00  0.00     0.157 HD
ENDBRANCH   4  29
BRANCH   1  32
HETATM   32  C   UNK N   1      25.498  14.374   5.014  0.00  0.00    -0.030 C 
HETATM   33  C   UNK N   1      26.501  13.997   4.475  0.00  0.00    -0.098 C 
BRANCH  33  34
HETATM   34  C   UNK N   1      27.783  13.776   3.809  0.00  0.00     0.099 C 
BRANCH  34  35
HETATM   35  C   UNK N   1      28.523  15.109   3.555  0.00  0.00    -0.000 C 
HETATM   36  C   UNK N   1      28.261  16.243   4.575  0.00  0.00     0.025 C 
HETATM   37  C   UNK N   1      28.945  15.926   5.910  0.00  0.00     0.128 C 
HETATM   38  N   UNK N   1      30.349  15.710   5.657  0.00  0.00    -0.328 N 
HETATM   39  C   UNK N   1      31.272  16.510   6.280  0.00  0.00     0.362 C 
HETATM   40  C   UNK N   1      30.705  14.652   4.732  0.00  0.00     0.128 C 
HETATM   41  O   UNK N   1      30.894  17.312   7.122  0.00  0.00    -0.238 OA
HETATM   42  C   UNK N   1      30.027  14.889   3.383  0.00  0.00     0.025 C 
BRANCH  39  43
HETATM   43  O   UNK N   1      32.605  16.466   6.000  0.00  0.00    -0.309 OA
HETATM   44  C   UNK N   1      33.343  17.484   5.444  0.00  0.00     0.215 C 
ENDBRANCH  39  43
ENDBRANCH  34  35
ENDBRANCH  33  34
ENDBRANCH   1  32
TORSDOF 10
ENDMDL
MODEL 7
REMARK VINA RESULT:      -7.3     10.517     13.502
REMARK  10 active torsions:
REMARK  status: ('A' for Active; 'I' for Inactive)
REMARK    1  A    between atoms: O_2  and  C_3 
REMARK       I    between atoms: C_3  and  N_5 
REMARK    2  A    between atoms: C_8  and  C_11 
REMARK    3  A    between atoms: C_11  and  C_12 
REMARK    4  A    between atoms: C_13  and  C_14 
REMARK    5  A    between atoms: C_17  and  N_39 
REMARK    6  A    between atoms: C_26  and  N_22 
REMARK    7  A    between atoms: C_27  and  O_38 
REMARK    8  A    between atoms: C_28  and  O_37 
REMARK    9  A    between atoms: C_29  and  C_31 
REMARK       I    between atoms: C_31  and  N_33 
REMARK   10  A    between atoms: N_33  and  C_34 
ROOT
HETATM    1  C   UNK N   1      35.268  13.687   5.650  0.00  0.00     0.164 A 
HETATM    2  N   UNK N   1      35.479  13.076   4.434  0.00  0.00    -0.320 N 
ATOM      3  HN  UNK N   1      36.026  12.216   4.389  1.00  0.00     0.169 HD
HETATM    4  C   UNK N   1      34.960  13.612   3.283  0.00  0.00     0.132 A 
HETATM    5  C   UNK N   1      34.208  14.780   3.390  0.00  0.00     0.122 A 
HETATM    6  C   UNK N   1      34.023  15.339   4.595  0.00  0.00     0.143 A 
HETATM    7  N   UNK N   1      34.535  14.821   5.726  0.00  0.00    -0.319 N 
ATOM      8  HN  UNK N   1      34.373  15.275   6.625  1.00  0.00     0.169 HD
HETATM    9  N   UNK N   1      33.310  16.461   4.479  0.00  0.00    -0.297 N 
HETATM   10  C   UNK N   1      33.059  16.575   3.147  0.00  0.00     0.188 A 
HETATM   11  N   UNK N   1      33.603  15.531   2.448  0.00  0.00    -0.346 N 
ATOM     12  HN  UNK N   1      33.560  15.360   1.444  1.00  0.00     0.167 HD
ENDROOT
BRANCH   9  13
HETATM   13  C   UNK N   1      32.990  17.385   5.577  0.00  0.00     0.263 C 
HETATM   14  C   UNK N   1      31.858  16.937   6.464  0.00  0.00     0.199 C 
HETATM   15  C   UNK N   1      32.231  17.638   7.738  0.00  0.00     0.189 C 
HETATM   16  C   UNK N   1      33.717  17.326   7.725  0.00  0.00     0.247 C 
HETATM   17  O   UNK N   1      34.121  17.570   6.401  0.00  0.00    -0.346 OA
BRANCH  14  18
HETATM   18  O   UNK N   1      30.636  17.397   5.972  0.00  0.00    -0.388 OA
HETATM   19  H   UNK N   1      30.221  18.217   6.283  0.00  0.00     0.210 HD
ENDBRANCH  14  18
BRANCH  15  20
HETATM   20  O   UNK N   1      31.562  17.042   8.805  0.00  0.00    -0.390 OA
HETATM   21  H   UNK N   1      31.574  16.283   9.410  0.00  0.00     0.210 HD
ENDBRANCH  15  20
BRANCH  16  22
HETATM   22  C   UNK N   1      34.709  18.043   8.639  0.00  0.00     0.249 C 
HETATM   23  O   UNK N   1      35.048  19.173   8.324  0.00  0.00    -0.271 OA
HETATM   24  N   UNK N   1      35.265  17.509   9.756  0.00  0.00    -0.354 N 
HETATM   25  H   UNK N   1      35.897  18.075  10.257  0.00  0.00     0.162 HD
BRANCH  24  26
HETATM   26  C   UNK N   1      35.015  16.196  10.270  0.00  0.00     0.084 A 
HETATM   27  C   UNK N   1      35.676  16.070  11.626  0.00  0.00     0.027 A 
HETATM   28  C   UNK N   1      36.340  15.474  10.405  0.00  0.00     0.027 A 
ENDBRANCH  24  26
ENDBRANCH  16  22
ENDBRANCH   9  13
BRANCH   4  29
HETATM   29  N   UNK N   1      35.197  12.998   2.037  0.00  0.00    -0.383 N 
HETATM   30  H   UNK N   1      34.458  12.839   1.407  0.00  0.00     0.157 HD
HETATM   31  H   UNK N   1      36.111  12.726   1.793  0.00  0.00     0.157 HD
ENDBRANCH   4  29
BRANCH   1  32
HETATM   32  C   UNK N   1      35.739  13.106   6.859  0.00  0.00    -0.030 C 
HETATM   33  C   UNK N   1      36.044  12.568   7.887  0.00  0.00    -0.098 C 
BRANCH  33  34
HETATM   34  C   UNK N   1      36.353  11.704   9.026  0.00  0.00     0.099 C 
BRANCH  34  35
HETATM   35  C   UNK N   1      35.064  11.205   9.718  0.00  0.00    -0.000 C 
HETATM   36  C   UNK N   1      35.195   9.915  10.563  0.00  0.00     0.025 C 
HETATM   37  C   UNK N   1      35.976  10.199  11.851  0.00  0.00     0.128 C 
HETATM   38  N   UNK N   1      35.309  11.267  12.556  0.00  0.00    -0.328 N 
HETATM   39  C   UNK N   1      34.844  11.043  13.826  0.00  0.00     0.362 C 
HETATM   40  C   UNK N   1      35.156  12.530  11.861  0.00  0.00     0.128 C 
HETATM   41  O   UNK N   1      35.103   9.982  14.377  0.00  0.00    -0.238 OA
HETATM   42  C   UNK N   1      34.409  12.313  10.545  0.00  0.00     0.025 C 
BRANCH  39  43
HETATM   43  O   UNK N   1      34.089  11.946  14.513  0.00  0.00    -0.309 OA
HETATM   44  C   UNK N   1      34.503  12.672  15.604  0.00  0.00     0.215 C 
ENDBRANCH  39  43
ENDBRANCH  34  35
ENDBRANCH  33  34
ENDBRANCH   1  32
TORSDOF 10
ENDMDL
MODEL 8
REMARK VINA RESULT:      -7.2      3.049      5.476
REMARK  10 active torsions:
REMARK  status: ('A' for Active; 'I' for Inactive)
REMARK    1  A    between atoms: O_2  and  C_3 
REMARK       I    between atoms: C_3  and  N_5 
REMARK    2  A    between atoms: C_8  and  C_11 
REMARK    3  A    between atoms: C_11  and  C_12 
REMARK    4  A    between atoms: C_13  and  C_14 
REMARK    5  A    between atoms: C_17  and  N_39 
REMARK    6  A    between atoms: C_26  and  N_22 
REMARK    7  A    between atoms: C_27  and  O_38 
REMARK    8  A    between atoms: C_28  and  O_37 
REMARK    9  A    between atoms: C_29  and  C_31 
REMARK       I    between atoms: C_31  and  N_33 
REMARK   10  A    between atoms: N_33  and  C_34 
ROOT
HETATM    1  C   UNK N   1      21.068  13.204   2.517  0.00  0.00     0.164 A 
HETATM    2  N   UNK N   1      20.203  12.486   1.722  0.00  0.00    -0.320 N 
ATOM      3  HN  UNK N   1      20.196  11.468   1.774  1.00  0.00     0.169 HD
HETATM    4  C   UNK N   1      19.351  13.128   0.860  0.00  0.00     0.132 A 
HETATM    5  C   UNK N   1      19.383  14.521   0.828  0.00  0.00     0.122 A 
HETATM    6  C   UNK N   1      20.238  15.180   1.624  0.00  0.00     0.143 A 
HETATM    7  N   UNK N   1      21.081  14.556   2.467  0.00  0.00    -0.319 N 
ATOM      8  HN  UNK N   1      21.717  15.091   3.056  1.00  0.00     0.169 HD
HETATM    9  N   UNK N   1      20.139  16.495   1.419  0.00  0.00    -0.297 N 
HETATM   10  C   UNK N   1      19.183  16.626   0.461  0.00  0.00     0.188 A 
HETATM   11  N   UNK N   1      18.691  15.405   0.083  0.00  0.00    -0.346 N 
ATOM     12  HN  UNK N   1      17.965  15.210  -0.606  1.00  0.00     0.167 HD
ENDROOT
BRANCH   9  13
HETATM   13  C   UNK N   1      20.983  17.522   2.048  0.00  0.00     0.263 C 
HETATM   14  C   UNK N   1      20.322  18.866   2.206  0.00  0.00     0.199 C 
HETATM   15  C   UNK N   1      21.082  19.395   3.387  0.00  0.00     0.189 C 
HETATM   16  C   UNK N   1      21.068  18.132   4.231  0.00  0.00     0.247 C 
HETATM   17  O   UNK N   1      21.386  17.099   3.333  0.00  0.00    -0.346 OA
BRANCH  14  18
HETATM   18  O   UNK N   1      20.533  19.655   1.075  0.00  0.00    -0.388 OA
HETATM   19  H   UNK N   1      21.407  19.762   0.666  0.00  0.00     0.210 HD
ENDBRANCH  14  18
BRANCH  15  20
HETATM   20  O   UNK N   1      20.367  20.441   3.967  0.00  0.00    -0.390 OA
HETATM   21  H   UNK N   1      20.460  21.285   4.437  0.00  0.00     0.210 HD
ENDBRANCH  15  20
BRANCH  16  22
HETATM   22  C   UNK N   1      21.966  17.959   5.456  0.00  0.00     0.249 C 
HETATM   23  O   UNK N   1      23.132  18.304   5.350  0.00  0.00    -0.271 OA
HETATM   24  N   UNK N   1      21.574  17.422   6.639  0.00  0.00    -0.354 N 
HETATM   25  H   UNK N   1      22.253  17.361   7.350  0.00  0.00     0.162 HD
BRANCH  24  26
HETATM   26  C   UNK N   1      20.261  16.937   6.944  0.00  0.00     0.084 A 
HETATM   27  C   UNK N   1      19.844  17.478   8.295  0.00  0.00     0.027 A 
HETATM   28  C   UNK N   1      20.349  16.058   8.175  0.00  0.00     0.027 A 
ENDBRANCH  24  26
ENDBRANCH  16  22
ENDBRANCH   9  13
BRANCH   4  29
HETATM   29  N   UNK N   1      18.483  12.392   0.029  0.00  0.00    -0.383 N 
HETATM   30  H   UNK N   1      17.644  12.789  -0.298  0.00  0.00     0.157 HD
HETATM   31  H   UNK N   1      18.718  11.471  -0.226  0.00  0.00     0.157 HD
ENDBRANCH   4  29
BRANCH   1  32
HETATM   32  C   UNK N   1      21.907  12.557   3.466  0.00  0.00    -0.030 C 
HETATM   33  C   UNK N   1      22.669  12.101   4.272  0.00  0.00    -0.098 C 
BRANCH  33  34
HETATM   34  C   UNK N   1      23.537  11.739   5.392  0.00  0.00     0.099 C 
BRANCH  34  35
HETATM   35  C   UNK N   1      22.775  10.910   6.449  0.00  0.00    -0.000 C 
HETATM   36  C   UNK N   1      23.604  10.409   7.657  0.00  0.00     0.025 C 
HETATM   37  C   UNK N   1      23.954  11.578   8.583  0.00  0.00     0.128 C 
HETATM   38  N   UNK N   1      22.726  12.225   8.976  0.00  0.00    -0.328 N 
HETATM   39  C   UNK N   1      22.404  12.301  10.307  0.00  0.00     0.362 C 
HETATM   40  C   UNK N   1      21.884  12.754   7.920  0.00  0.00     0.128 C 
HETATM   41  O   UNK N   1      23.216  11.921  11.138  0.00  0.00    -0.238 OA
HETATM   42  C   UNK N   1      21.522  11.641   6.936  0.00  0.00     0.025 C 
BRANCH  39  43
HETATM   43  O   UNK N   1      21.208  12.773  10.758  0.00  0.00    -0.309 OA
HETATM   44  C   UNK N   1      20.345  12.105  11.593  0.00  0.00     0.215 C 
ENDBRANCH  39  43
ENDBRANCH  34  35
ENDBRANCH  33  34
ENDBRANCH   1  32
TORSDOF 10
ENDMDL
MODEL 9
REMARK VINA RESULT:      -7.2      1.947      6.589
REMARK  10 active torsions:
REMARK  status: ('A' for Active; 'I' for Inactive)
REMARK    1  A    between atoms: O_2  and  C_3 
REMARK       I    between atoms: C_3  and  N_5 
REMARK    2  A    between atoms: C_8  and  C_11 
REMARK    3  A    between atoms: C_11  and  C_12 
REMARK    4  A    between atoms: C_13  and  C_14 
REMARK    5  A    between atoms: C_17  and  N_39 
REMARK    6  A    between atoms: C_26  and  N_22 
REMARK    7  A    between atoms: C_27  and  O_38 
REMARK    8  A    between atoms: C_28  and  O_37 
REMARK    9  A    between atoms: C_29  and  C_31 
REMARK       I    between atoms: C_31  and  N_33 
REMARK   10  A    between atoms: N_33  and  C_34 
ROOT
HETATM    1  C   UNK N   1      24.494  14.189   7.759  0.00  0.00     0.164 A 
HETATM    2  N   UNK N   1      25.066  13.345   8.684  0.00  0.00    -0.320 N 
ATOM      3  HN  UNK N   1      26.059  13.120   8.618  1.00  0.00     0.169 HD
HETATM    4  C   UNK N   1      24.313  12.805   9.695  0.00  0.00     0.132 A 
HETATM    5  C   UNK N   1      22.964  13.147   9.758  0.00  0.00     0.122 A 
HETATM    6  C   UNK N   1      22.450  13.978   8.838  0.00  0.00     0.143 A 
HETATM    7  N   UNK N   1      23.182  14.505   7.841  0.00  0.00    -0.319 N 
ATOM      8  HN  UNK N   1      22.755  15.133   7.160  1.00  0.00     0.169 HD
HETATM    9  N   UNK N   1      21.144  14.150   9.052  0.00  0.00    -0.297 N 
HETATM   10  C   UNK N   1      20.868  13.392  10.146  0.00  0.00     0.188 A 
HETATM   11  N   UNK N   1      21.993  12.763  10.609  0.00  0.00    -0.346 N 
ATOM     12  HN  UNK N   1      22.076  12.144  11.416  1.00  0.00     0.167 HD
ENDROOT
BRANCH   9  13
HETATM   13  C   UNK N   1      20.234  14.922   8.191  0.00  0.00     0.263 C 
HETATM   14  C   UNK N   1      20.742  16.287   7.808  0.00  0.00     0.199 C 
HETATM   15  C   UNK N   1      20.016  16.481   6.509  0.00  0.00     0.189 C 
HETATM   16  C   UNK N   1      20.243  15.095   5.929  0.00  0.00     0.247 C 
HETATM   17  O   UNK N   1      19.983  14.216   6.995  0.00  0.00    -0.346 OA
BRANCH  14  18
HETATM   18  O   UNK N   1      20.353  17.239   8.751  0.00  0.00    -0.388 OA
HETATM   19  H   UNK N   1      20.910  17.487   9.505  0.00  0.00     0.210 HD
ENDBRANCH  14  18
BRANCH  15  20
HETATM   20  O   UNK N   1      20.644  17.484   5.773  0.00  0.00    -0.390 OA
HETATM   21  H   UNK N   1      20.484  18.282   5.243  0.00  0.00     0.210 HD
ENDBRANCH  15  20
BRANCH  16  22
HETATM   22  C   UNK N   1      19.468  14.579   4.718  0.00  0.00     0.249 C 
HETATM   23  O   UNK N   1      18.421  13.989   4.932  0.00  0.00    -0.271 OA
HETATM   24  N   UNK N   1      19.870  14.699   3.427  0.00  0.00    -0.354 N 
HETATM   25  H   UNK N   1      19.280  14.318   2.737  0.00  0.00     0.162 HD
BRANCH  24  26
HETATM   26  C   UNK N   1      21.075  15.331   2.981  0.00  0.00     0.084 A 
HETATM   27  C   UNK N   1      20.716  16.622   2.276  0.00  0.00     0.027 A 
HETATM   28  C   UNK N   1      21.054  15.390   1.467  0.00  0.00     0.027 A 
ENDBRANCH  24  26
ENDBRANCH  16  22
ENDBRANCH   9  13
BRANCH   4  29
HETATM   29  N   UNK N   1      24.894  11.922  10.628  0.00  0.00    -0.383 N 
HETATM   30  H   UNK N   1      24.599  10.984  10.683  0.00  0.00     0.157 HD
HETATM   31  H   UNK N   1      25.601  12.246  11.230  0.00  0.00     0.157 HD
ENDBRANCH   4  29
BRANCH   1  32
HETATM   32  C   UNK N   1      25.276  14.813   6.747  0.00  0.00    -0.030 C 
HETATM   33  C   UNK N   1      25.850  15.395   5.869  0.00  0.00    -0.098 C 
BRANCH  33  34
HETATM   34  C   UNK N   1      26.472  16.307   4.910  0.00  0.00     0.099 C 
BRANCH  34  35
HETATM   35  C   UNK N   1      26.239  17.782   5.306  0.00  0.00    -0.000 C 
HETATM   36  C   UNK N   1      26.839  18.849   4.359  0.00  0.00     0.025 C 
HETATM   37  C   UNK N   1      26.048  18.902   3.047  0.00  0.00     0.128 C 
HETATM   38  N   UNK N   1      24.663  19.150   3.366  0.00  0.00    -0.328 N 
HETATM   39  C   UNK N   1      24.049  20.267   2.860  0.00  0.00     0.362 C 
HETATM   40  C   UNK N   1      23.997  18.195   4.229  0.00  0.00     0.128 C 
HETATM   41  O   UNK N   1      24.652  20.967   2.059  0.00  0.00    -0.238 OA
HETATM   42  C   UNK N   1      24.756  18.068   5.550  0.00  0.00     0.025 C 
BRANCH  39  43
HETATM   43  O   UNK N   1      22.790  20.649   3.214  0.00  0.00    -0.309 OA
HETATM   44  C   UNK N   1      21.685  20.629   2.396  0.00  0.00     0.215 C 
ENDBRANCH  39  43
ENDBRANCH  34  35
ENDBRANCH  33  34
ENDBRANCH   1  32
TORSDOF 10
ENDMDL
