MODEL 1
REMARK VINA RESULT:      -5.7      0.000      0.000
REMARK  5 active torsions:
REMARK  status: ('A' for Active; 'I' for Inactive)
REMARK    1  A    between atoms: C_6  and  C_3 
REMARK    2  A    between atoms: O_14  and  C_3 
REMARK    3  A    between atoms: C_5  and  O_15 
REMARK    4  A    between atoms: C_7  and  N_13 
REMARK    5  A    between atoms: O_16  and  C_8 
ROOT
HETATM    1  C   UNK N   1      23.875  18.287   3.912  0.00  0.00     0.122 A 
HETATM    2  C   UNK N   1      25.244  18.559   3.874  0.00  0.00     0.077 A 
HETATM    3  C   UNK N   1      25.671  19.808   3.423  0.00  0.00     0.163 A 
HETATM    4  C   UNK N   1      23.416  20.471   3.100  0.00  0.00     0.330 A 
HETATM    5 Br   UNK N   1      26.499  17.221   4.408  0.00  0.00    -0.045 Br
HETATM    6  N   UNK N   1      24.758  20.739   3.054  0.00  0.00    -0.288 N 
ATOM      7  HN  UNK N   1      25.077  21.655   2.736  1.00  0.00     0.172 HD
HETATM    8  N   UNK N   1      22.969  19.230   3.526  0.00  0.00    -0.281 N 
HETATM    9  O   UNK N   1      22.626  21.323   2.734  0.00  0.00    -0.246 OA
ENDROOT
BRANCH   8  10
HETATM   10  C   UNK N   1      21.530  18.908   3.472  0.00  0.00     0.235 C 
HETATM   11  C   UNK N   1      21.205  17.533   4.031  0.00  0.00     0.088 C 
HETATM   12  C   UNK N   1      19.776  17.478   3.594  0.00  0.00     0.153 C 
HETATM   13  C   UNK N   1      19.871  18.072   2.182  0.00  0.00     0.176 C 
HETATM   14  O   UNK N   1      20.996  18.939   2.163  0.00  0.00    -0.356 OA
BRANCH  12  15
HETATM   15  O   UNK N   1      19.238  16.189   3.646  0.00  0.00    -0.393 OA
HETATM   16  H   UNK N   1      18.421  15.769   3.957  0.00  0.00     0.210 HD
ENDBRANCH  12  15
BRANCH  13  17
HETATM   17  C   UNK N   1      20.054  17.012   1.097  0.00  0.00     0.198 C 
BRANCH  17  18
HETATM   18  O   UNK N   1      20.302  17.626  -0.136  0.00  0.00    -0.398 OA
HETATM   19  H   UNK N   1      21.212  17.826  -0.408  0.00  0.00     0.209 HD
ENDBRANCH  17  18
ENDBRANCH  13  17
ENDBRANCH   8  10
BRANCH   3  20
HETATM   20  O   UNK N   1      26.982  20.096   3.345  0.00  0.00    -0.345 OA
HETATM   21  H   UNK N   1      27.576  19.784   3.999  0.00  0.00     0.219 HD
ENDBRANCH   3  20
TORSDOF 5
ENDMDL
MODEL 2
REMARK VINA RESULT:      -5.7     18.094     20.366
REMARK  5 active torsions:
REMARK  status: ('A' for Active; 'I' for Inactive)
REMARK    1  A    between atoms: C_6  and  C_3 
REMARK    2  A    between atoms: O_14  and  C_3 
REMARK    3  A    between atoms: C_5  and  O_15 
REMARK    4  A    between atoms: C_7  and  N_13 
REMARK    5  A    between atoms: O_16  and  C_8 
ROOT
HETATM    1  C   UNK N   1      35.284  11.211  17.652  0.00  0.00     0.122 A 
HETATM    2  C   UNK N   1      35.308  10.585  18.900  0.00  0.00     0.077 A 
HETATM    3  C   UNK N   1      35.321  11.374  20.051  0.00  0.00     0.163 A 
HETATM    4  C   UNK N   1      35.258  13.335  18.715  0.00  0.00     0.330 A 
HETATM    5 Br   UNK N   1      35.349   8.678  19.011  0.00  0.00    -0.045 Br
HETATM    6  N   UNK N   1      35.288  12.724  19.941  0.00  0.00    -0.288 N 
ATOM      7  HN  UNK N   1      35.286  13.296  20.787  1.00  0.00     0.172 HD
HETATM    8  N   UNK N   1      35.263  12.572  17.558  0.00  0.00    -0.281 N 
HETATM    9  O   UNK N   1      35.256  14.552  18.656  0.00  0.00    -0.246 OA
ENDROOT
BRANCH   8  10
HETATM   10  C   UNK N   1      35.339  13.233  16.241  0.00  0.00     0.235 C 
HETATM   11  C   UNK N   1      34.448  12.583  15.196  0.00  0.00     0.088 C 
HETATM   12  C   UNK N   1      34.963  13.331  14.008  0.00  0.00     0.153 C 
HETATM   13  C   UNK N   1      36.472  13.332  14.287  0.00  0.00     0.176 C 
HETATM   14  O   UNK N   1      36.642  13.248  15.695  0.00  0.00    -0.356 OA
BRANCH  12  15
HETATM   15  O   UNK N   1      34.598  12.745  12.793  0.00  0.00    -0.393 OA
HETATM   16  H   UNK N   1      34.672  12.956  11.849  0.00  0.00     0.210 HD
ENDBRANCH  12  15
BRANCH  13  17
HETATM   17  C   UNK N   1      37.202  12.158  13.636  0.00  0.00     0.198 C 
BRANCH  17  18
HETATM   18  O   UNK N   1      37.658  12.524  12.364  0.00  0.00    -0.398 OA
HETATM   19  H   UNK N   1      38.585  12.775  12.231  0.00  0.00     0.209 HD
ENDBRANCH  17  18
ENDBRANCH  13  17
ENDBRANCH   8  10
BRANCH   3  20
HETATM   20  O   UNK N   1      35.373  10.807  21.268  0.00  0.00    -0.345 OA
HETATM   21  H   UNK N   1      36.100  10.268  21.509  0.00  0.00     0.219 HD
ENDBRANCH   3  20
TORSDOF 5
ENDMDL
MODEL 3
REMARK VINA RESULT:      -5.6      2.520      6.301
REMARK  5 active torsions:
REMARK  status: ('A' for Active; 'I' for Inactive)
REMARK    1  A    between atoms: C_6  and  C_3 
REMARK    2  A    between atoms: O_14  and  C_3 
REMARK    3  A    between atoms: C_5  and  O_15 
REMARK    4  A    between atoms: C_7  and  N_13 
REMARK    5  A    between atoms: O_16  and  C_8 
ROOT
HETATM    1  C   UNK N   1      23.937  18.686   4.878  0.00  0.00     0.122 A 
HETATM    2  C   UNK N   1      22.584  18.353   4.775  0.00  0.00     0.077 A 
HETATM    3  C   UNK N   1      21.801  19.003   3.821  0.00  0.00     0.163 A 
HETATM    4  C   UNK N   1      23.692  20.241   3.100  0.00  0.00     0.330 A 
HETATM    5 Br   UNK N   1      21.830  17.047   5.948  0.00  0.00    -0.045 Br
HETATM    6  N   UNK N   1      22.364  19.923   3.001  0.00  0.00    -0.288 N 
ATOM      7  HN  UNK N   1      21.788  20.386   2.298  1.00  0.00     0.172 HD
HETATM    8  N   UNK N   1      24.486  19.622   4.053  0.00  0.00    -0.281 N 
HETATM    9  O   UNK N   1      24.157  21.093   2.363  0.00  0.00    -0.246 OA
ENDROOT
BRANCH   8  10
HETATM   10  C   UNK N   1      25.889  20.044   4.228  0.00  0.00     0.235 C 
HETATM   11  C   UNK N   1      26.888  18.952   3.887  0.00  0.00     0.088 C 
HETATM   12  C   UNK N   1      28.112  19.638   4.403  0.00  0.00     0.153 C 
HETATM   13  C   UNK N   1      27.586  20.246   5.710  0.00  0.00     0.176 C 
HETATM   14  O   UNK N   1      26.191  20.458   5.546  0.00  0.00    -0.356 OA
BRANCH  12  15
HETATM   15  O   UNK N   1      29.198  18.772   4.562  0.00  0.00    -0.393 OA
HETATM   16  H   UNK N   1      30.050  18.775   5.025  0.00  0.00     0.210 HD
ENDBRANCH  12  15
BRANCH  13  17
HETATM   17  C   UNK N   1      27.804  19.342   6.922  0.00  0.00     0.198 C 
BRANCH  17  18
HETATM   18  O   UNK N   1      27.043  19.800   8.004  0.00  0.00    -0.398 OA
HETATM   19  H   UNK N   1      26.456  20.565   7.899  0.00  0.00     0.209 HD
ENDBRANCH  17  18
ENDBRANCH  13  17
ENDBRANCH   8  10
BRANCH   3  20
HETATM   20  O   UNK N   1      20.489  18.730   3.713  0.00  0.00    -0.345 OA
HETATM   21  H   UNK N   1      19.983  19.100   3.016  0.00  0.00     0.219 HD
ENDBRANCH   3  20
TORSDOF 5
ENDMDL
MODEL 4
REMARK VINA RESULT:      -5.6      2.170      2.993
REMARK  5 active torsions:
REMARK  status: ('A' for Active; 'I' for Inactive)
REMARK    1  A    between atoms: C_6  and  C_3 
REMARK    2  A    between atoms: O_14  and  C_3 
REMARK    3  A    between atoms: C_5  and  O_15 
REMARK    4  A    between atoms: C_7  and  N_13 
REMARK    5  A    between atoms: O_16  and  C_8 
ROOT
HETATM    1  C   UNK N   1      24.093  19.082   3.995  0.00  0.00     0.122 A 
HETATM    2  C   UNK N   1      25.435  18.876   4.322  0.00  0.00     0.077 A 
HETATM    3  C   UNK N   1      25.770  17.806   5.152  0.00  0.00     0.163 A 
HETATM    4  C   UNK N   1      23.485  17.178   5.277  0.00  0.00     0.330 A 
HETATM    5 Br   UNK N   1      26.774  20.066   3.658  0.00  0.00    -0.045 Br
HETATM    6  N   UNK N   1      24.800  16.977   5.606  0.00  0.00    -0.288 N 
ATOM      7  HN  UNK N   1      25.053  16.189   6.203  1.00  0.00     0.172 HD
HETATM    8  N   UNK N   1      23.126  18.246   4.470  0.00  0.00    -0.281 N 
HETATM    9  O   UNK N   1      22.637  16.427   5.726  0.00  0.00    -0.246 OA
ENDROOT
BRANCH   8  10
HETATM   10  C   UNK N   1      21.701  18.522   4.206  0.00  0.00     0.235 C 
HETATM   11  C   UNK N   1      21.128  17.680   3.078  0.00  0.00     0.088 C 
HETATM   12  C   UNK N   1      19.817  18.388   2.953  0.00  0.00     0.153 C 
HETATM   13  C   UNK N   1      20.254  19.853   3.089  0.00  0.00     0.176 C 
HETATM   14  O   UNK N   1      21.445  19.869   3.864  0.00  0.00    -0.356 OA
BRANCH  12  15
HETATM   15  O   UNK N   1      19.148  18.091   1.762  0.00  0.00    -0.393 OA
HETATM   16  H   UNK N   1      18.498  18.519   1.183  0.00  0.00     0.210 HD
ENDBRANCH  12  15
BRANCH  13  17
HETATM   17  C   UNK N   1      20.536  20.522   1.745  0.00  0.00     0.198 C 
BRANCH  17  18
HETATM   18  O   UNK N   1      21.089  21.791   1.948  0.00  0.00    -0.398 OA
HETATM   19  H   UNK N   1      22.021  21.958   1.736  0.00  0.00     0.209 HD
ENDBRANCH  17  18
ENDBRANCH  13  17
ENDBRANCH   8  10
BRANCH   3  20
HETATM   20  O   UNK N   1      27.048  17.593   5.512  0.00  0.00    -0.345 OA
HETATM   21  H   UNK N   1      27.663  17.247   4.896  0.00  0.00     0.219 HD
ENDBRANCH   3  20
TORSDOF 5
ENDMDL
MODEL 5
REMARK VINA RESULT:      -5.6     11.355     13.974
REMARK  5 active torsions:
REMARK  status: ('A' for Active; 'I' for Inactive)
REMARK    1  A    between atoms: C_6  and  C_3 
REMARK    2  A    between atoms: O_14  and  C_3 
REMARK    3  A    between atoms: C_5  and  O_15 
REMARK    4  A    between atoms: C_7  and  N_13 
REMARK    5  A    between atoms: O_16  and  C_8 
ROOT
HETATM    1  C   UNK N   1      34.421  14.610   9.903  0.00  0.00     0.122 A 
HETATM    2  C   UNK N   1      35.272  13.819  10.677  0.00  0.00     0.077 A 
HETATM    3  C   UNK N   1      36.320  14.430  11.366  0.00  0.00     0.163 A 
HETATM    4  C   UNK N   1      35.642  16.547  10.536  0.00  0.00     0.330 A 
HETATM    5 Br   UNK N   1      35.006  11.929  10.759  0.00  0.00    -0.045 Br
HETATM    6  N   UNK N   1      36.482  15.773  11.291  0.00  0.00    -0.288 N 
ATOM      7  HN  UNK N   1      37.244  16.215  11.807  1.00  0.00     0.172 HD
HETATM    8  N   UNK N   1      34.605  15.960   9.828  0.00  0.00    -0.281 N 
HETATM    9  O   UNK N   1      35.835  17.748  10.472  0.00  0.00    -0.246 OA
ENDROOT
BRANCH   8  10
HETATM   10  C   UNK N   1      33.768  16.781   8.931  0.00  0.00     0.235 C 
HETATM   11  C   UNK N   1      32.543  16.044   8.418  0.00  0.00     0.088 C 
HETATM   12  C   UNK N   1      32.115  17.058   7.406  0.00  0.00     0.153 C 
HETATM   13  C   UNK N   1      33.465  17.460   6.796  0.00  0.00     0.176 C 
HETATM   14  O   UNK N   1      34.459  17.245   7.789  0.00  0.00    -0.356 OA
BRANCH  12  15
HETATM   15  O   UNK N   1      31.190  16.556   6.487  0.00  0.00    -0.393 OA
HETATM   16  H   UNK N   1      30.756  15.708   6.302  0.00  0.00     0.210 HD
ENDBRANCH  12  15
BRANCH  13  17
HETATM   17  C   UNK N   1      33.829  16.644   5.557  0.00  0.00     0.198 C 
BRANCH  17  18
HETATM   18  O   UNK N   1      35.054  15.996   5.752  0.00  0.00    -0.398 OA
HETATM   19  H   UNK N   1      35.101  15.191   6.292  0.00  0.00     0.209 HD
ENDBRANCH  17  18
ENDBRANCH  13  17
ENDBRANCH   8  10
BRANCH   3  20
HETATM   20  O   UNK N   1      37.176  13.696  12.098  0.00  0.00    -0.345 OA
HETATM   21  H   UNK N   1      38.044  13.528  11.786  0.00  0.00     0.219 HD
ENDBRANCH   3  20
TORSDOF 5
ENDMDL
MODEL 6
REMARK VINA RESULT:      -5.4     10.565     11.597
REMARK  5 active torsions:
REMARK  status: ('A' for Active; 'I' for Inactive)
REMARK    1  A    between atoms: C_6  and  C_3 
REMARK    2  A    between atoms: O_14  and  C_3 
REMARK    3  A    between atoms: C_5  and  O_15 
REMARK    4  A    between atoms: C_7  and  N_13 
REMARK    5  A    between atoms: O_16  and  C_8 
ROOT
HETATM    1  C   UNK N   1      29.746  22.315  -5.034  0.00  0.00     0.122 A 
HETATM    2  C   UNK N   1      30.448  21.117  -5.185  0.00  0.00     0.077 A 
HETATM    3  C   UNK N   1      31.192  20.632  -4.109  0.00  0.00     0.163 A 
HETATM    4  C   UNK N   1      30.509  22.484  -2.792  0.00  0.00     0.330 A 
HETATM    5 Br   UNK N   1      30.401  20.185  -6.852  0.00  0.00    -0.045 Br
HETATM    6  N   UNK N   1      31.204  21.313  -2.938  0.00  0.00    -0.288 N 
ATOM      7  HN  UNK N   1      31.741  20.947  -2.151  1.00  0.00     0.172 HD
HETATM    8  N   UNK N   1      29.778  22.995  -3.853  0.00  0.00    -0.281 N 
HETATM    9  O   UNK N   1      30.565  23.082  -1.732  0.00  0.00    -0.246 OA
ENDROOT
BRANCH   8  10
HETATM   10  C   UNK N   1      29.119  24.309  -3.727  0.00  0.00     0.235 C 
HETATM   11  C   UNK N   1      27.616  24.206  -3.526  0.00  0.00     0.088 C 
HETATM   12  C   UNK N   1      27.298  25.658  -3.688  0.00  0.00     0.153 C 
HETATM   13  C   UNK N   1      28.204  26.033  -4.868  0.00  0.00     0.176 C 
HETATM   14  O   UNK N   1      29.311  25.144  -4.851  0.00  0.00    -0.356 OA
BRANCH  12  15
HETATM   15  O   UNK N   1      25.938  25.899  -3.900  0.00  0.00    -0.393 OA
HETATM   16  H   UNK N   1      25.240  26.447  -3.508  0.00  0.00     0.210 HD
ENDBRANCH  12  15
BRANCH  13  17
HETATM   17  C   UNK N   1      27.503  25.916  -6.221  0.00  0.00     0.198 C 
BRANCH  17  18
HETATM   18  O   UNK N   1      26.710  27.046  -6.449  0.00  0.00    -0.398 OA
HETATM   19  H   UNK N   1      26.354  27.552  -5.702  0.00  0.00     0.209 HD
ENDBRANCH  17  18
ENDBRANCH  13  17
ENDBRANCH   8  10
BRANCH   3  20
HETATM   20  O   UNK N   1      31.904  19.497  -4.226  0.00  0.00    -0.345 OA
HETATM   21  H   UNK N   1      32.819  19.489  -4.025  0.00  0.00     0.219 HD
ENDBRANCH   3  20
TORSDOF 5
ENDMDL
MODEL 7
REMARK VINA RESULT:      -5.4     10.513     12.096
REMARK  5 active torsions:
REMARK  status: ('A' for Active; 'I' for Inactive)
REMARK    1  A    between atoms: C_6  and  C_3 
REMARK    2  A    between atoms: O_14  and  C_3 
REMARK    3  A    between atoms: C_5  and  O_15 
REMARK    4  A    between atoms: C_7  and  N_13 
REMARK    5  A    between atoms: O_16  and  C_8 
ROOT
HETATM    1  C   UNK N   1      27.063  25.826  -3.997  0.00  0.00     0.122 A 
HETATM    2  C   UNK N   1      26.123  26.771  -4.414  0.00  0.00     0.077 A 
HETATM    3  C   UNK N   1      25.188  26.409  -5.384  0.00  0.00     0.163 A 
HETATM    4  C   UNK N   1      26.110  24.224  -5.469  0.00  0.00     0.330 A 
HETATM    5 Br   UNK N   1      26.150  28.534  -3.678  0.00  0.00    -0.045 Br
HETATM    6  N   UNK N   1      25.191  25.151  -5.886  0.00  0.00    -0.288 N 
ATOM      7  HN  UNK N   1      24.497  24.889  -6.587  1.00  0.00     0.172 HD
HETATM    8  N   UNK N   1      27.061  24.567  -4.520  0.00  0.00    -0.281 N 
HETATM    9  O   UNK N   1      26.099  23.111  -5.963  0.00  0.00    -0.246 OA
ENDROOT
BRANCH   8  10
HETATM   10  C   UNK N   1      28.115  23.601  -4.153  0.00  0.00     0.235 C 
HETATM   11  C   UNK N   1      28.544  23.711  -2.700  0.00  0.00     0.088 C 
HETATM   12  C   UNK N   1      29.728  22.802  -2.777  0.00  0.00     0.153 C 
HETATM   13  C   UNK N   1      30.344  23.226  -4.117  0.00  0.00     0.176 C 
HETATM   14  O   UNK N   1      29.292  23.735  -4.924  0.00  0.00    -0.356 OA
BRANCH  12  15
HETATM   15  O   UNK N   1      30.585  22.926  -1.679  0.00  0.00    -0.393 OA
HETATM   16  H   UNK N   1      31.473  22.626  -1.430  0.00  0.00     0.210 HD
ENDBRANCH  12  15
BRANCH  13  17
HETATM   17  C   UNK N   1      31.413  24.308  -3.969  0.00  0.00     0.198 C 
BRANCH  17  18
HETATM   18  O   UNK N   1      32.611  23.880  -4.553  0.00  0.00    -0.398 OA
HETATM   19  H   UNK N   1      33.431  23.867  -4.034  0.00  0.00     0.209 HD
ENDBRANCH  17  18
ENDBRANCH  13  17
ENDBRANCH   8  10
BRANCH   3  20
HETATM   20  O   UNK N   1      24.286  27.301  -5.831  0.00  0.00    -0.345 OA
HETATM   21  H   UNK N   1      24.385  28.212  -5.639  0.00  0.00     0.219 HD
ENDBRANCH   3  20
TORSDOF 5
ENDMDL
MODEL 8
REMARK VINA RESULT:      -5.3     10.610     12.249
REMARK  5 active torsions:
REMARK  status: ('A' for Active; 'I' for Inactive)
REMARK    1  A    between atoms: C_6  and  C_3 
REMARK    2  A    between atoms: O_14  and  C_3 
REMARK    3  A    between atoms: C_5  and  O_15 
REMARK    4  A    between atoms: C_7  and  N_13 
REMARK    5  A    between atoms: O_16  and  C_8 
ROOT
HETATM    1  C   UNK N   1      27.756  22.816  -6.658  0.00  0.00     0.122 A 
HETATM    2  C   UNK N   1      27.130  22.170  -7.726  0.00  0.00     0.077 A 
HETATM    3  C   UNK N   1      25.840  22.559  -8.087  0.00  0.00     0.163 A 
HETATM    4  C   UNK N   1      25.848  24.200  -6.373  0.00  0.00     0.330 A 
HETATM    5 Br   UNK N   1      28.030  20.760  -8.650  0.00  0.00    -0.045 Br
HETATM    6  N   UNK N   1      25.228  23.564  -7.415  0.00  0.00    -0.288 N 
ATOM      7  HN  UNK N   1      24.289  23.852  -7.691  1.00  0.00     0.172 HD
HETATM    8  N   UNK N   1      27.123  23.818  -5.985  0.00  0.00    -0.281 N 
HETATM    9  O   UNK N   1      25.256  25.081  -5.776  0.00  0.00    -0.246 OA
ENDROOT
BRANCH   8  10
HETATM   10  C   UNK N   1      27.744  24.430  -4.795  0.00  0.00     0.235 C 
HETATM   11  C   UNK N   1      29.213  24.765  -4.994  0.00  0.00     0.088 C 
HETATM   12  C   UNK N   1      29.529  25.110  -3.575  0.00  0.00     0.153 C 
HETATM   13  C   UNK N   1      28.767  24.010  -2.822  0.00  0.00     0.176 C 
HETATM   14  O   UNK N   1      27.678  23.613  -3.643  0.00  0.00    -0.356 OA
BRANCH  12  15
HETATM   15  O   UNK N   1      30.902  25.146  -3.314  0.00  0.00    -0.393 OA
HETATM   16  H   UNK N   1      31.724  24.953  -3.791  0.00  0.00     0.210 HD
ENDBRANCH  12  15
BRANCH  13  17
HETATM   17  C   UNK N   1      29.627  22.782  -2.524  0.00  0.00     0.198 C 
BRANCH  17  18
HETATM   18  O   UNK N   1      30.436  23.024  -1.408  0.00  0.00    -0.398 OA
HETATM   19  H   UNK N   1      30.869  23.884  -1.295  0.00  0.00     0.209 HD
ENDBRANCH  17  18
ENDBRANCH  13  17
ENDBRANCH   8  10
BRANCH   3  20
HETATM   20  O   UNK N   1      25.195  21.941  -9.091  0.00  0.00    -0.345 OA
HETATM   21  H   UNK N   1      25.661  21.382  -9.682  0.00  0.00     0.219 HD
ENDBRANCH   3  20
TORSDOF 5
ENDMDL
MODEL 9
REMARK VINA RESULT:      -5.2      5.738      7.894
REMARK  5 active torsions:
REMARK  status: ('A' for Active; 'I' for Inactive)
REMARK    1  A    between atoms: C_6  and  C_3 
REMARK    2  A    between atoms: O_14  and  C_3 
REMARK    3  A    between atoms: C_5  and  O_15 
REMARK    4  A    between atoms: C_7  and  N_13 
REMARK    5  A    between atoms: O_16  and  C_8 
ROOT
HETATM    1  C   UNK N   1      30.434  17.367   6.564  0.00  0.00     0.122 A 
HETATM    2  C   UNK N   1      31.697  17.243   7.147  0.00  0.00     0.077 A 
HETATM    3  C   UNK N   1      31.817  17.369   8.531  0.00  0.00     0.163 A 
HETATM    4  C   UNK N   1      29.474  17.702   8.710  0.00  0.00     0.330 A 
HETATM    5 Br   UNK N   1      33.229  16.931   6.048  0.00  0.00    -0.045 Br
HETATM    6  N   UNK N   1      30.712  17.587   9.284  0.00  0.00    -0.288 N 
ATOM      7  HN  UNK N   1      30.805  17.667  10.298  1.00  0.00     0.172 HD
HETATM    8  N   UNK N   1      29.333  17.599   7.335  0.00  0.00    -0.281 N 
HETATM    9  O   UNK N   1      28.508  17.924   9.418  0.00  0.00    -0.246 OA
ENDROOT
BRANCH   8  10
HETATM   10  C   UNK N   1      28.017  17.830   6.710  0.00  0.00     0.235 C 
HETATM   11  C   UNK N   1      27.816  17.037   5.430  0.00  0.00     0.088 C 
HETATM   12  C   UNK N   1      26.548  17.694   4.990  0.00  0.00     0.153 C 
HETATM   13  C   UNK N   1      26.845  19.165   5.311  0.00  0.00     0.176 C 
HETATM   14  O   UNK N   1      27.783  19.184   6.378  0.00  0.00    -0.356 OA
BRANCH  12  15
HETATM   15  O   UNK N   1      26.238  17.444   3.650  0.00  0.00    -0.393 OA
HETATM   16  H   UNK N   1      26.716  17.374   2.809  0.00  0.00     0.210 HD
ENDBRANCH  12  15
BRANCH  13  17
HETATM   17  C   UNK N   1      27.437  19.929   4.128  0.00  0.00     0.198 C 
BRANCH  17  18
HETATM   18  O   UNK N   1      26.413  20.359   3.275  0.00  0.00    -0.398 OA
HETATM   19  H   UNK N   1      25.527  19.969   3.340  0.00  0.00     0.209 HD
ENDBRANCH  17  18
ENDBRANCH  13  17
ENDBRANCH   8  10
BRANCH   3  20
HETATM   20  O   UNK N   1      33.020  17.283   9.124  0.00  0.00    -0.345 OA
HETATM   21  H   UNK N   1      33.589  18.027   9.151  0.00  0.00     0.219 HD
ENDBRANCH   3  20
TORSDOF 5
ENDMDL
