MODEL 1
REMARK VINA RESULT:      -5.0      0.000      0.000
REMARK WARNING: 32 MAX_TORS EXCEEDED!!!
REMARK  50 active torsions:
REMARK  status: ('A' for Active; 'I' for Inactive)
REMARK    1  A    between atoms: C_5  and  C_3 
REMARK    2  A    between atoms: C_6  and  C_4 
REMARK    3  A    between atoms: C_7  and  C_5 
REMARK    4  A    between atoms: C_8  and  C_6 
REMARK    5  A    between atoms: C_9  and  C_7 
REMARK    6  A    between atoms: C_10  and  C_8 
REMARK    7  A    between atoms: C_11  and  C_9 
REMARK    8  A    between atoms: C_12  and  C_10 
REMARK    9  A    between atoms: C_13  and  C_11 
REMARK   10  A    between atoms: C_14  and  C_12 
REMARK   11  A    between atoms: C_15  and  C_13 
REMARK   12  A    between atoms: C_16  and  C_14 
REMARK   13  A    between atoms: C_17  and  C_15 
REMARK   14  A    between atoms: C_28  and  C_16 
REMARK   15  A    between atoms: C_18  and  C_17 
REMARK   16  A    between atoms: C_19  and  C_18 
REMARK   17  A    between atoms: C_20  and  C_19 
REMARK   18  A    between atoms: C_21  and  C_20 
REMARK   19  A    between atoms: C_22  and  C_21 
REMARK   20  A    between atoms: C_23  and  C_22 
REMARK   21  A    between atoms: C_24  and  C_23 
REMARK   22  A    between atoms: C_25  and  C_24 
REMARK   23  A    between atoms: C_26  and  C_25 
REMARK   24  A    between atoms: C_27  and  C_26 
REMARK   25  A    between atoms: C_29  and  C_27 
REMARK   26  A    between atoms: C_30  and  C_28 
REMARK   27  A    between atoms: C_31  and  C_29 
REMARK   28  A    between atoms: C_32  and  C_30 
REMARK   29  A    between atoms: C_33  and  C_31 
REMARK   30  A    between atoms: C_34  and  C_32 
REMARK   31  A    between atoms: C_35  and  C_33 
REMARK   32  A    between atoms: C_36  and  C_34 
REMARK   33  A    between atoms: C_37  and  C_35 
REMARK   34  A    between atoms: C_38  and  C_36 
REMARK   35  A    between atoms: C_39  and  C_37 
REMARK   36  A    between atoms: C_43  and  C_38 
REMARK   37  A    between atoms: C_45  and  C_39 
REMARK   38  A    between atoms: C_44  and  C_40 
REMARK   39  A    between atoms: O_53  and  C_40 
REMARK   40  A    between atoms: C_42  and  C_41 
REMARK   41  A    between atoms: O_60  and  C_41 
REMARK   42  A    between atoms: C_46  and  C_42 
REMARK   43  A    between atoms: C_42  and  N_51 
REMARK   44  A    between atoms: C_46  and  C_43 
REMARK   45  A    between atoms: C_43  and  O_54 
REMARK   46  A    between atoms: C_45  and  O_55 
REMARK   47  A    between atoms: C_46  and  O_56 
REMARK   48  A    between atoms: C_48  and  O_58 
REMARK   49  A    between atoms: C_49  and  O_59 
REMARK   50  A    between atoms: C_50  and  O_60 
ROOT
HETATM    1  C   UNK N   1      35.234  15.363   9.766  0.00  0.00     0.179 C 
HETATM    2  C   UNK N   1      34.709  14.476  10.920  0.00  0.00     0.180 C 
HETATM    3  C   UNK N   1      34.706  13.020  10.436  0.00  0.00     0.183 C 
HETATM    4  C   UNK N   1      33.942  12.903   9.111  0.00  0.00     0.204 C 
HETATM    5  C   UNK N   1      34.524  13.901   8.085  0.00  0.00     0.291 C 
HETATM    6  O   UNK N   1      33.416  14.864  11.289  0.00  0.00    -0.390 OA
HETATM    7  O   UNK N   1      34.415  15.226   8.608  0.00  0.00    -0.348 OA
HETATM    8  H   UNK N   1      32.505  15.000  11.590  0.00  0.00     0.210 HD
ENDROOT
BRANCH   1   9
HETATM    9  C   UNK N   1      35.314  16.833  10.171  0.00  0.00     0.198 C 
BRANCH   9  10
HETATM   10  O   UNK N   1      34.182  17.539   9.761  0.00  0.00    -0.398 OA
HETATM   11  H   UNK N   1      33.571  18.196   9.394  0.00  0.00     0.209 HD
ENDBRANCH   9  10
ENDBRANCH   1   9
BRANCH   3  12
HETATM   12  O   UNK N   1      34.150  12.178  11.404  0.00  0.00    -0.390 OA
HETATM   13  H   UNK N   1      33.573  12.419  12.146  0.00  0.00     0.210 HD
ENDBRANCH   3  12
BRANCH   4  14
HETATM   14  O   UNK N   1      32.581  13.170   9.305  0.00  0.00    -0.388 OA
HETATM   15  H   UNK N   1      31.706  13.317   9.696  0.00  0.00     0.210 HD
ENDBRANCH   4  14
BRANCH   5  16
HETATM   16  O   UNK N   1      33.804  13.729   6.875  0.00  0.00    -0.356 OA
BRANCH  16  17
HETATM   17  C   UNK N   1      33.558  14.954   6.221  0.00  0.00     0.199 C 
BRANCH  17  18
HETATM   18  C   UNK N   1      32.076  15.295   6.393  0.00  0.00     0.138 C 
BRANCH  18  19
HETATM   19  C   UNK N   1      31.766  16.671   7.019  0.00  0.00     0.171 C 
BRANCH  19  20
HETATM   20  C   UNK N   1      30.991  16.701   8.337  0.00  0.00     0.149 C 
BRANCH  20  21
HETATM   21  C   UNK N   1      30.553  18.115   8.733  0.00  0.00     0.034 C 
BRANCH  21  22
HETATM   22  C   UNK N   1      29.056  18.231   9.035  0.00  0.00     0.002 C 
BRANCH  22  23
HETATM   23  C   UNK N   1      28.227  18.821   7.891  0.00  0.00     0.000 C 
BRANCH  23  24
HETATM   24  C   UNK N   1      28.277  17.920   6.654  0.00  0.00     0.000 C 
BRANCH  24  25
HETATM   25  C   UNK N   1      28.073  18.651   5.333  0.00  0.00     0.000 C 
BRANCH  25  26
HETATM   26  C   UNK N   1      27.877  20.152   5.493  0.00  0.00     0.000 C 
BRANCH  26  27
HETATM   27  C   UNK N   1      26.497  20.570   4.998  0.00  0.00     0.000 C 
BRANCH  27  28
HETATM   28  C   UNK N   1      26.190  19.933   3.653  0.00  0.00     0.000 C 
BRANCH  28  29
HETATM   29  C   UNK N   1      24.758  19.435   3.601  0.00  0.00     0.000 C 
BRANCH  29  30
HETATM   30  C   UNK N   1      24.542  18.437   4.721  0.00  0.00     0.000 C 
BRANCH  30  31
HETATM   31  C   UNK N   1      23.247  17.676   4.520  0.00  0.00     0.000 C 
BRANCH  31  32
HETATM   32  C   UNK N   1      22.334  17.924   5.704  0.00  0.00    -0.000 C 
BRANCH  32  33
HETATM   33  C   UNK N   1      21.916  16.597   6.301  0.00  0.00    -0.005 C 
HETATM   34  C   UNK N   1      22.518  15.468   5.490  0.00  0.00     0.005 C 
ENDBRANCH  32  33
ENDBRANCH  31  32
ENDBRANCH  30  31
ENDBRANCH  29  30
ENDBRANCH  28  29
ENDBRANCH  27  28
ENDBRANCH  26  27
ENDBRANCH  25  26
ENDBRANCH  24  25
ENDBRANCH  23  24
ENDBRANCH  22  23
ENDBRANCH  21  22
ENDBRANCH  20  21
BRANCH  20  35
HETATM   35  O   UNK N   1      31.715  16.095   9.367  0.00  0.00    -0.393 OA
HETATM   36  H   UNK N   1      32.668  16.001   9.521  0.00  0.00     0.210 HD
ENDBRANCH  20  35
ENDBRANCH  19  20
BRANCH  19  37
HETATM   37  O   UNK N   1      32.938  17.428   7.157  0.00  0.00    -0.391 OA
HETATM   38  H   UNK N   1      33.562  17.644   7.867  0.00  0.00     0.210 HD
ENDBRANCH  19  37
ENDBRANCH  18  19
BRANCH  18  39
HETATM   39  N   UNK N   1      31.433  15.290   5.090  0.00  0.00    -0.365 N 
HETATM   40  C   UNK N   1      30.741  14.308   4.621  0.00  0.00     0.111 C 
ATOM     41  HN  UNK N   1      31.537  16.120   4.507  1.00  0.00     0.161 HD
BRANCH  40  42
HETATM   42  C   UNK N   1      30.009  14.451   3.314  0.00  0.00     0.083 C 
BRANCH  42  43
HETATM   43  C   UNK N   1      29.049  15.643   3.303  0.00  0.00     0.008 C 
BRANCH  43  44
HETATM   44  C   UNK N   1      27.859  15.416   2.380  0.00  0.00     0.000 C 
BRANCH  44  45
HETATM   45  C   UNK N   1      26.664  16.255   2.795  0.00  0.00     0.000 C 
BRANCH  45  46
HETATM   46  C   UNK N   1      25.406  15.671   2.179  0.00  0.00     0.000 C 
BRANCH  46  47
HETATM   47  C   UNK N   1      25.445  14.155   2.202  0.00  0.00     0.000 C 
BRANCH  47  48
HETATM   48  C   UNK N   1      25.052  13.611   3.571  0.00  0.00     0.000 C 
BRANCH  48  49
HETATM   49  C   UNK N   1      26.115  12.685   4.146  0.00  0.00     0.000 C 
BRANCH  49  50
HETATM   50  C   UNK N   1      26.324  12.945   5.626  0.00  0.00     0.000 C 
BRANCH  50  51
HETATM   51  C   UNK N   1      26.195  14.432   5.903  0.00  0.00     0.000 C 
BRANCH  51  52
HETATM   52  C   UNK N   1      25.541  14.683   7.254  0.00  0.00     0.000 C 
BRANCH  52  53
HETATM   53  C   UNK N   1      25.087  13.386   7.895  0.00  0.00     0.000 C 
BRANCH  53  54
HETATM   54  C   UNK N   1      23.643  13.493   8.356  0.00  0.00     0.000 C 
BRANCH  54  55
HETATM   55  C   UNK N   1      22.919  12.164   8.194  0.00  0.00     0.000 C 
BRANCH  55  56
HETATM   56  C   UNK N   1      23.697  11.179   7.331  0.00  0.00     0.000 C 
BRANCH  56  57
HETATM   57  C   UNK N   1      22.825  10.655   6.201  0.00  0.00     0.000 C 
BRANCH  57  58
HETATM   58  C   UNK N   1      22.416  11.786   5.280  0.00  0.00     0.000 C 
BRANCH  58  59
HETATM   59  C   UNK N   1      22.160  11.248   3.884  0.00  0.00     0.000 C 
BRANCH  59  60
HETATM   60  C   UNK N   1      20.851  11.806   3.359  0.00  0.00     0.000 C 
BRANCH  60  61
HETATM   61  C   UNK N   1      20.867  11.887   1.843  0.00  0.00     0.000 C 
BRANCH  61  62
HETATM   62  C   UNK N   1      22.092  12.649   1.368  0.00  0.00     0.000 C 
BRANCH  62  63
HETATM   63  C   UNK N   1      21.687  14.000   0.815  0.00  0.00     0.000 C 
BRANCH  63  64
HETATM   64  C   UNK N   1      21.796  15.050   1.902  0.00  0.00    -0.000 C 
BRANCH  64  65
HETATM   65  C   UNK N   1      20.786  16.149   1.646  0.00  0.00    -0.005 C 
HETATM   66  C   UNK N   1      20.051  16.471   2.930  0.00  0.00     0.005 C 
ENDBRANCH  64  65
ENDBRANCH  63  64
ENDBRANCH  62  63
ENDBRANCH  61  62
ENDBRANCH  60  61
ENDBRANCH  59  60
ENDBRANCH  58  59
ENDBRANCH  57  58
ENDBRANCH  56  57
ENDBRANCH  55  56
ENDBRANCH  54  55
ENDBRANCH  53  54
ENDBRANCH  52  53
ENDBRANCH  51  52
ENDBRANCH  50  51
ENDBRANCH  49  50
ENDBRANCH  48  49
ENDBRANCH  47  48
ENDBRANCH  46  47
ENDBRANCH  45  46
ENDBRANCH  44  45
ENDBRANCH  43  44
ENDBRANCH  42  43
ENDBRANCH  40  42
BRANCH  40  67
HETATM   67  O   UNK N   1      30.613  13.159   5.316  0.00  0.00    -0.350 OA
HETATM   68  H   UNK N   1      30.922  12.446   5.842  0.00  0.00     0.219 HD
ENDBRANCH  40  67
ENDBRANCH  18  39
ENDBRANCH  17  18
ENDBRANCH  16  17
ENDBRANCH   5  16
TORSDOF 50
ENDMDL
MODEL 2
REMARK VINA RESULT:      -4.9      1.323      4.004
REMARK WARNING: 32 MAX_TORS EXCEEDED!!!
REMARK  50 active torsions:
REMARK  status: ('A' for Active; 'I' for Inactive)
REMARK    1  A    between atoms: C_5  and  C_3 
REMARK    2  A    between atoms: C_6  and  C_4 
REMARK    3  A    between atoms: C_7  and  C_5 
REMARK    4  A    between atoms: C_8  and  C_6 
REMARK    5  A    between atoms: C_9  and  C_7 
REMARK    6  A    between atoms: C_10  and  C_8 
REMARK    7  A    between atoms: C_11  and  C_9 
REMARK    8  A    between atoms: C_12  and  C_10 
REMARK    9  A    between atoms: C_13  and  C_11 
REMARK   10  A    between atoms: C_14  and  C_12 
REMARK   11  A    between atoms: C_15  and  C_13 
REMARK   12  A    between atoms: C_16  and  C_14 
REMARK   13  A    between atoms: C_17  and  C_15 
REMARK   14  A    between atoms: C_28  and  C_16 
REMARK   15  A    between atoms: C_18  and  C_17 
REMARK   16  A    between atoms: C_19  and  C_18 
REMARK   17  A    between atoms: C_20  and  C_19 
REMARK   18  A    between atoms: C_21  and  C_20 
REMARK   19  A    between atoms: C_22  and  C_21 
REMARK   20  A    between atoms: C_23  and  C_22 
REMARK   21  A    between atoms: C_24  and  C_23 
REMARK   22  A    between atoms: C_25  and  C_24 
REMARK   23  A    between atoms: C_26  and  C_25 
REMARK   24  A    between atoms: C_27  and  C_26 
REMARK   25  A    between atoms: C_29  and  C_27 
REMARK   26  A    between atoms: C_30  and  C_28 
REMARK   27  A    between atoms: C_31  and  C_29 
REMARK   28  A    between atoms: C_32  and  C_30 
REMARK   29  A    between atoms: C_33  and  C_31 
REMARK   30  A    between atoms: C_34  and  C_32 
REMARK   31  A    between atoms: C_35  and  C_33 
REMARK   32  A    between atoms: C_36  and  C_34 
REMARK   33  A    between atoms: C_37  and  C_35 
REMARK   34  A    between atoms: C_38  and  C_36 
REMARK   35  A    between atoms: C_39  and  C_37 
REMARK   36  A    between atoms: C_43  and  C_38 
REMARK   37  A    between atoms: C_45  and  C_39 
REMARK   38  A    between atoms: C_44  and  C_40 
REMARK   39  A    between atoms: O_53  and  C_40 
REMARK   40  A    between atoms: C_42  and  C_41 
REMARK   41  A    between atoms: O_60  and  C_41 
REMARK   42  A    between atoms: C_46  and  C_42 
REMARK   43  A    between atoms: C_42  and  N_51 
REMARK   44  A    between atoms: C_46  and  C_43 
REMARK   45  A    between atoms: C_43  and  O_54 
REMARK   46  A    between atoms: C_45  and  O_55 
REMARK   47  A    between atoms: C_46  and  O_56 
REMARK   48  A    between atoms: C_48  and  O_58 
REMARK   49  A    between atoms: C_49  and  O_59 
REMARK   50  A    between atoms: C_50  and  O_60 
ROOT
HETATM    1  C   UNK N   1      35.252  15.526   9.905  0.00  0.00     0.179 C 
HETATM    2  C   UNK N   1      34.674  14.490  10.897  0.00  0.00     0.180 C 
HETATM    3  C   UNK N   1      34.654  13.123  10.198  0.00  0.00     0.183 C 
HETATM    4  C   UNK N   1      33.928  13.227   8.850  0.00  0.00     0.204 C 
HETATM    5  C   UNK N   1      34.562  14.353   8.003  0.00  0.00     0.291 C 
HETATM    6  O   UNK N   1      33.378  14.850  11.286  0.00  0.00    -0.390 OA
HETATM    7  O   UNK N   1      34.465  15.586   8.718  0.00  0.00    -0.348 OA
HETATM    8  H   UNK N   1      32.462  14.963  11.580  0.00  0.00     0.210 HD
ENDROOT
BRANCH   1   9
HETATM    9  C   UNK N   1      35.351  16.916  10.530  0.00  0.00     0.198 C 
BRANCH   9  10
HETATM   10  O   UNK N   1      35.267  17.919   9.563  0.00  0.00    -0.398 OA
HETATM   11  H   UNK N   1      35.452  18.655   8.959  0.00  0.00     0.209 HD
ENDBRANCH   9  10
ENDBRANCH   1   9
BRANCH   3  12
HETATM   12  O   UNK N   1      34.051  12.159  11.012  0.00  0.00    -0.390 OA
HETATM   13  H   UNK N   1      34.250  11.211  11.062  0.00  0.00     0.210 HD
ENDBRANCH   3  12
BRANCH   4  14
HETATM   14  O   UNK N   1      32.568  13.496   9.047  0.00  0.00    -0.388 OA
HETATM   15  H   UNK N   1      31.707  13.716   9.436  0.00  0.00     0.210 HD
ENDBRANCH   4  14
BRANCH   5  16
HETATM   16  O   UNK N   1      33.876  14.384   6.763  0.00  0.00    -0.356 OA
BRANCH  16  17
HETATM   17  C   UNK N   1      33.710  15.698   6.276  0.00  0.00     0.199 C 
BRANCH  17  18
HETATM   18  C   UNK N   1      32.217  16.031   6.308  0.00  0.00     0.138 C 
BRANCH  18  19
HETATM   19  C   UNK N   1      31.809  17.221   7.202  0.00  0.00     0.171 C 
BRANCH  19  20
HETATM   20  C   UNK N   1      30.914  16.936   8.410  0.00  0.00     0.149 C 
BRANCH  20  21
HETATM   21  C   UNK N   1      30.201  18.190   8.926  0.00  0.00     0.034 C 
BRANCH  21  22
HETATM   22  C   UNK N   1      28.689  18.180   8.682  0.00  0.00     0.002 C 
BRANCH  22  23
HETATM   23  C   UNK N   1      28.225  19.128   7.572  0.00  0.00     0.000 C 
BRANCH  23  24
HETATM   24  C   UNK N   1      28.266  18.438   6.206  0.00  0.00     0.000 C 
BRANCH  24  25
HETATM   25  C   UNK N   1      26.953  18.489   5.435  0.00  0.00     0.000 C 
BRANCH  25  26
HETATM   26  C   UNK N   1      26.269  17.134   5.309  0.00  0.00     0.000 C 
BRANCH  26  27
HETATM   27  C   UNK N   1      27.131  16.038   5.923  0.00  0.00     0.000 C 
BRANCH  27  28
HETATM   28  C   UNK N   1      26.370  15.298   7.011  0.00  0.00     0.000 C 
BRANCH  28  29
HETATM   29  C   UNK N   1      24.886  15.247   6.697  0.00  0.00     0.000 C 
BRANCH  29  30
HETATM   30  C   UNK N   1      24.386  13.833   6.914  0.00  0.00     0.000 C 
BRANCH  30  31
HETATM   31  C   UNK N   1      24.932  13.263   8.207  0.00  0.00     0.000 C 
BRANCH  31  32
HETATM   32  C   UNK N   1      23.864  12.414   8.869  0.00  0.00    -0.000 C 
BRANCH  32  33
HETATM   33  C   UNK N   1      23.906  12.633  10.366  0.00  0.00    -0.005 C 
HETATM   34  C   UNK N   1      22.948  11.675  11.042  0.00  0.00     0.005 C 
ENDBRANCH  32  33
ENDBRANCH  31  32
ENDBRANCH  30  31
ENDBRANCH  29  30
ENDBRANCH  28  29
ENDBRANCH  27  28
ENDBRANCH  26  27
ENDBRANCH  25  26
ENDBRANCH  24  25
ENDBRANCH  23  24
ENDBRANCH  22  23
ENDBRANCH  21  22
ENDBRANCH  20  21
BRANCH  20  35
HETATM   35  O   UNK N   1      31.628  16.309   9.435  0.00  0.00    -0.393 OA
HETATM   36  H   UNK N   1      32.406  15.731   9.423  0.00  0.00     0.210 HD
ENDBRANCH  20  35
ENDBRANCH  19  20
BRANCH  19  37
HETATM   37  O   UNK N   1      32.938  17.935   7.625  0.00  0.00    -0.391 OA
HETATM   38  H   UNK N   1      33.597  17.863   8.332  0.00  0.00     0.210 HD
ENDBRANCH  19  37
ENDBRANCH  18  19
BRANCH  18  39
HETATM   39  N   UNK N   1      31.776  16.366   4.965  0.00  0.00    -0.365 N 
HETATM   40  C   UNK N   1      30.841  15.748   4.328  0.00  0.00     0.111 C 
ATOM     41  HN  UNK N   1      32.239  17.143   4.493  1.00  0.00     0.161 HD
BRANCH  40  42
HETATM   42  C   UNK N   1      30.371  16.253   2.990  0.00  0.00     0.083 C 
BRANCH  42  43
HETATM   43  C   UNK N   1      28.848  16.374   2.906  0.00  0.00     0.008 C 
BRANCH  43  44
HETATM   44  C   UNK N   1      28.213  15.187   2.195  0.00  0.00     0.000 C 
BRANCH  44  45
HETATM   45  C   UNK N   1      26.717  15.375   2.020  0.00  0.00     0.000 C 
BRANCH  45  46
HETATM   46  C   UNK N   1      26.018  14.044   2.229  0.00  0.00     0.000 C 
BRANCH  46  47
HETATM   47  C   UNK N   1      24.895  14.176   3.240  0.00  0.00     0.000 C 
BRANCH  47  48
HETATM   48  C   UNK N   1      23.918  15.275   2.842  0.00  0.00     0.000 C 
BRANCH  48  49
HETATM   49  C   UNK N   1      22.866  15.522   3.916  0.00  0.00     0.000 C 
BRANCH  49  50
HETATM   50  C   UNK N   1      22.501  16.993   3.997  0.00  0.00     0.000 C 
BRANCH  50  51
HETATM   51  C   UNK N   1      21.156  17.143   4.685  0.00  0.00     0.000 C 
BRANCH  51  52
HETATM   52  C   UNK N   1      20.032  17.275   3.669  0.00  0.00     0.000 C 
BRANCH  52  53
HETATM   53  C   UNK N   1      20.533  17.876   2.370  0.00  0.00     0.000 C 
BRANCH  53  54
HETATM   54  C   UNK N   1      19.932  17.149   1.177  0.00  0.00     0.000 C 
BRANCH  54  55
HETATM   55  C   UNK N   1      20.557  15.771   1.008  0.00  0.00     0.000 C 
BRANCH  55  56
HETATM   56  C   UNK N   1      19.524  14.653   1.061  0.00  0.00     0.000 C 
BRANCH  56  57
HETATM   57  C   UNK N   1      19.746  13.779   2.284  0.00  0.00     0.000 C 
BRANCH  57  58
HETATM   58  C   UNK N   1      21.052  13.021   2.163  0.00  0.00     0.000 C 
BRANCH  58  59
HETATM   59  C   UNK N   1      20.857  11.583   2.609  0.00  0.00     0.000 C 
BRANCH  59  60
HETATM   60  C   UNK N   1      22.002  11.176   3.518  0.00  0.00     0.000 C 
BRANCH  60  61
HETATM   61  C   UNK N   1      22.052  12.059   4.753  0.00  0.00     0.000 C 
BRANCH  61  62
HETATM   62  C   UNK N   1      20.887  11.743   5.675  0.00  0.00     0.000 C 
BRANCH  62  63
HETATM   63  C   UNK N   1      20.965  12.592   6.928  0.00  0.00     0.000 C 
BRANCH  63  64
HETATM   64  C   UNK N   1      20.546  14.012   6.609  0.00  0.00    -0.000 C 
BRANCH  64  65
HETATM   65  C   UNK N   1      21.050  14.943   7.691  0.00  0.00    -0.005 C 
HETATM   66  C   UNK N   1      20.615  14.427   9.047  0.00  0.00     0.005 C 
ENDBRANCH  64  65
ENDBRANCH  63  64
ENDBRANCH  62  63
ENDBRANCH  61  62
ENDBRANCH  60  61
ENDBRANCH  59  60
ENDBRANCH  58  59
ENDBRANCH  57  58
ENDBRANCH  56  57
ENDBRANCH  55  56
ENDBRANCH  54  55
ENDBRANCH  53  54
ENDBRANCH  52  53
ENDBRANCH  51  52
ENDBRANCH  50  51
ENDBRANCH  49  50
ENDBRANCH  48  49
ENDBRANCH  47  48
ENDBRANCH  46  47
ENDBRANCH  45  46
ENDBRANCH  44  45
ENDBRANCH  43  44
ENDBRANCH  42  43
ENDBRANCH  40  42
BRANCH  40  67
HETATM   67  O   UNK N   1      30.228  14.676   4.870  0.00  0.00    -0.350 OA
HETATM   68  H   UNK N   1      30.163  13.933   5.438  0.00  0.00     0.219 HD
ENDBRANCH  40  67
ENDBRANCH  18  39
ENDBRANCH  17  18
ENDBRANCH  16  17
ENDBRANCH   5  16
TORSDOF 50
ENDMDL
MODEL 3
REMARK VINA RESULT:      -4.9      5.440     10.936
REMARK WARNING: 32 MAX_TORS EXCEEDED!!!
REMARK  50 active torsions:
REMARK  status: ('A' for Active; 'I' for Inactive)
REMARK    1  A    between atoms: C_5  and  C_3 
REMARK    2  A    between atoms: C_6  and  C_4 
REMARK    3  A    between atoms: C_7  and  C_5 
REMARK    4  A    between atoms: C_8  and  C_6 
REMARK    5  A    between atoms: C_9  and  C_7 
REMARK    6  A    between atoms: C_10  and  C_8 
REMARK    7  A    between atoms: C_11  and  C_9 
REMARK    8  A    between atoms: C_12  and  C_10 
REMARK    9  A    between atoms: C_13  and  C_11 
REMARK   10  A    between atoms: C_14  and  C_12 
REMARK   11  A    between atoms: C_15  and  C_13 
REMARK   12  A    between atoms: C_16  and  C_14 
REMARK   13  A    between atoms: C_17  and  C_15 
REMARK   14  A    between atoms: C_28  and  C_16 
REMARK   15  A    between atoms: C_18  and  C_17 
REMARK   16  A    between atoms: C_19  and  C_18 
REMARK   17  A    between atoms: C_20  and  C_19 
REMARK   18  A    between atoms: C_21  and  C_20 
REMARK   19  A    between atoms: C_22  and  C_21 
REMARK   20  A    between atoms: C_23  and  C_22 
REMARK   21  A    between atoms: C_24  and  C_23 
REMARK   22  A    between atoms: C_25  and  C_24 
REMARK   23  A    between atoms: C_26  and  C_25 
REMARK   24  A    between atoms: C_27  and  C_26 
REMARK   25  A    between atoms: C_29  and  C_27 
REMARK   26  A    between atoms: C_30  and  C_28 
REMARK   27  A    between atoms: C_31  and  C_29 
REMARK   28  A    between atoms: C_32  and  C_30 
REMARK   29  A    between atoms: C_33  and  C_31 
REMARK   30  A    between atoms: C_34  and  C_32 
REMARK   31  A    between atoms: C_35  and  C_33 
REMARK   32  A    between atoms: C_36  and  C_34 
REMARK   33  A    between atoms: C_37  and  C_35 
REMARK   34  A    between atoms: C_38  and  C_36 
REMARK   35  A    between atoms: C_39  and  C_37 
REMARK   36  A    between atoms: C_43  and  C_38 
REMARK   37  A    between atoms: C_45  and  C_39 
REMARK   38  A    between atoms: C_44  and  C_40 
REMARK   39  A    between atoms: O_53  and  C_40 
REMARK   40  A    between atoms: C_42  and  C_41 
REMARK   41  A    between atoms: O_60  and  C_41 
REMARK   42  A    between atoms: C_46  and  C_42 
REMARK   43  A    between atoms: C_42  and  N_51 
REMARK   44  A    between atoms: C_46  and  C_43 
REMARK   45  A    between atoms: C_43  and  O_54 
REMARK   46  A    between atoms: C_45  and  O_55 
REMARK   47  A    between atoms: C_46  and  O_56 
REMARK   48  A    between atoms: C_48  and  O_58 
REMARK   49  A    between atoms: C_49  and  O_59 
REMARK   50  A    between atoms: C_50  and  O_60 
ROOT
HETATM    1  C   UNK N   1      21.593  19.668   3.052  0.00  0.00     0.179 C 
HETATM    2  C   UNK N   1      20.299  19.681   2.204  0.00  0.00     0.180 C 
HETATM    3  C   UNK N   1      19.273  18.770   2.891  0.00  0.00     0.183 C 
HETATM    4  C   UNK N   1      19.882  17.386   3.150  0.00  0.00     0.204 C 
HETATM    5  C   UNK N   1      21.206  17.537   3.932  0.00  0.00     0.291 C 
HETATM    6  O   UNK N   1      20.556  19.223   0.906  0.00  0.00    -0.390 OA
HETATM    7  O   UNK N   1      22.107  18.345   3.173  0.00  0.00    -0.348 OA
HETATM    8  H   UNK N   1      20.598  18.871   0.005  0.00  0.00     0.210 HD
ENDROOT
BRANCH   1   9
HETATM    9  C   UNK N   1      22.665  20.586   2.465  0.00  0.00     0.198 C 
BRANCH   9  10
HETATM   10  O   UNK N   1      22.510  21.901   2.908  0.00  0.00    -0.398 OA
HETATM   11  H   UNK N   1      22.613  22.850   3.073  0.00  0.00     0.209 HD
ENDBRANCH   9  10
ENDBRANCH   1   9
BRANCH   3  12
HETATM   12  O   UNK N   1      18.111  18.663   2.121  0.00  0.00    -0.390 OA
HETATM   13  H   UNK N   1      17.272  18.237   2.360  0.00  0.00     0.210 HD
ENDBRANCH   3  12
BRANCH   4  14
HETATM   14  O   UNK N   1      20.125  16.724   1.940  0.00  0.00    -0.388 OA
HETATM   15  H   UNK N   1      20.130  16.456   1.008  0.00  0.00     0.210 HD
ENDBRANCH   4  14
BRANCH   5  16
HETATM   16  O   UNK N   1      21.707  16.232   4.170  0.00  0.00    -0.356 OA
BRANCH  16  17
HETATM   17  C   UNK N   1      21.937  15.989   5.539  0.00  0.00     0.199 C 
BRANCH  17  18
HETATM   18  C   UNK N   1      20.886  14.990   6.028  0.00  0.00     0.138 C 
BRANCH  18  19
HETATM   19  C   UNK N   1      20.801  13.662   5.246  0.00  0.00     0.171 C 
BRANCH  19  20
HETATM   20  C   UNK N   1      21.224  12.379   5.963  0.00  0.00     0.149 C 
BRANCH  20  21
HETATM   21  C   UNK N   1      22.414  11.689   5.287  0.00  0.00     0.034 C 
BRANCH  21  22
HETATM   22  C   UNK N   1      23.215  12.613   4.365  0.00  0.00     0.002 C 
BRANCH  22  23
HETATM   23  C   UNK N   1      24.638  12.128   4.071  0.00  0.00     0.000 C 
BRANCH  23  24
HETATM   24  C   UNK N   1      25.287  12.965   2.967  0.00  0.00     0.000 C 
BRANCH  24  25
HETATM   25  C   UNK N   1      26.783  12.728   2.792  0.00  0.00     0.000 C 
BRANCH  25  26
HETATM   26  C   UNK N   1      27.562  13.990   2.448  0.00  0.00     0.000 C 
BRANCH  26  27
HETATM   27  C   UNK N   1      26.614  15.122   2.075  0.00  0.00     0.000 C 
BRANCH  27  28
HETATM   28  C   UNK N   1      26.827  16.325   2.979  0.00  0.00     0.000 C 
BRANCH  28  29
HETATM   29  C   UNK N   1      25.518  16.778   3.600  0.00  0.00     0.000 C 
BRANCH  29  30
HETATM   30  C   UNK N   1      25.434  18.289   3.525  0.00  0.00     0.000 C 
BRANCH  30  31
HETATM   31  C   UNK N   1      24.958  18.866   4.843  0.00  0.00     0.000 C 
BRANCH  31  32
HETATM   32  C   UNK N   1      25.891  19.983   5.264  0.00  0.00    -0.000 C 
BRANCH  32  33
HETATM   33  C   UNK N   1      26.831  20.309   4.122  0.00  0.00    -0.005 C 
HETATM   34  C   UNK N   1      28.261  20.100   4.572  0.00  0.00     0.005 C 
ENDBRANCH  32  33
ENDBRANCH  31  32
ENDBRANCH  30  31
ENDBRANCH  29  30
ENDBRANCH  28  29
ENDBRANCH  27  28
ENDBRANCH  26  27
ENDBRANCH  25  26
ENDBRANCH  24  25
ENDBRANCH  23  24
ENDBRANCH  22  23
ENDBRANCH  21  22
ENDBRANCH  20  21
BRANCH  20  35
HETATM   35  O   UNK N   1      20.150  11.497   6.105  0.00  0.00    -0.393 OA
HETATM   36  H   UNK N   1      19.253  11.619   6.453  0.00  0.00     0.210 HD
ENDBRANCH  20  35
ENDBRANCH  19  20
BRANCH  19  37
HETATM   37  O   UNK N   1      19.520  13.486   4.706  0.00  0.00    -0.391 OA
HETATM   38  H   UNK N   1      19.073  12.838   4.140  0.00  0.00     0.210 HD
ENDBRANCH  19  37
ENDBRANCH  18  19
BRANCH  18  39
HETATM   39  N   UNK N   1      21.177  14.629   7.405  0.00  0.00    -0.365 N 
HETATM   40  C   UNK N   1      20.414  14.903   8.408  0.00  0.00     0.111 C 
ATOM     41  HN  UNK N   1      22.044  14.126   7.591  1.00  0.00     0.161 HD
BRANCH  40  42
HETATM   42  C   UNK N   1      20.742  14.375   9.778  0.00  0.00     0.083 C 
BRANCH  42  43
HETATM   43  C   UNK N   1      21.098  12.886   9.767  0.00  0.00     0.008 C 
BRANCH  43  44
HETATM   44  C   UNK N   1      22.249  12.561  10.709  0.00  0.00     0.000 C 
BRANCH  44  45
HETATM   45  C   UNK N   1      23.052  11.370  10.219  0.00  0.00     0.000 C 
BRANCH  45  46
HETATM   46  C   UNK N   1      23.590  11.667   8.832  0.00  0.00     0.000 C 
BRANCH  46  47
HETATM   47  C   UNK N   1      24.353  12.978   8.816  0.00  0.00     0.000 C 
BRANCH  47  48
HETATM   48  C   UNK N   1      25.137  13.148   7.520  0.00  0.00     0.000 C 
BRANCH  48  49
HETATM   49  C   UNK N   1      25.042  14.567   6.975  0.00  0.00     0.000 C 
BRANCH  49  50
HETATM   50  C   UNK N   1      26.403  15.079   6.542  0.00  0.00     0.000 C 
BRANCH  50  51
HETATM   51  C   UNK N   1      26.706  16.382   7.260  0.00  0.00     0.000 C 
BRANCH  51  52
HETATM   52  C   UNK N   1      27.944  17.051   6.683  0.00  0.00     0.000 C 
BRANCH  52  53
HETATM   53  C   UNK N   1      28.310  18.299   7.464  0.00  0.00     0.000 C 
BRANCH  53  54
HETATM   54  C   UNK N   1      28.095  18.081   8.952  0.00  0.00     0.000 C 
BRANCH  54  55
HETATM   55  C   UNK N   1      29.423  17.879   9.670  0.00  0.00     0.000 C 
BRANCH  55  56
HETATM   56  C   UNK N   1      30.594  18.488   8.911  0.00  0.00     0.000 C 
BRANCH  56  57
HETATM   57  C   UNK N   1      31.552  17.403   8.448  0.00  0.00     0.000 C 
BRANCH  57  58
HETATM   58  C   UNK N   1      32.949  17.966   8.281  0.00  0.00     0.000 C 
BRANCH  58  59
HETATM   59  C   UNK N   1      33.805  16.997   7.486  0.00  0.00     0.000 C 
BRANCH  59  60
HETATM   60  C   UNK N   1      33.982  17.520   6.073  0.00  0.00     0.000 C 
BRANCH  60  61
HETATM   61  C   UNK N   1      33.180  16.691   5.085  0.00  0.00     0.000 C 
BRANCH  61  62
HETATM   62  C   UNK N   1      31.926  17.437   4.665  0.00  0.00     0.000 C 
BRANCH  62  63
HETATM   63  C   UNK N   1      30.785  16.463   4.448  0.00  0.00     0.000 C 
BRANCH  63  64
HETATM   64  C   UNK N   1      30.816  15.394   5.521  0.00  0.00    -0.000 C 
BRANCH  64  65
HETATM   65  C   UNK N   1      30.598  14.036   4.887  0.00  0.00    -0.005 C 
HETATM   66  C   UNK N   1      30.898  14.114   3.405  0.00  0.00     0.005 C 
ENDBRANCH  64  65
ENDBRANCH  63  64
ENDBRANCH  62  63
ENDBRANCH  61  62
ENDBRANCH  60  61
ENDBRANCH  59  60
ENDBRANCH  58  59
ENDBRANCH  57  58
ENDBRANCH  56  57
ENDBRANCH  55  56
ENDBRANCH  54  55
ENDBRANCH  53  54
ENDBRANCH  52  53
ENDBRANCH  51  52
ENDBRANCH  50  51
ENDBRANCH  49  50
ENDBRANCH  48  49
ENDBRANCH  47  48
ENDBRANCH  46  47
ENDBRANCH  45  46
ENDBRANCH  44  45
ENDBRANCH  43  44
ENDBRANCH  42  43
ENDBRANCH  40  42
BRANCH  40  67
HETATM   67  O   UNK N   1      19.282  15.618   8.240  0.00  0.00    -0.350 OA
HETATM   68  H   UNK N   1      18.362  15.729   8.099  0.00  0.00     0.219 HD
ENDBRANCH  40  67
ENDBRANCH  18  39
ENDBRANCH  17  18
ENDBRANCH  16  17
ENDBRANCH   5  16
TORSDOF 50
ENDMDL
MODEL 4
REMARK VINA RESULT:      -4.9      1.387      3.839
REMARK WARNING: 32 MAX_TORS EXCEEDED!!!
REMARK  50 active torsions:
REMARK  status: ('A' for Active; 'I' for Inactive)
REMARK    1  A    between atoms: C_5  and  C_3 
REMARK    2  A    between atoms: C_6  and  C_4 
REMARK    3  A    between atoms: C_7  and  C_5 
REMARK    4  A    between atoms: C_8  and  C_6 
REMARK    5  A    between atoms: C_9  and  C_7 
REMARK    6  A    between atoms: C_10  and  C_8 
REMARK    7  A    between atoms: C_11  and  C_9 
REMARK    8  A    between atoms: C_12  and  C_10 
REMARK    9  A    between atoms: C_13  and  C_11 
REMARK   10  A    between atoms: C_14  and  C_12 
REMARK   11  A    between atoms: C_15  and  C_13 
REMARK   12  A    between atoms: C_16  and  C_14 
REMARK   13  A    between atoms: C_17  and  C_15 
REMARK   14  A    between atoms: C_28  and  C_16 
REMARK   15  A    between atoms: C_18  and  C_17 
REMARK   16  A    between atoms: C_19  and  C_18 
REMARK   17  A    between atoms: C_20  and  C_19 
REMARK   18  A    between atoms: C_21  and  C_20 
REMARK   19  A    between atoms: C_22  and  C_21 
REMARK   20  A    between atoms: C_23  and  C_22 
REMARK   21  A    between atoms: C_24  and  C_23 
REMARK   22  A    between atoms: C_25  and  C_24 
REMARK   23  A    between atoms: C_26  and  C_25 
REMARK   24  A    between atoms: C_27  and  C_26 
REMARK   25  A    between atoms: C_29  and  C_27 
REMARK   26  A    between atoms: C_30  and  C_28 
REMARK   27  A    between atoms: C_31  and  C_29 
REMARK   28  A    between atoms: C_32  and  C_30 
REMARK   29  A    between atoms: C_33  and  C_31 
REMARK   30  A    between atoms: C_34  and  C_32 
REMARK   31  A    between atoms: C_35  and  C_33 
REMARK   32  A    between atoms: C_36  and  C_34 
REMARK   33  A    between atoms: C_37  and  C_35 
REMARK   34  A    between atoms: C_38  and  C_36 
REMARK   35  A    between atoms: C_39  and  C_37 
REMARK   36  A    between atoms: C_43  and  C_38 
REMARK   37  A    between atoms: C_45  and  C_39 
REMARK   38  A    between atoms: C_44  and  C_40 
REMARK   39  A    between atoms: O_53  and  C_40 
REMARK   40  A    between atoms: C_42  and  C_41 
REMARK   41  A    between atoms: O_60  and  C_41 
REMARK   42  A    between atoms: C_46  and  C_42 
REMARK   43  A    between atoms: C_42  and  N_51 
REMARK   44  A    between atoms: C_46  and  C_43 
REMARK   45  A    between atoms: C_43  and  O_54 
REMARK   46  A    between atoms: C_45  and  O_55 
REMARK   47  A    between atoms: C_46  and  O_56 
REMARK   48  A    between atoms: C_48  and  O_58 
REMARK   49  A    between atoms: C_49  and  O_59 
REMARK   50  A    between atoms: C_50  and  O_60 
ROOT
HETATM    1  C   UNK N   1      34.922  15.612   9.378  0.00  0.00     0.179 C 
HETATM    2  C   UNK N   1      34.530  14.697  10.561  0.00  0.00     0.180 C 
HETATM    3  C   UNK N   1      34.546  13.245  10.064  0.00  0.00     0.183 C 
HETATM    4  C   UNK N   1      33.681  13.106   8.804  0.00  0.00     0.204 C 
HETATM    5  C   UNK N   1      34.136  14.135   7.745  0.00  0.00     0.291 C 
HETATM    6  O   UNK N   1      33.256  15.027  11.039  0.00  0.00    -0.390 OA
HETATM    7  O   UNK N   1      34.016  15.450   8.290  0.00  0.00    -0.348 OA
HETATM    8  H   UNK N   1      32.368  15.124  11.415  0.00  0.00     0.210 HD
ENDROOT
BRANCH   1   9
HETATM    9  C   UNK N   1      34.975  17.082   9.791  0.00  0.00     0.198 C 
BRANCH   9  10
HETATM   10  O   UNK N   1      35.025  17.222  11.178  0.00  0.00    -0.398 OA
HETATM   11  H   UNK N   1      35.089  17.567  12.082  0.00  0.00     0.209 HD
ENDBRANCH   9  10
ENDBRANCH   1   9
BRANCH   3  12
HETATM   12  O   UNK N   1      34.106  12.373  11.065  0.00  0.00    -0.390 OA
HETATM   13  H   UNK N   1      34.240  12.447  12.023  0.00  0.00     0.210 HD
ENDBRANCH   3  12
BRANCH   4  14
HETATM   14  O   UNK N   1      32.331  13.315   9.113  0.00  0.00    -0.388 OA
HETATM   15  H   UNK N   1      31.374  13.459   9.060  0.00  0.00     0.210 HD
ENDBRANCH   4  14
BRANCH   5  16
HETATM   16  O   UNK N   1      33.327  13.943   6.596  0.00  0.00    -0.356 OA
BRANCH  16  17
HETATM   17  C   UNK N   1      33.170  15.128   5.849  0.00  0.00     0.199 C 
BRANCH  17  18
HETATM   18  C   UNK N   1      31.705  15.560   5.946  0.00  0.00     0.138 C 
BRANCH  18  19
HETATM   19  C   UNK N   1      31.432  16.841   6.764  0.00  0.00     0.171 C 
BRANCH  19  20
HETATM   20  C   UNK N   1      30.635  16.706   8.062  0.00  0.00     0.149 C 
BRANCH  20  21
HETATM   21  C   UNK N   1      29.734  17.915   8.331  0.00  0.00     0.034 C 
BRANCH  21  22
HETATM   22  C   UNK N   1      28.754  18.215   7.194  0.00  0.00     0.002 C 
BRANCH  22  23
HETATM   23  C   UNK N   1      27.870  19.443   7.432  0.00  0.00     0.000 C 
BRANCH  23  24
HETATM   24  C   UNK N   1      27.502  20.120   6.109  0.00  0.00     0.000 C 
BRANCH  24  25
HETATM   25  C   UNK N   1      28.080  19.443   4.872  0.00  0.00     0.000 C 
BRANCH  25  26
HETATM   26  C   UNK N   1      27.105  19.378   3.704  0.00  0.00     0.000 C 
BRANCH  26  27
HETATM   27  C   UNK N   1      25.672  19.249   4.206  0.00  0.00     0.000 C 
BRANCH  27  28
HETATM   28  C   UNK N   1      25.084  17.902   3.819  0.00  0.00     0.000 C 
BRANCH  28  29
HETATM   29  C   UNK N   1      24.791  17.063   5.049  0.00  0.00     0.000 C 
BRANCH  29  30
HETATM   30  C   UNK N   1      26.041  16.297   5.432  0.00  0.00     0.000 C 
BRANCH  30  31
HETATM   31  C   UNK N   1      25.850  15.584   6.755  0.00  0.00     0.000 C 
BRANCH  31  32
HETATM   32  C   UNK N   1      24.768  14.533   6.603  0.00  0.00    -0.000 C 
BRANCH  32  33
HETATM   33  C   UNK N   1      24.863  13.547   7.749  0.00  0.00    -0.005 C 
HETATM   34  C   UNK N   1      24.373  12.191   7.287  0.00  0.00     0.005 C 
ENDBRANCH  32  33
ENDBRANCH  31  32
ENDBRANCH  30  31
ENDBRANCH  29  30
ENDBRANCH  28  29
ENDBRANCH  27  28
ENDBRANCH  26  27
ENDBRANCH  25  26
ENDBRANCH  24  25
ENDBRANCH  23  24
ENDBRANCH  22  23
ENDBRANCH  21  22
ENDBRANCH  20  21
BRANCH  20  35
HETATM   35  O   UNK N   1      31.476  16.457   9.151  0.00  0.00    -0.393 OA
HETATM   36  H   UNK N   1      32.203  16.968   9.538  0.00  0.00     0.210 HD
ENDBRANCH  20  35
ENDBRANCH  19  20
BRANCH  19  37
HETATM   37  O   UNK N   1      32.625  17.527   7.025  0.00  0.00    -0.391 OA
HETATM   38  H   UNK N   1      32.896  18.446   7.172  0.00  0.00     0.210 HD
ENDBRANCH  19  37
ENDBRANCH  18  19
BRANCH  18  39
HETATM   39  N   UNK N   1      31.196  15.818   4.611  0.00  0.00    -0.365 N 
HETATM   40  C   UNK N   1      30.010  15.506   4.209  0.00  0.00     0.111 C 
ATOM     41  HN  UNK N   1      31.818  16.275   3.945  1.00  0.00     0.161 HD
BRANCH  40  42
HETATM   42  C   UNK N   1      29.535  15.929   2.846  0.00  0.00     0.083 C 
BRANCH  42  43
HETATM   43  C   UNK N   1      28.009  15.932   2.727  0.00  0.00     0.008 C 
BRANCH  43  44
HETATM   44  C   UNK N   1      27.498  14.812   1.831  0.00  0.00     0.000 C 
BRANCH  44  45
HETATM   45  C   UNK N   1      26.034  14.511   2.094  0.00  0.00     0.000 C 
BRANCH  45  46
HETATM   46  C   UNK N   1      25.874  13.032   2.398  0.00  0.00     0.000 C 
BRANCH  46  47
HETATM   47  C   UNK N   1      24.732  12.799   3.368  0.00  0.00     0.000 C 
BRANCH  47  48
HETATM   48  C   UNK N   1      24.091  11.433   3.152  0.00  0.00     0.000 C 
BRANCH  48  49
HETATM   49  C   UNK N   1      22.874  11.224   4.043  0.00  0.00     0.000 C 
BRANCH  49  50
HETATM   50  C   UNK N   1      21.742  10.565   3.278  0.00  0.00     0.000 C 
BRANCH  50  51
HETATM   51  C   UNK N   1      21.812  10.974   1.818  0.00  0.00     0.000 C 
BRANCH  51  52
HETATM   52  C   UNK N   1      20.494  11.575   1.353  0.00  0.00     0.000 C 
BRANCH  52  53
HETATM   53  C   UNK N   1      20.706  12.928   0.701  0.00  0.00     0.000 C 
BRANCH  53  54
HETATM   54  C   UNK N   1      22.186  13.184   0.468  0.00  0.00     0.000 C 
BRANCH  54  55
HETATM   55  C   UNK N   1      22.589  14.559   0.982  0.00  0.00     0.000 C 
BRANCH  55  56
HETATM   56  C   UNK N   1      21.446  15.273   1.692  0.00  0.00     0.000 C 
BRANCH  56  57
HETATM   57  C   UNK N   1      21.933  15.899   2.989  0.00  0.00     0.000 C 
BRANCH  57  58
HETATM   58  C   UNK N   1      21.950  14.869   4.100  0.00  0.00     0.000 C 
BRANCH  58  59
HETATM   59  C   UNK N   1      20.611  14.158   4.166  0.00  0.00     0.000 C 
BRANCH  59  60
HETATM   60  C   UNK N   1      20.084  14.204   5.588  0.00  0.00     0.000 C 
BRANCH  60  61
HETATM   61  C   UNK N   1      20.735  13.129   6.441  0.00  0.00     0.000 C 
BRANCH  61  62
HETATM   62  C   UNK N   1      20.998  13.654   7.842  0.00  0.00     0.000 C 
BRANCH  62  63
HETATM   63  C   UNK N   1      21.449  15.099   7.784  0.00  0.00     0.000 C 
BRANCH  63  64
HETATM   64  C   UNK N   1      20.706  15.908   8.827  0.00  0.00    -0.000 C 
BRANCH  64  65
HETATM   65  C   UNK N   1      19.789  16.898   8.140  0.00  0.00    -0.005 C 
HETATM   66  C   UNK N   1      19.444  18.019   9.098  0.00  0.00     0.005 C 
ENDBRANCH  64  65
ENDBRANCH  63  64
ENDBRANCH  62  63
ENDBRANCH  61  62
ENDBRANCH  60  61
ENDBRANCH  59  60
ENDBRANCH  58  59
ENDBRANCH  57  58
ENDBRANCH  56  57
ENDBRANCH  55  56
ENDBRANCH  54  55
ENDBRANCH  53  54
ENDBRANCH  52  53
ENDBRANCH  51  52
ENDBRANCH  50  51
ENDBRANCH  49  50
ENDBRANCH  48  49
ENDBRANCH  47  48
ENDBRANCH  46  47
ENDBRANCH  45  46
ENDBRANCH  44  45
ENDBRANCH  43  44
ENDBRANCH  42  43
ENDBRANCH  40  42
BRANCH  40  67
HETATM   67  O   UNK N   1      29.157  14.846   5.020  0.00  0.00    -0.350 OA
HETATM   68  H   UNK N   1      28.545  14.170   5.238  0.00  0.00     0.219 HD
ENDBRANCH  40  67
ENDBRANCH  18  39
ENDBRANCH  17  18
ENDBRANCH  16  17
ENDBRANCH   5  16
TORSDOF 50
ENDMDL
MODEL 5
REMARK VINA RESULT:      -4.8      5.792     10.724
REMARK WARNING: 32 MAX_TORS EXCEEDED!!!
REMARK  50 active torsions:
REMARK  status: ('A' for Active; 'I' for Inactive)
REMARK    1  A    between atoms: C_5  and  C_3 
REMARK    2  A    between atoms: C_6  and  C_4 
REMARK    3  A    between atoms: C_7  and  C_5 
REMARK    4  A    between atoms: C_8  and  C_6 
REMARK    5  A    between atoms: C_9  and  C_7 
REMARK    6  A    between atoms: C_10  and  C_8 
REMARK    7  A    between atoms: C_11  and  C_9 
REMARK    8  A    between atoms: C_12  and  C_10 
REMARK    9  A    between atoms: C_13  and  C_11 
REMARK   10  A    between atoms: C_14  and  C_12 
REMARK   11  A    between atoms: C_15  and  C_13 
REMARK   12  A    between atoms: C_16  and  C_14 
REMARK   13  A    between atoms: C_17  and  C_15 
REMARK   14  A    between atoms: C_28  and  C_16 
REMARK   15  A    between atoms: C_18  and  C_17 
REMARK   16  A    between atoms: C_19  and  C_18 
REMARK   17  A    between atoms: C_20  and  C_19 
REMARK   18  A    between atoms: C_21  and  C_20 
REMARK   19  A    between atoms: C_22  and  C_21 
REMARK   20  A    between atoms: C_23  and  C_22 
REMARK   21  A    between atoms: C_24  and  C_23 
REMARK   22  A    between atoms: C_25  and  C_24 
REMARK   23  A    between atoms: C_26  and  C_25 
REMARK   24  A    between atoms: C_27  and  C_26 
REMARK   25  A    between atoms: C_29  and  C_27 
REMARK   26  A    between atoms: C_30  and  C_28 
REMARK   27  A    between atoms: C_31  and  C_29 
REMARK   28  A    between atoms: C_32  and  C_30 
REMARK   29  A    between atoms: C_33  and  C_31 
REMARK   30  A    between atoms: C_34  and  C_32 
REMARK   31  A    between atoms: C_35  and  C_33 
REMARK   32  A    between atoms: C_36  and  C_34 
REMARK   33  A    between atoms: C_37  and  C_35 
REMARK   34  A    between atoms: C_38  and  C_36 
REMARK   35  A    between atoms: C_39  and  C_37 
REMARK   36  A    between atoms: C_43  and  C_38 
REMARK   37  A    between atoms: C_45  and  C_39 
REMARK   38  A    between atoms: C_44  and  C_40 
REMARK   39  A    between atoms: O_53  and  C_40 
REMARK   40  A    between atoms: C_42  and  C_41 
REMARK   41  A    between atoms: O_60  and  C_41 
REMARK   42  A    between atoms: C_46  and  C_42 
REMARK   43  A    between atoms: C_42  and  N_51 
REMARK   44  A    between atoms: C_46  and  C_43 
REMARK   45  A    between atoms: C_43  and  O_54 
REMARK   46  A    between atoms: C_45  and  O_55 
REMARK   47  A    between atoms: C_46  and  O_56 
REMARK   48  A    between atoms: C_48  and  O_58 
REMARK   49  A    between atoms: C_49  and  O_59 
REMARK   50  A    between atoms: C_50  and  O_60 
ROOT
HETATM    1  C   UNK N   1      21.575  19.802   2.965  0.00  0.00     0.179 C 
HETATM    2  C   UNK N   1      20.295  19.662   2.107  0.00  0.00     0.180 C 
HETATM    3  C   UNK N   1      19.239  18.932   2.947  0.00  0.00     0.183 C 
HETATM    4  C   UNK N   1      19.814  17.620   3.498  0.00  0.00     0.204 C 
HETATM    5  C   UNK N   1      21.128  17.907   4.259  0.00  0.00     0.291 C 
HETATM    6  O   UNK N   1      20.563  18.942   0.937  0.00  0.00    -0.390 OA
HETATM    7  O   UNK N   1      22.058  18.523   3.367  0.00  0.00    -0.348 OA
HETATM    8  H   UNK N   1      20.612  18.409   0.129  0.00  0.00     0.210 HD
ENDROOT
BRANCH   1   9
HETATM    9  C   UNK N   1      22.675  20.560   2.224  0.00  0.00     0.198 C 
BRANCH   9  10
HETATM   10  O   UNK N   1      23.186  21.605   2.995  0.00  0.00    -0.398 OA
HETATM   11  H   UNK N   1      23.341  22.272   3.681  0.00  0.00     0.209 HD
ENDBRANCH   9  10
ENDBRANCH   1   9
BRANCH   3  12
HETATM   12  O   UNK N   1      18.087  18.688   2.192  0.00  0.00    -0.390 OA
HETATM   13  H   UNK N   1      17.479  17.934   2.256  0.00  0.00     0.210 HD
ENDBRANCH   3  12
BRANCH   4  14
HETATM   14  O   UNK N   1      20.062  16.718   2.456  0.00  0.00    -0.388 OA
HETATM   15  H   UNK N   1      20.073  15.937   1.880  0.00  0.00     0.210 HD
ENDBRANCH   4  14
BRANCH   5  16
HETATM   16  O   UNK N   1      21.597  16.670   4.771  0.00  0.00    -0.356 OA
BRANCH  16  17
HETATM   17  C   UNK N   1      21.504  16.604   6.176  0.00  0.00     0.199 C 
BRANCH  17  18
HETATM   18  C   UNK N   1      20.519  15.489   6.535  0.00  0.00     0.138 C 
BRANCH  18  19
HETATM   19  C   UNK N   1      20.294  14.411   5.453  0.00  0.00     0.171 C 
BRANCH  19  20
HETATM   20  C   UNK N   1      21.056  13.091   5.587  0.00  0.00     0.149 C 
BRANCH  20  21
HETATM   21  C   UNK N   1      21.621  12.597   4.251  0.00  0.00     0.034 C 
BRANCH  21  22
HETATM   22  C   UNK N   1      23.038  13.098   3.962  0.00  0.00     0.002 C 
BRANCH  22  23
HETATM   23  C   UNK N   1      23.132  14.078   2.789  0.00  0.00     0.000 C 
BRANCH  23  24
HETATM   24  C   UNK N   1      21.903  13.970   1.882  0.00  0.00     0.000 C 
BRANCH  24  25
HETATM   25  C   UNK N   1      22.197  13.439   0.484  0.00  0.00     0.000 C 
BRANCH  25  26
HETATM   26  C   UNK N   1      23.647  13.017   0.286  0.00  0.00     0.000 C 
BRANCH  26  27
HETATM   27  C   UNK N   1      23.726  11.569  -0.179  0.00  0.00     0.000 C 
BRANCH  27  28
HETATM   28  C   UNK N   1      22.689  10.715   0.532  0.00  0.00     0.000 C 
BRANCH  28  29
HETATM   29  C   UNK N   1      23.276  10.068   1.773  0.00  0.00     0.000 C 
BRANCH  29  30
HETATM   30  C   UNK N   1      22.164   9.392   2.550  0.00  0.00     0.000 C 
BRANCH  30  31
HETATM   31  C   UNK N   1      22.723   8.325   3.469  0.00  0.00     0.000 C 
BRANCH  31  32
HETATM   32  C   UNK N   1      22.356   8.659   4.901  0.00  0.00    -0.000 C 
BRANCH  32  33
HETATM   33  C   UNK N   1      23.341   9.671   5.448  0.00  0.00    -0.005 C 
HETATM   34  C   UNK N   1      24.683   9.003   5.661  0.00  0.00     0.005 C 
ENDBRANCH  32  33
ENDBRANCH  31  32
ENDBRANCH  30  31
ENDBRANCH  29  30
ENDBRANCH  28  29
ENDBRANCH  27  28
ENDBRANCH  26  27
ENDBRANCH  25  26
ENDBRANCH  24  25
ENDBRANCH  23  24
ENDBRANCH  22  23
ENDBRANCH  21  22
ENDBRANCH  20  21
BRANCH  20  35
HETATM   35  O   UNK N   1      20.267  12.108   6.190  0.00  0.00    -0.393 OA
HETATM   36  H   UNK N   1      20.221  11.783   7.102  0.00  0.00     0.210 HD
ENDBRANCH  20  35
ENDBRANCH  19  20
BRANCH  19  37
HETATM   37  O   UNK N   1      18.928  14.141   5.298  0.00  0.00    -0.391 OA
HETATM   38  H   UNK N   1      18.099  14.426   5.712  0.00  0.00     0.210 HD
ENDBRANCH  19  37
ENDBRANCH  18  19
BRANCH  18  39
HETATM   39  N   UNK N   1      21.004  14.786   7.710  0.00  0.00    -0.365 N 
HETATM   40  C   UNK N   1      20.371  14.714   8.831  0.00  0.00     0.111 C 
ATOM     41  HN  UNK N   1      21.908  14.318   7.644  1.00  0.00     0.161 HD
BRANCH  40  42
HETATM   42  C   UNK N   1      20.899  13.855   9.948  0.00  0.00     0.083 C 
BRANCH  42  43
HETATM   43  C   UNK N   1      21.892  12.797   9.460  0.00  0.00     0.008 C 
BRANCH  43  44
HETATM   44  C   UNK N   1      23.134  12.723  10.338  0.00  0.00     0.000 C 
BRANCH  44  45
HETATM   45  C   UNK N   1      24.404  12.696   9.507  0.00  0.00     0.000 C 
BRANCH  45  46
HETATM   46  C   UNK N   1      24.102  12.083   8.152  0.00  0.00     0.000 C 
BRANCH  46  47
HETATM   47  C   UNK N   1      24.903  12.765   7.059  0.00  0.00     0.000 C 
BRANCH  47  48
HETATM   48  C   UNK N   1      25.172  14.226   7.398  0.00  0.00     0.000 C 
BRANCH  48  49
HETATM   49  C   UNK N   1      25.978  14.926   6.312  0.00  0.00     0.000 C 
BRANCH  49  50
HETATM   50  C   UNK N   1      26.739  16.112   6.874  0.00  0.00     0.000 C 
BRANCH  50  51
HETATM   51  C   UNK N   1      28.174  16.072   6.381  0.00  0.00     0.000 C 
BRANCH  51  52
HETATM   52  C   UNK N   1      28.975  17.245   6.927  0.00  0.00     0.000 C 
BRANCH  52  53
HETATM   53  C   UNK N   1      28.075  18.421   7.253  0.00  0.00     0.000 C 
BRANCH  53  54
HETATM   54  C   UNK N   1      28.079  19.430   6.117  0.00  0.00     0.000 C 
BRANCH  54  55
HETATM   55  C   UNK N   1      26.955  20.443   6.283  0.00  0.00     0.000 C 
BRANCH  55  56
HETATM   56  C   UNK N   1      26.037  20.499   5.070  0.00  0.00     0.000 C 
BRANCH  56  57
HETATM   57  C   UNK N   1      25.351  19.159   4.857  0.00  0.00     0.000 C 
BRANCH  57  58
HETATM   58  C   UNK N   1      25.521  18.699   3.424  0.00  0.00     0.000 C 
BRANCH  58  59
HETATM   59  C   UNK N   1      25.906  17.231   3.395  0.00  0.00     0.000 C 
BRANCH  59  60
HETATM   60  C   UNK N   1      27.414  17.107   3.286  0.00  0.00     0.000 C 
BRANCH  60  61
HETATM   61  C   UNK N   1      27.804  15.753   2.718  0.00  0.00     0.000 C 
BRANCH  61  62
HETATM   62  C   UNK N   1      26.566  14.975   2.310  0.00  0.00     0.000 C 
BRANCH  62  63
HETATM   63  C   UNK N   1      26.905  13.509   2.125  0.00  0.00     0.000 C 
BRANCH  63  64
HETATM   64  C   UNK N   1      26.757  12.781   3.446  0.00  0.00    -0.000 C 
BRANCH  64  65
HETATM   65  C   UNK N   1      26.221  11.387   3.197  0.00  0.00    -0.005 C 
HETATM   66  C   UNK N   1      26.834  10.827   1.931  0.00  0.00     0.005 C 
ENDBRANCH  64  65
ENDBRANCH  63  64
ENDBRANCH  62  63
ENDBRANCH  61  62
ENDBRANCH  60  61
ENDBRANCH  59  60
ENDBRANCH  58  59
ENDBRANCH  57  58
ENDBRANCH  56  57
ENDBRANCH  55  56
ENDBRANCH  54  55
ENDBRANCH  53  54
ENDBRANCH  52  53
ENDBRANCH  51  52
ENDBRANCH  50  51
ENDBRANCH  49  50
ENDBRANCH  48  49
ENDBRANCH  47  48
ENDBRANCH  46  47
ENDBRANCH  45  46
ENDBRANCH  44  45
ENDBRANCH  43  44
ENDBRANCH  42  43
ENDBRANCH  40  42
BRANCH  40  67
HETATM   67  O   UNK N   1      19.199  15.359   9.005  0.00  0.00    -0.350 OA
HETATM   68  H   UNK N   1      18.645  16.035   9.344  0.00  0.00     0.219 HD
ENDBRANCH  40  67
ENDBRANCH  18  39
ENDBRANCH  17  18
ENDBRANCH  16  17
ENDBRANCH   5  16
TORSDOF 50
ENDMDL
MODEL 6
REMARK VINA RESULT:      -4.8      1.360      4.518
REMARK WARNING: 32 MAX_TORS EXCEEDED!!!
REMARK  50 active torsions:
REMARK  status: ('A' for Active; 'I' for Inactive)
REMARK    1  A    between atoms: C_5  and  C_3 
REMARK    2  A    between atoms: C_6  and  C_4 
REMARK    3  A    between atoms: C_7  and  C_5 
REMARK    4  A    between atoms: C_8  and  C_6 
REMARK    5  A    between atoms: C_9  and  C_7 
REMARK    6  A    between atoms: C_10  and  C_8 
REMARK    7  A    between atoms: C_11  and  C_9 
REMARK    8  A    between atoms: C_12  and  C_10 
REMARK    9  A    between atoms: C_13  and  C_11 
REMARK   10  A    between atoms: C_14  and  C_12 
REMARK   11  A    between atoms: C_15  and  C_13 
REMARK   12  A    between atoms: C_16  and  C_14 
REMARK   13  A    between atoms: C_17  and  C_15 
REMARK   14  A    between atoms: C_28  and  C_16 
REMARK   15  A    between atoms: C_18  and  C_17 
REMARK   16  A    between atoms: C_19  and  C_18 
REMARK   17  A    between atoms: C_20  and  C_19 
REMARK   18  A    between atoms: C_21  and  C_20 
REMARK   19  A    between atoms: C_22  and  C_21 
REMARK   20  A    between atoms: C_23  and  C_22 
REMARK   21  A    between atoms: C_24  and  C_23 
REMARK   22  A    between atoms: C_25  and  C_24 
REMARK   23  A    between atoms: C_26  and  C_25 
REMARK   24  A    between atoms: C_27  and  C_26 
REMARK   25  A    between atoms: C_29  and  C_27 
REMARK   26  A    between atoms: C_30  and  C_28 
REMARK   27  A    between atoms: C_31  and  C_29 
REMARK   28  A    between atoms: C_32  and  C_30 
REMARK   29  A    between atoms: C_33  and  C_31 
REMARK   30  A    between atoms: C_34  and  C_32 
REMARK   31  A    between atoms: C_35  and  C_33 
REMARK   32  A    between atoms: C_36  and  C_34 
REMARK   33  A    between atoms: C_37  and  C_35 
REMARK   34  A    between atoms: C_38  and  C_36 
REMARK   35  A    between atoms: C_39  and  C_37 
REMARK   36  A    between atoms: C_43  and  C_38 
REMARK   37  A    between atoms: C_45  and  C_39 
REMARK   38  A    between atoms: C_44  and  C_40 
REMARK   39  A    between atoms: O_53  and  C_40 
REMARK   40  A    between atoms: C_42  and  C_41 
REMARK   41  A    between atoms: O_60  and  C_41 
REMARK   42  A    between atoms: C_46  and  C_42 
REMARK   43  A    between atoms: C_42  and  N_51 
REMARK   44  A    between atoms: C_46  and  C_43 
REMARK   45  A    between atoms: C_43  and  O_54 
REMARK   46  A    between atoms: C_45  and  O_55 
REMARK   47  A    between atoms: C_46  and  O_56 
REMARK   48  A    between atoms: C_48  and  O_58 
REMARK   49  A    between atoms: C_49  and  O_59 
REMARK   50  A    between atoms: C_50  and  O_60 
ROOT
HETATM    1  C   UNK N   1      35.251  15.357   9.770  0.00  0.00     0.179 C 
HETATM    2  C   UNK N   1      34.737  14.434  10.900  0.00  0.00     0.180 C 
HETATM    3  C   UNK N   1      34.712  12.996  10.365  0.00  0.00     0.183 C 
HETATM    4  C   UNK N   1      33.923  12.934   9.050  0.00  0.00     0.204 C 
HETATM    5  C   UNK N   1      34.496  13.964   8.050  0.00  0.00     0.291 C 
HETATM    6  O   UNK N   1      33.455  14.819  11.307  0.00  0.00    -0.390 OA
HETATM    7  O   UNK N   1      34.409  15.269   8.623  0.00  0.00    -0.348 OA
HETATM    8  H   UNK N   1      32.551  14.953  11.629  0.00  0.00     0.210 HD
ENDROOT
BRANCH   1   9
HETATM    9  C   UNK N   1      35.352  16.811  10.226  0.00  0.00     0.198 C 
BRANCH   9  10
HETATM   10  O   UNK N   1      34.261  17.562   9.786  0.00  0.00    -0.398 OA
HETATM   11  H   UNK N   1      33.629  18.075   9.259  0.00  0.00     0.209 HD
ENDBRANCH   9  10
ENDBRANCH   1   9
BRANCH   3  12
HETATM   12  O   UNK N   1      34.165  12.124  11.311  0.00  0.00    -0.390 OA
HETATM   13  H   UNK N   1      33.828  11.225  11.170  0.00  0.00     0.210 HD
ENDBRANCH   3  12
BRANCH   4  14
HETATM   14  O   UNK N   1      32.568  13.206   9.279  0.00  0.00    -0.388 OA
HETATM   15  H   UNK N   1      31.730  13.626   9.525  0.00  0.00     0.210 HD
ENDBRANCH   4  14
BRANCH   5  16
HETATM   16  O   UNK N   1      33.753  13.842   6.848  0.00  0.00    -0.356 OA
BRANCH  16  17
HETATM   17  C   UNK N   1      33.539  15.088   6.224  0.00  0.00     0.199 C 
BRANCH  17  18
HETATM   18  C   UNK N   1      32.070  15.470   6.416  0.00  0.00     0.138 C 
BRANCH  18  19
HETATM   19  C   UNK N   1      31.807  16.843   7.072  0.00  0.00     0.171 C 
BRANCH  19  20
HETATM   20  C   UNK N   1      31.103  16.865   8.430  0.00  0.00     0.149 C 
BRANCH  20  21
HETATM   21  C   UNK N   1      30.849  18.288   8.939  0.00  0.00     0.034 C 
BRANCH  21  22
HETATM   22  C   UNK N   1      29.515  18.447   9.672  0.00  0.00     0.002 C 
BRANCH  22  23
HETATM   23  C   UNK N   1      28.453  17.416   9.278  0.00  0.00     0.000 C 
BRANCH  23  24
HETATM   24  C   UNK N   1      27.758  17.813   7.974  0.00  0.00     0.000 C 
BRANCH  24  25
HETATM   25  C   UNK N   1      27.889  16.789   6.853  0.00  0.00     0.000 C 
BRANCH  25  26
HETATM   26  C   UNK N   1      26.598  16.568   6.076  0.00  0.00     0.000 C 
BRANCH  26  27
HETATM   27  C   UNK N   1      26.864  15.769   4.807  0.00  0.00     0.000 C 
BRANCH  27  28
HETATM   28  C   UNK N   1      25.630  14.983   4.395  0.00  0.00     0.000 C 
BRANCH  28  29
HETATM   29  C   UNK N   1      24.474  15.250   5.342  0.00  0.00     0.000 C 
BRANCH  29  30
HETATM   30  C   UNK N   1      23.979  13.930   5.899  0.00  0.00     0.000 C 
BRANCH  30  31
HETATM   31  C   UNK N   1      24.238  12.804   4.919  0.00  0.00     0.000 C 
BRANCH  31  32
HETATM   32  C   UNK N   1      23.004  11.928   4.829  0.00  0.00    -0.000 C 
BRANCH  32  33
HETATM   33  C   UNK N   1      21.767  12.800   4.865  0.00  0.00    -0.005 C 
HETATM   34  C   UNK N   1      20.863  12.344   5.991  0.00  0.00     0.005 C 
ENDBRANCH  32  33
ENDBRANCH  31  32
ENDBRANCH  30  31
ENDBRANCH  29  30
ENDBRANCH  28  29
ENDBRANCH  27  28
ENDBRANCH  26  27
ENDBRANCH  25  26
ENDBRANCH  24  25
ENDBRANCH  23  24
ENDBRANCH  22  23
ENDBRANCH  21  22
ENDBRANCH  20  21
BRANCH  20  35
HETATM   35  O   UNK N   1      31.802  16.113   9.377  0.00  0.00    -0.393 OA
HETATM   36  H   UNK N   1      31.775  16.103  10.346  0.00  0.00     0.210 HD
ENDBRANCH  20  35
ENDBRANCH  19  20
BRANCH  19  37
HETATM   37  O   UNK N   1      32.991  17.587   7.154  0.00  0.00    -0.391 OA
HETATM   38  H   UNK N   1      33.531  18.128   6.557  0.00  0.00     0.210 HD
ENDBRANCH  19  37
ENDBRANCH  18  19
BRANCH  18  39
HETATM   39  N   UNK N   1      31.416  15.510   5.120  0.00  0.00    -0.365 N 
HETATM   40  C   UNK N   1      30.683  14.562   4.642  0.00  0.00     0.111 C 
ATOM     41  HN  UNK N   1      31.546  16.344   4.548  1.00  0.00     0.161 HD
BRANCH  40  42
HETATM   42  C   UNK N   1      29.945  14.754   3.345  0.00  0.00     0.083 C 
BRANCH  42  43
HETATM   43  C   UNK N   1      29.790  13.451   2.556  0.00  0.00     0.008 C 
BRANCH  43  44
HETATM   44  C   UNK N   1      28.375  13.262   2.028  0.00  0.00     0.000 C 
BRANCH  44  45
HETATM   45  C   UNK N   1      28.250  11.989   1.210  0.00  0.00     0.000 C 
BRANCH  45  46
HETATM   46  C   UNK N   1      27.221  11.079   1.856  0.00  0.00     0.000 C 
BRANCH  46  47
HETATM   47  C   UNK N   1      25.976  10.972   0.995  0.00  0.00     0.000 C 
BRANCH  47  48
HETATM   48  C   UNK N   1      24.852  11.848   1.534  0.00  0.00     0.000 C 
BRANCH  48  49
HETATM   49  C   UNK N   1      23.680  11.936   0.566  0.00  0.00     0.000 C 
BRANCH  49  50
HETATM   50  C   UNK N   1      23.446  13.367   0.119  0.00  0.00     0.000 C 
BRANCH  50  51
HETATM   51  C   UNK N   1      23.966  14.321   1.179  0.00  0.00     0.000 C 
BRANCH  51  52
HETATM   52  C   UNK N   1      22.830  14.871   2.027  0.00  0.00     0.000 C 
BRANCH  52  53
HETATM   53  C   UNK N   1      21.530  14.911   1.246  0.00  0.00     0.000 C 
BRANCH  53  54
HETATM   54  C   UNK N   1      20.602  15.976   1.806  0.00  0.00     0.000 C 
BRANCH  54  55
HETATM   55  C   UNK N   1      19.971  15.517   3.113  0.00  0.00     0.000 C 
BRANCH  55  56
HETATM   56  C   UNK N   1      19.895  16.633   4.147  0.00  0.00     0.000 C 
BRANCH  56  57
HETATM   57  C   UNK N   1      20.911  16.403   5.255  0.00  0.00     0.000 C 
BRANCH  57  58
HETATM   58  C   UNK N   1      21.639  17.690   5.581  0.00  0.00     0.000 C 
BRANCH  58  59
HETATM   59  C   UNK N   1      21.906  18.470   4.306  0.00  0.00     0.000 C 
BRANCH  59  60
HETATM   60  C   UNK N   1      23.300  18.149   3.801  0.00  0.00     0.000 C 
BRANCH  60  61
HETATM   61  C   UNK N   1      24.153  19.404   3.733  0.00  0.00     0.000 C 
BRANCH  61  62
HETATM   62  C   UNK N   1      25.573  19.056   3.325  0.00  0.00     0.000 C 
BRANCH  62  63
HETATM   63  C   UNK N   1      26.487  20.246   3.537  0.00  0.00     0.000 C 
BRANCH  63  64
HETATM   64  C   UNK N   1      27.460  19.949   4.660  0.00  0.00    -0.000 C 
BRANCH  64  65
HETATM   65  C   UNK N   1      26.856  20.382   5.980  0.00  0.00    -0.005 C 
HETATM   66  C   UNK N   1      27.282  21.802   6.289  0.00  0.00     0.005 C 
ENDBRANCH  64  65
ENDBRANCH  63  64
ENDBRANCH  62  63
ENDBRANCH  61  62
ENDBRANCH  60  61
ENDBRANCH  59  60
ENDBRANCH  58  59
ENDBRANCH  57  58
ENDBRANCH  56  57
ENDBRANCH  55  56
ENDBRANCH  54  55
ENDBRANCH  53  54
ENDBRANCH  52  53
ENDBRANCH  51  52
ENDBRANCH  50  51
ENDBRANCH  49  50
ENDBRANCH  48  49
ENDBRANCH  47  48
ENDBRANCH  46  47
ENDBRANCH  45  46
ENDBRANCH  44  45
ENDBRANCH  43  44
ENDBRANCH  42  43
ENDBRANCH  40  42
BRANCH  40  67
HETATM   67  O   UNK N   1      30.517  13.408   5.321  0.00  0.00    -0.350 OA
HETATM   68  H   UNK N   1      30.052  12.637   5.583  0.00  0.00     0.219 HD
ENDBRANCH  40  67
ENDBRANCH  18  39
ENDBRANCH  17  18
ENDBRANCH  16  17
ENDBRANCH   5  16
TORSDOF 50
ENDMDL
MODEL 7
REMARK VINA RESULT:      -4.7      2.862      9.170
REMARK WARNING: 32 MAX_TORS EXCEEDED!!!
REMARK  50 active torsions:
REMARK  status: ('A' for Active; 'I' for Inactive)
REMARK    1  A    between atoms: C_5  and  C_3 
REMARK    2  A    between atoms: C_6  and  C_4 
REMARK    3  A    between atoms: C_7  and  C_5 
REMARK    4  A    between atoms: C_8  and  C_6 
REMARK    5  A    between atoms: C_9  and  C_7 
REMARK    6  A    between atoms: C_10  and  C_8 
REMARK    7  A    between atoms: C_11  and  C_9 
REMARK    8  A    between atoms: C_12  and  C_10 
REMARK    9  A    between atoms: C_13  and  C_11 
REMARK   10  A    between atoms: C_14  and  C_12 
REMARK   11  A    between atoms: C_15  and  C_13 
REMARK   12  A    between atoms: C_16  and  C_14 
REMARK   13  A    between atoms: C_17  and  C_15 
REMARK   14  A    between atoms: C_28  and  C_16 
REMARK   15  A    between atoms: C_18  and  C_17 
REMARK   16  A    between atoms: C_19  and  C_18 
REMARK   17  A    between atoms: C_20  and  C_19 
REMARK   18  A    between atoms: C_21  and  C_20 
REMARK   19  A    between atoms: C_22  and  C_21 
REMARK   20  A    between atoms: C_23  and  C_22 
REMARK   21  A    between atoms: C_24  and  C_23 
REMARK   22  A    between atoms: C_25  and  C_24 
REMARK   23  A    between atoms: C_26  and  C_25 
REMARK   24  A    between atoms: C_27  and  C_26 
REMARK   25  A    between atoms: C_29  and  C_27 
REMARK   26  A    between atoms: C_30  and  C_28 
REMARK   27  A    between atoms: C_31  and  C_29 
REMARK   28  A    between atoms: C_32  and  C_30 
REMARK   29  A    between atoms: C_33  and  C_31 
REMARK   30  A    between atoms: C_34  and  C_32 
REMARK   31  A    between atoms: C_35  and  C_33 
REMARK   32  A    between atoms: C_36  and  C_34 
REMARK   33  A    between atoms: C_37  and  C_35 
REMARK   34  A    between atoms: C_38  and  C_36 
REMARK   35  A    between atoms: C_39  and  C_37 
REMARK   36  A    between atoms: C_43  and  C_38 
REMARK   37  A    between atoms: C_45  and  C_39 
REMARK   38  A    between atoms: C_44  and  C_40 
REMARK   39  A    between atoms: O_53  and  C_40 
REMARK   40  A    between atoms: C_42  and  C_41 
REMARK   41  A    between atoms: O_60  and  C_41 
REMARK   42  A    between atoms: C_46  and  C_42 
REMARK   43  A    between atoms: C_42  and  N_51 
REMARK   44  A    between atoms: C_46  and  C_43 
REMARK   45  A    between atoms: C_43  and  O_54 
REMARK   46  A    between atoms: C_45  and  O_55 
REMARK   47  A    between atoms: C_46  and  O_56 
REMARK   48  A    between atoms: C_48  and  O_58 
REMARK   49  A    between atoms: C_49  and  O_59 
REMARK   50  A    between atoms: C_50  and  O_60 
ROOT
HETATM    1  C   UNK N   1      33.260  14.474   3.985  0.00  0.00     0.179 C 
HETATM    2  C   UNK N   1      32.004  15.076   3.311  0.00  0.00     0.180 C 
HETATM    3  C   UNK N   1      32.228  16.586   3.152  0.00  0.00     0.183 C 
HETATM    4  C   UNK N   1      32.620  17.208   4.499  0.00  0.00     0.204 C 
HETATM    5  C   UNK N   1      33.834  16.455   5.087  0.00  0.00     0.291 C 
HETATM    6  O   UNK N   1      30.865  14.838   4.090  0.00  0.00    -0.390 OA
HETATM    7  O   UNK N   1      33.492  15.078   5.255  0.00  0.00    -0.348 OA
HETATM    8  H   UNK N   1      30.023  14.787   4.567  0.00  0.00     0.210 HD
ENDROOT
BRANCH   1   9
HETATM    9  C   UNK N   1      33.146  12.959   4.147  0.00  0.00     0.198 C 
BRANCH   9  10
HETATM   10  O   UNK N   1      32.227  12.416   3.248  0.00  0.00    -0.398 OA
HETATM   11  H   UNK N   1      31.420  12.150   2.782  0.00  0.00     0.209 HD
ENDBRANCH   9  10
ENDBRANCH   1   9
BRANCH   3  12
HETATM   12  O   UNK N   1      31.086  17.205   2.635  0.00  0.00    -0.390 OA
HETATM   13  H   UNK N   1      30.575  17.934   3.021  0.00  0.00     0.210 HD
ENDBRANCH   3  12
BRANCH   4  14
HETATM   14  O   UNK N   1      31.548  17.145   5.397  0.00  0.00    -0.388 OA
HETATM   15  H   UNK N   1      30.761  16.871   5.893  0.00  0.00     0.210 HD
ENDBRANCH   4  14
BRANCH   5  16
HETATM   16  O   UNK N   1      34.171  17.088   6.310  0.00  0.00    -0.356 OA
BRANCH  16  17
HETATM   17  C   UNK N   1      34.673  16.178   7.263  0.00  0.00     0.199 C 
BRANCH  17  18
HETATM   18  C   UNK N   1      33.858  16.338   8.548  0.00  0.00     0.138 C 
BRANCH  18  19
HETATM   19  C   UNK N   1      34.651  16.761   9.804  0.00  0.00     0.171 C 
BRANCH  19  20
HETATM   20  C   UNK N   1      35.587  15.733  10.441  0.00  0.00     0.149 C 
BRANCH  20  21
HETATM   21  C   UNK N   1      34.898  14.901  11.528  0.00  0.00     0.034 C 
BRANCH  21  22
HETATM   22  C   UNK N   1      35.790  13.805  12.118  0.00  0.00     0.002 C 
BRANCH  22  23
HETATM   23  C   UNK N   1      36.396  12.858  11.077  0.00  0.00     0.000 C 
BRANCH  23  24
HETATM   24  C   UNK N   1      35.424  11.727  10.731  0.00  0.00     0.000 C 
BRANCH  24  25
HETATM   25  C   UNK N   1      35.384  10.597  11.752  0.00  0.00     0.000 C 
BRANCH  25  26
HETATM   26  C   UNK N   1      34.088  10.544  12.551  0.00  0.00     0.000 C 
BRANCH  26  27
HETATM   27  C   UNK N   1      34.342   9.998  13.951  0.00  0.00     0.000 C 
BRANCH  27  28
HETATM   28  C   UNK N   1      33.756  10.922  15.005  0.00  0.00     0.000 C 
BRANCH  28  29
HETATM   29  C   UNK N   1      34.685  12.090  15.281  0.00  0.00     0.000 C 
BRANCH  29  30
HETATM   30  C   UNK N   1      36.056  11.554  15.642  0.00  0.00     0.000 C 
BRANCH  30  31
HETATM   31  C   UNK N   1      37.131  12.228  14.813  0.00  0.00     0.000 C 
BRANCH  31  32
HETATM   32  C   UNK N   1      38.149  11.193  14.379  0.00  0.00    -0.000 C 
BRANCH  32  33
HETATM   33  C   UNK N   1      37.629   9.809  14.712  0.00  0.00    -0.005 C 
HETATM   34  C   UNK N   1      38.783   8.930  15.147  0.00  0.00     0.005 C 
ENDBRANCH  32  33
ENDBRANCH  31  32
ENDBRANCH  30  31
ENDBRANCH  29  30
ENDBRANCH  28  29
ENDBRANCH  27  28
ENDBRANCH  26  27
ENDBRANCH  25  26
ENDBRANCH  24  25
ENDBRANCH  23  24
ENDBRANCH  22  23
ENDBRANCH  21  22
ENDBRANCH  20  21
BRANCH  20  35
HETATM   35  O   UNK N   1      36.746  16.338  10.933  0.00  0.00    -0.393 OA
HETATM   36  H   UNK N   1      37.133  17.214  10.785  0.00  0.00     0.210 HD
ENDBRANCH  20  35
ENDBRANCH  19  20
BRANCH  19  37
HETATM   37  O   UNK N   1      35.361  17.945   9.565  0.00  0.00    -0.391 OA
HETATM   38  H   UNK N   1      35.531  18.529   8.810  0.00  0.00     0.210 HD
ENDBRANCH  19  37
ENDBRANCH  18  19
BRANCH  18  39
HETATM   39  N   UNK N   1      32.846  17.360   8.346  0.00  0.00    -0.365 N 
HETATM   40  C   UNK N   1      31.635  17.285   8.783  0.00  0.00     0.111 C 
ATOM     41  HN  UNK N   1      33.112  18.193   7.822  1.00  0.00     0.161 HD
BRANCH  40  42
HETATM   42  C   UNK N   1      30.700  18.454   8.630  0.00  0.00     0.083 C 
BRANCH  42  43
HETATM   43  C   UNK N   1      29.233  18.027   8.529  0.00  0.00     0.008 C 
BRANCH  43  44
HETATM   44  C   UNK N   1      28.588  18.485   7.228  0.00  0.00     0.000 C 
BRANCH  44  45
HETATM   45  C   UNK N   1      27.588  19.602   7.463  0.00  0.00     0.000 C 
BRANCH  45  46
HETATM   46  C   UNK N   1      27.221  20.233   6.133  0.00  0.00     0.000 C 
BRANCH  46  47
HETATM   47  C   UNK N   1      28.148  19.753   5.032  0.00  0.00     0.000 C 
BRANCH  47  48
HETATM   48  C   UNK N   1      27.363  19.261   3.822  0.00  0.00     0.000 C 
BRANCH  48  49
HETATM   49  C   UNK N   1      26.096  18.518   4.225  0.00  0.00     0.000 C 
BRANCH  49  50
HETATM   50  C   UNK N   1      25.952  17.222   3.449  0.00  0.00     0.000 C 
BRANCH  50  51
HETATM   51  C   UNK N   1      27.116  16.305   3.775  0.00  0.00     0.000 C 
BRANCH  51  52
HETATM   52  C   UNK N   1      26.999  15.749   5.186  0.00  0.00     0.000 C 
BRANCH  52  53
HETATM   53  C   UNK N   1      26.565  14.296   5.171  0.00  0.00     0.000 C 
BRANCH  53  54
HETATM   54  C   UNK N   1      25.295  14.108   5.985  0.00  0.00     0.000 C 
BRANCH  54  55
HETATM   55  C   UNK N   1      24.788  15.441   6.519  0.00  0.00     0.000 C 
BRANCH  55  56
HETATM   56  C   UNK N   1      23.267  15.525   6.524  0.00  0.00     0.000 C 
BRANCH  56  57
HETATM   57  C   UNK N   1      22.658  14.191   6.127  0.00  0.00     0.000 C 
BRANCH  57  58
HETATM   58  C   UNK N   1      21.715  13.697   7.205  0.00  0.00     0.000 C 
BRANCH  58  59
HETATM   59  C   UNK N   1      21.234  14.866   8.046  0.00  0.00     0.000 C 
BRANCH  59  60
HETATM   60  C   UNK N   1      21.019  14.406   9.475  0.00  0.00     0.000 C 
BRANCH  60  61
HETATM   61  C   UNK N   1      21.222  12.906   9.596  0.00  0.00     0.000 C 
BRANCH  61  62
HETATM   62  C   UNK N   1      21.040  12.463  11.037  0.00  0.00     0.000 C 
BRANCH  62  63
HETATM   63  C   UNK N   1      22.368  12.032  11.626  0.00  0.00     0.000 C 
BRANCH  63  64
HETATM   64  C   UNK N   1      23.285  11.553  10.519  0.00  0.00    -0.000 C 
BRANCH  64  65
HETATM   65  C   UNK N   1      24.646  12.198  10.675  0.00  0.00    -0.005 C 
HETATM   66  C   UNK N   1      24.842  13.235   9.589  0.00  0.00     0.005 C 
ENDBRANCH  64  65
ENDBRANCH  63  64
ENDBRANCH  62  63
ENDBRANCH  61  62
ENDBRANCH  60  61
ENDBRANCH  59  60
ENDBRANCH  58  59
ENDBRANCH  57  58
ENDBRANCH  56  57
ENDBRANCH  55  56
ENDBRANCH  54  55
ENDBRANCH  53  54
ENDBRANCH  52  53
ENDBRANCH  51  52
ENDBRANCH  50  51
ENDBRANCH  49  50
ENDBRANCH  48  49
ENDBRANCH  47  48
ENDBRANCH  46  47
ENDBRANCH  45  46
ENDBRANCH  44  45
ENDBRANCH  43  44
ENDBRANCH  42  43
ENDBRANCH  40  42
BRANCH  40  67
HETATM   67  O   UNK N   1      31.202  16.185   9.432  0.00  0.00    -0.350 OA
HETATM   68  H   UNK N   1      31.005  15.272   9.518  0.00  0.00     0.219 HD
ENDBRANCH  40  67
ENDBRANCH  18  39
ENDBRANCH  17  18
ENDBRANCH  16  17
ENDBRANCH   5  16
TORSDOF 50
ENDMDL
MODEL 8
REMARK VINA RESULT:      -4.7      1.933      5.651
REMARK WARNING: 32 MAX_TORS EXCEEDED!!!
REMARK  50 active torsions:
REMARK  status: ('A' for Active; 'I' for Inactive)
REMARK    1  A    between atoms: C_5  and  C_3 
REMARK    2  A    between atoms: C_6  and  C_4 
REMARK    3  A    between atoms: C_7  and  C_5 
REMARK    4  A    between atoms: C_8  and  C_6 
REMARK    5  A    between atoms: C_9  and  C_7 
REMARK    6  A    between atoms: C_10  and  C_8 
REMARK    7  A    between atoms: C_11  and  C_9 
REMARK    8  A    between atoms: C_12  and  C_10 
REMARK    9  A    between atoms: C_13  and  C_11 
REMARK   10  A    between atoms: C_14  and  C_12 
REMARK   11  A    between atoms: C_15  and  C_13 
REMARK   12  A    between atoms: C_16  and  C_14 
REMARK   13  A    between atoms: C_17  and  C_15 
REMARK   14  A    between atoms: C_28  and  C_16 
REMARK   15  A    between atoms: C_18  and  C_17 
REMARK   16  A    between atoms: C_19  and  C_18 
REMARK   17  A    between atoms: C_20  and  C_19 
REMARK   18  A    between atoms: C_21  and  C_20 
REMARK   19  A    between atoms: C_22  and  C_21 
REMARK   20  A    between atoms: C_23  and  C_22 
REMARK   21  A    between atoms: C_24  and  C_23 
REMARK   22  A    between atoms: C_25  and  C_24 
REMARK   23  A    between atoms: C_26  and  C_25 
REMARK   24  A    between atoms: C_27  and  C_26 
REMARK   25  A    between atoms: C_29  and  C_27 
REMARK   26  A    between atoms: C_30  and  C_28 
REMARK   27  A    between atoms: C_31  and  C_29 
REMARK   28  A    between atoms: C_32  and  C_30 
REMARK   29  A    between atoms: C_33  and  C_31 
REMARK   30  A    between atoms: C_34  and  C_32 
REMARK   31  A    between atoms: C_35  and  C_33 
REMARK   32  A    between atoms: C_36  and  C_34 
REMARK   33  A    between atoms: C_37  and  C_35 
REMARK   34  A    between atoms: C_38  and  C_36 
REMARK   35  A    between atoms: C_39  and  C_37 
REMARK   36  A    between atoms: C_43  and  C_38 
REMARK   37  A    between atoms: C_45  and  C_39 
REMARK   38  A    between atoms: C_44  and  C_40 
REMARK   39  A    between atoms: O_53  and  C_40 
REMARK   40  A    between atoms: C_42  and  C_41 
REMARK   41  A    between atoms: O_60  and  C_41 
REMARK   42  A    between atoms: C_46  and  C_42 
REMARK   43  A    between atoms: C_42  and  N_51 
REMARK   44  A    between atoms: C_46  and  C_43 
REMARK   45  A    between atoms: C_43  and  O_54 
REMARK   46  A    between atoms: C_45  and  O_55 
REMARK   47  A    between atoms: C_46  and  O_56 
REMARK   48  A    between atoms: C_48  and  O_58 
REMARK   49  A    between atoms: C_49  and  O_59 
REMARK   50  A    between atoms: C_50  and  O_60 
ROOT
HETATM    1  C   UNK N   1      36.754  13.971   9.836  0.00  0.00     0.179 C 
HETATM    2  C   UNK N   1      36.357  13.611  11.287  0.00  0.00     0.180 C 
HETATM    3  C   UNK N   1      34.824  13.592  11.369  0.00  0.00     0.183 C 
HETATM    4  C   UNK N   1      34.249  14.910  10.832  0.00  0.00     0.204 C 
HETATM    5  C   UNK N   1      34.796  15.176   9.412  0.00  0.00     0.291 C 
HETATM    6  O   UNK N   1      36.876  14.549  12.187  0.00  0.00    -0.390 OA
HETATM    7  O   UNK N   1      36.222  15.240   9.465  0.00  0.00    -0.348 OA
HETATM    8  H   UNK N   1      37.129  15.161  12.894  0.00  0.00     0.210 HD
ENDROOT
BRANCH   1   9
HETATM    9  C   UNK N   1      38.270  13.972   9.646  0.00  0.00     0.198 C 
BRANCH   9  10
HETATM   10  O   UNK N   1      38.924  13.429  10.752  0.00  0.00    -0.398 OA
HETATM   11  H   UNK N   1      39.323  13.279  11.624  0.00  0.00     0.209 HD
ENDBRANCH   9  10
ENDBRANCH   1   9
BRANCH   3  12
HETATM   12  O   UNK N   1      34.401  13.366  12.682  0.00  0.00    -0.390 OA
HETATM   13  H   UNK N   1      33.596  12.913  12.980  0.00  0.00     0.210 HD
ENDBRANCH   3  12
BRANCH   4  14
HETATM   14  O   UNK N   1      34.593  15.973  11.675  0.00  0.00    -0.388 OA
HETATM   15  H   UNK N   1      34.667  16.582  12.427  0.00  0.00     0.210 HD
ENDBRANCH   4  14
BRANCH   5  16
HETATM   16  O   UNK N   1      34.211  16.384   8.955  0.00  0.00    -0.356 OA
BRANCH  16  17
HETATM   17  C   UNK N   1      32.819  16.263   8.760  0.00  0.00     0.199 C 
BRANCH  17  18
HETATM   18  C   UNK N   1      32.404  17.254   7.670  0.00  0.00     0.138 C 
BRANCH  18  19
HETATM   19  C   UNK N   1      32.988  16.996   6.264  0.00  0.00     0.171 C 
BRANCH  19  20
HETATM   20  C   UNK N   1      32.048  17.118   5.064  0.00  0.00     0.149 C 
BRANCH  20  21
HETATM   21  C   UNK N   1      31.434  15.775   4.656  0.00  0.00     0.034 C 
BRANCH  21  22
HETATM   22  C   UNK N   1      31.113  15.676   3.162  0.00  0.00     0.002 C 
BRANCH  22  23
HETATM   23  C   UNK N   1      29.741  16.236   2.775  0.00  0.00     0.000 C 
BRANCH  23  24
HETATM   24  C   UNK N   1      28.690  15.897   3.834  0.00  0.00     0.000 C 
BRANCH  24  25
HETATM   25  C   UNK N   1      27.406  16.712   3.731  0.00  0.00     0.000 C 
BRANCH  25  26
HETATM   26  C   UNK N   1      26.388  16.383   4.815  0.00  0.00     0.000 C 
BRANCH  26  27
HETATM   27  C   UNK N   1      24.978  16.354   4.238  0.00  0.00     0.000 C 
BRANCH  27  28
HETATM   28  C   UNK N   1      24.970  15.702   2.865  0.00  0.00     0.000 C 
BRANCH  28  29
HETATM   29  C   UNK N   1      24.657  14.220   2.969  0.00  0.00     0.000 C 
BRANCH  29  30
HETATM   30  C   UNK N   1      23.154  14.031   2.937  0.00  0.00     0.000 C 
BRANCH  30  31
HETATM   31  C   UNK N   1      22.769  12.961   1.935  0.00  0.00     0.000 C 
BRANCH  31  32
HETATM   32  C   UNK N   1      22.282  13.622   0.661  0.00  0.00    -0.000 C 
BRANCH  32  33
HETATM   33  C   UNK N   1      21.462  14.845   1.013  0.00  0.00    -0.005 C 
HETATM   34  C   UNK N   1      19.990  14.491   0.975  0.00  0.00     0.005 C 
ENDBRANCH  32  33
ENDBRANCH  31  32
ENDBRANCH  30  31
ENDBRANCH  29  30
ENDBRANCH  28  29
ENDBRANCH  27  28
ENDBRANCH  26  27
ENDBRANCH  25  26
ENDBRANCH  24  25
ENDBRANCH  23  24
ENDBRANCH  22  23
ENDBRANCH  21  22
ENDBRANCH  20  21
BRANCH  20  35
HETATM   35  O   UNK N   1      32.684  17.727   3.980  0.00  0.00    -0.393 OA
HETATM   36  H   UNK N   1      32.959  18.643   3.820  0.00  0.00     0.210 HD
ENDBRANCH  20  35
ENDBRANCH  19  20
BRANCH  19  37
HETATM   37  O   UNK N   1      34.121  17.791   6.045  0.00  0.00    -0.391 OA
HETATM   38  H   UNK N   1      34.577  18.516   6.500  0.00  0.00     0.210 HD
ENDBRANCH  19  37
ENDBRANCH  18  19
BRANCH  18  39
HETATM   39  N   UNK N   1      30.960  17.218   7.520  0.00  0.00    -0.365 N 
HETATM   40  C   UNK N   1      30.138  17.956   8.186  0.00  0.00     0.111 C 
ATOM     41  HN  UNK N   1      30.569  16.564   6.842  1.00  0.00     0.161 HD
BRANCH  40  42
HETATM   42  C   UNK N   1      28.668  17.935   7.865  0.00  0.00     0.083 C 
BRANCH  42  43
HETATM   43  C   UNK N   1      28.314  18.802   6.655  0.00  0.00     0.008 C 
BRANCH  43  44
HETATM   44  C   UNK N   1      27.545  20.056   7.049  0.00  0.00     0.000 C 
BRANCH  44  45
HETATM   45  C   UNK N   1      27.280  20.948   5.850  0.00  0.00     0.000 C 
BRANCH  45  46
HETATM   46  C   UNK N   1      27.587  20.179   4.577  0.00  0.00     0.000 C 
BRANCH  46  47
HETATM   47  C   UNK N   1      26.594  20.522   3.484  0.00  0.00     0.000 C 
BRANCH  47  48
HETATM   48  C   UNK N   1      25.285  19.764   3.667  0.00  0.00     0.000 C 
BRANCH  48  49
HETATM   49  C   UNK N   1      24.122  20.450   2.962  0.00  0.00     0.000 C 
BRANCH  49  50
HETATM   50  C   UNK N   1      22.819  19.713   3.211  0.00  0.00     0.000 C 
BRANCH  50  51
HETATM   51  C   UNK N   1      21.651  20.631   2.899  0.00  0.00     0.000 C 
BRANCH  51  52
HETATM   52  C   UNK N   1      20.822  20.091   1.744  0.00  0.00     0.000 C 
BRANCH  52  53
HETATM   53  C   UNK N   1      20.563  18.605   1.900  0.00  0.00     0.000 C 
BRANCH  53  54
HETATM   54  C   UNK N   1      19.577  18.349   3.029  0.00  0.00     0.000 C 
BRANCH  54  55
HETATM   55  C   UNK N   1      19.778  16.962   3.623  0.00  0.00     0.000 C 
BRANCH  55  56
HETATM   56  C   UNK N   1      21.133  16.810   4.303  0.00  0.00     0.000 C 
BRANCH  56  57
HETATM   57  C   UNK N   1      21.148  17.547   5.632  0.00  0.00     0.000 C 
BRANCH  57  58
HETATM   58  C   UNK N   1      21.451  16.588   6.766  0.00  0.00     0.000 C 
BRANCH  58  59
HETATM   59  C   UNK N   1      21.934  15.263   6.206  0.00  0.00     0.000 C 
BRANCH  59  60
HETATM   60  C   UNK N   1      23.271  14.908   6.829  0.00  0.00     0.000 C 
BRANCH  60  61
HETATM   61  C   UNK N   1      23.486  13.405   6.827  0.00  0.00     0.000 C 
BRANCH  61  62
HETATM   62  C   UNK N   1      22.151  12.680   6.853  0.00  0.00     0.000 C 
BRANCH  62  63
HETATM   63  C   UNK N   1      21.675  12.511   8.282  0.00  0.00     0.000 C 
BRANCH  63  64
HETATM   64  C   UNK N   1      22.785  11.912   9.122  0.00  0.00    -0.000 C 
BRANCH  64  65
HETATM   65  C   UNK N   1      23.050  12.804  10.317  0.00  0.00    -0.005 C 
HETATM   66  C   UNK N   1      22.553  12.125  11.576  0.00  0.00     0.005 C 
ENDBRANCH  64  65
ENDBRANCH  63  64
ENDBRANCH  62  63
ENDBRANCH  61  62
ENDBRANCH  60  61
ENDBRANCH  59  60
ENDBRANCH  58  59
ENDBRANCH  57  58
ENDBRANCH  56  57
ENDBRANCH  55  56
ENDBRANCH  54  55
ENDBRANCH  53  54
ENDBRANCH  52  53
ENDBRANCH  51  52
ENDBRANCH  50  51
ENDBRANCH  49  50
ENDBRANCH  48  49
ENDBRANCH  47  48
ENDBRANCH  46  47
ENDBRANCH  45  46
ENDBRANCH  44  45
ENDBRANCH  43  44
ENDBRANCH  42  43
ENDBRANCH  40  42
BRANCH  40  67
HETATM   67  O   UNK N   1      30.584  18.801   9.138  0.00  0.00    -0.350 OA
HETATM   68  H   UNK N   1      30.594  19.187   9.993  0.00  0.00     0.219 HD
ENDBRANCH  40  67
ENDBRANCH  18  39
ENDBRANCH  17  18
ENDBRANCH  16  17
ENDBRANCH   5  16
TORSDOF 50
ENDMDL
MODEL 9
REMARK VINA RESULT:      -4.7      1.988      5.620
REMARK WARNING: 32 MAX_TORS EXCEEDED!!!
REMARK  50 active torsions:
REMARK  status: ('A' for Active; 'I' for Inactive)
REMARK    1  A    between atoms: C_5  and  C_3 
REMARK    2  A    between atoms: C_6  and  C_4 
REMARK    3  A    between atoms: C_7  and  C_5 
REMARK    4  A    between atoms: C_8  and  C_6 
REMARK    5  A    between atoms: C_9  and  C_7 
REMARK    6  A    between atoms: C_10  and  C_8 
REMARK    7  A    between atoms: C_11  and  C_9 
REMARK    8  A    between atoms: C_12  and  C_10 
REMARK    9  A    between atoms: C_13  and  C_11 
REMARK   10  A    between atoms: C_14  and  C_12 
REMARK   11  A    between atoms: C_15  and  C_13 
REMARK   12  A    between atoms: C_16  and  C_14 
REMARK   13  A    between atoms: C_17  and  C_15 
REMARK   14  A    between atoms: C_28  and  C_16 
REMARK   15  A    between atoms: C_18  and  C_17 
REMARK   16  A    between atoms: C_19  and  C_18 
REMARK   17  A    between atoms: C_20  and  C_19 
REMARK   18  A    between atoms: C_21  and  C_20 
REMARK   19  A    between atoms: C_22  and  C_21 
REMARK   20  A    between atoms: C_23  and  C_22 
REMARK   21  A    between atoms: C_24  and  C_23 
REMARK   22  A    between atoms: C_25  and  C_24 
REMARK   23  A    between atoms: C_26  and  C_25 
REMARK   24  A    between atoms: C_27  and  C_26 
REMARK   25  A    between atoms: C_29  and  C_27 
REMARK   26  A    between atoms: C_30  and  C_28 
REMARK   27  A    between atoms: C_31  and  C_29 
REMARK   28  A    between atoms: C_32  and  C_30 
REMARK   29  A    between atoms: C_33  and  C_31 
REMARK   30  A    between atoms: C_34  and  C_32 
REMARK   31  A    between atoms: C_35  and  C_33 
REMARK   32  A    between atoms: C_36  and  C_34 
REMARK   33  A    between atoms: C_37  and  C_35 
REMARK   34  A    between atoms: C_38  and  C_36 
REMARK   35  A    between atoms: C_39  and  C_37 
REMARK   36  A    between atoms: C_43  and  C_38 
REMARK   37  A    between atoms: C_45  and  C_39 
REMARK   38  A    between atoms: C_44  and  C_40 
REMARK   39  A    between atoms: O_53  and  C_40 
REMARK   40  A    between atoms: C_42  and  C_41 
REMARK   41  A    between atoms: O_60  and  C_41 
REMARK   42  A    between atoms: C_46  and  C_42 
REMARK   43  A    between atoms: C_42  and  N_51 
REMARK   44  A    between atoms: C_46  and  C_43 
REMARK   45  A    between atoms: C_43  and  O_54 
REMARK   46  A    between atoms: C_45  and  O_55 
REMARK   47  A    between atoms: C_46  and  O_56 
REMARK   48  A    between atoms: C_48  and  O_58 
REMARK   49  A    between atoms: C_49  and  O_59 
REMARK   50  A    between atoms: C_50  and  O_60 
ROOT
HETATM    1  C   UNK N   1      35.318  13.172  11.797  0.00  0.00     0.179 C 
HETATM    2  C   UNK N   1      36.799  13.541  11.546  0.00  0.00     0.180 C 
HETATM    3  C   UNK N   1      36.839  14.653  10.489  0.00  0.00     0.183 C 
HETATM    4  C   UNK N   1      36.043  14.232   9.247  0.00  0.00     0.204 C 
HETATM    5  C   UNK N   1      34.613  13.816   9.662  0.00  0.00     0.291 C 
HETATM    6  O   UNK N   1      37.516  12.425  11.099  0.00  0.00    -0.390 OA
HETATM    7  O   UNK N   1      34.694  12.734  10.592  0.00  0.00    -0.348 OA
HETATM    8  H   UNK N   1      38.099  11.744  10.729  0.00  0.00     0.210 HD
ENDROOT
BRANCH   1   9
HETATM    9  C   UNK N   1      35.175  12.097  12.872  0.00  0.00     0.198 C 
BRANCH   9  10
HETATM   10  O   UNK N   1      35.535  10.838  12.388  0.00  0.00    -0.398 OA
HETATM   11  H   UNK N   1      35.985   9.998  12.209  0.00  0.00     0.209 HD
ENDBRANCH   9  10
ENDBRANCH   1   9
BRANCH   3  12
HETATM   12  O   UNK N   1      38.159  14.964  10.147  0.00  0.00    -0.390 OA
HETATM   13  H   UNK N   1      38.913  14.359  10.061  0.00  0.00     0.210 HD
ENDBRANCH   3  12
BRANCH   4  14
HETATM   14  O   UNK N   1      36.674  13.163   8.599  0.00  0.00    -0.388 OA
HETATM   15  H   UNK N   1      37.123  12.327   8.400  0.00  0.00     0.210 HD
ENDBRANCH   4  14
BRANCH   5  16
HETATM   16  O   UNK N   1      33.915  13.468   8.478  0.00  0.00    -0.356 OA
BRANCH  16  17
HETATM   17  C   UNK N   1      32.668  14.118   8.382  0.00  0.00     0.199 C 
BRANCH  17  18
HETATM   18  C   UNK N   1      32.912  15.541   7.874  0.00  0.00     0.138 C 
BRANCH  18  19
HETATM   19  C   UNK N   1      33.194  15.681   6.363  0.00  0.00     0.171 C 
BRANCH  19  20
HETATM   20  C   UNK N   1      33.011  17.058   5.724  0.00  0.00     0.149 C 
BRANCH  20  21
HETATM   21  C   UNK N   1      32.788  16.982   4.210  0.00  0.00     0.034 C 
BRANCH  21  22
HETATM   22  C   UNK N   1      31.317  17.103   3.800  0.00  0.00     0.002 C 
BRANCH  22  23
HETATM   23  C   UNK N   1      30.340  17.169   4.977  0.00  0.00     0.000 C 
BRANCH  23  24
HETATM   24  C   UNK N   1      29.707  15.801   5.244  0.00  0.00     0.000 C 
BRANCH  24  25
HETATM   25  C   UNK N   1      28.184  15.789   5.191  0.00  0.00     0.000 C 
BRANCH  25  26
HETATM   26  C   UNK N   1      27.617  16.351   3.894  0.00  0.00     0.000 C 
BRANCH  26  27
HETATM   27  C   UNK N   1      26.108  16.533   4.002  0.00  0.00     0.000 C 
BRANCH  27  28
HETATM   28  C   UNK N   1      25.671  16.570   5.457  0.00  0.00     0.000 C 
BRANCH  28  29
HETATM   29  C   UNK N   1      24.232  16.112   5.605  0.00  0.00     0.000 C 
BRANCH  29  30
HETATM   30  C   UNK N   1      24.191  14.903   6.518  0.00  0.00     0.000 C 
BRANCH  30  31
HETATM   31  C   UNK N   1      23.637  13.697   5.786  0.00  0.00     0.000 C 
BRANCH  31  32
HETATM   32  C   UNK N   1      23.270  14.098   4.371  0.00  0.00    -0.000 C 
BRANCH  32  33
HETATM   33  C   UNK N   1      24.072  13.268   3.390  0.00  0.00    -0.005 C 
HETATM   34  C   UNK N   1      23.965  13.879   2.009  0.00  0.00     0.005 C 
ENDBRANCH  32  33
ENDBRANCH  31  32
ENDBRANCH  30  31
ENDBRANCH  29  30
ENDBRANCH  28  29
ENDBRANCH  27  28
ENDBRANCH  26  27
ENDBRANCH  25  26
ENDBRANCH  24  25
ENDBRANCH  23  24
ENDBRANCH  22  23
ENDBRANCH  21  22
ENDBRANCH  20  21
BRANCH  20  35
HETATM   35  O   UNK N   1      34.079  17.906   6.029  0.00  0.00    -0.393 OA
HETATM   36  H   UNK N   1      34.192  18.587   6.709  0.00  0.00     0.210 HD
ENDBRANCH  20  35
ENDBRANCH  19  20
BRANCH  19  37
HETATM   37  O   UNK N   1      34.470  15.193   6.050  0.00  0.00    -0.391 OA
HETATM   38  H   UNK N   1      35.162  14.683   6.497  0.00  0.00     0.210 HD
ENDBRANCH  19  37
ENDBRANCH  18  19
BRANCH  18  39
HETATM   39  N   UNK N   1      31.735  16.350   8.141  0.00  0.00    -0.365 N 
HETATM   40  C   UNK N   1      31.762  17.531   8.658  0.00  0.00     0.111 C 
ATOM     41  HN  UNK N   1      30.825  15.956   7.904  1.00  0.00     0.161 HD
BRANCH  40  42
HETATM   42  C   UNK N   1      30.498  18.337   8.777  0.00  0.00     0.083 C 
BRANCH  42  43
HETATM   43  C   UNK N   1      29.258  17.465   8.986  0.00  0.00     0.008 C 
BRANCH  43  44
HETATM   44  C   UNK N   1      28.124  17.838   8.041  0.00  0.00     0.000 C 
BRANCH  44  45
HETATM   45  C   UNK N   1      28.297  19.240   7.487  0.00  0.00     0.000 C 
BRANCH  45  46
HETATM   46  C   UNK N   1      27.383  19.420   6.288  0.00  0.00     0.000 C 
BRANCH  46  47
HETATM   47  C   UNK N   1      28.123  20.077   5.139  0.00  0.00     0.000 C 
BRANCH  47  48
HETATM   48  C   UNK N   1      27.330  19.977   3.841  0.00  0.00     0.000 C 
BRANCH  48  49
HETATM   49  C   UNK N   1      25.845  20.234   4.056  0.00  0.00     0.000 C 
BRANCH  49  50
HETATM   50  C   UNK N   1      25.129  20.450   2.735  0.00  0.00     0.000 C 
BRANCH  50  51
HETATM   51  C   UNK N   1      23.629  20.383   2.955  0.00  0.00     0.000 C 
BRANCH  51  52
HETATM   52  C   UNK N   1      23.246  19.141   3.744  0.00  0.00     0.000 C 
BRANCH  52  53
HETATM   53  C   UNK N   1      21.761  19.121   4.053  0.00  0.00     0.000 C 
BRANCH  53  54
HETATM   54  C   UNK N   1      20.946  19.220   2.774  0.00  0.00     0.000 C 
BRANCH  54  55
HETATM   55  C   UNK N   1      19.915  18.102   2.698  0.00  0.00     0.000 C 
BRANCH  55  56
HETATM   56  C   UNK N   1      20.543  16.752   2.374  0.00  0.00     0.000 C 
BRANCH  56  57
HETATM   57  C   UNK N   1      20.036  15.685   3.331  0.00  0.00     0.000 C 
BRANCH  57  58
HETATM   58  C   UNK N   1      19.530  16.318   4.610  0.00  0.00     0.000 C 
BRANCH  58  59
HETATM   59  C   UNK N   1      20.564  16.157   5.710  0.00  0.00     0.000 C 
BRANCH  59  60
HETATM   60  C   UNK N   1      19.867  15.804   7.011  0.00  0.00     0.000 C 
BRANCH  60  61
HETATM   61  C   UNK N   1      20.528  14.605   7.670  0.00  0.00     0.000 C 
BRANCH  61  62
HETATM   62  C   UNK N   1      20.973  14.956   9.078  0.00  0.00     0.000 C 
BRANCH  62  63
HETATM   63  C   UNK N   1      21.157  13.696   9.899  0.00  0.00     0.000 C 
BRANCH  63  64
HETATM   64  C   UNK N   1      21.955  12.682   9.105  0.00  0.00    -0.000 C 
BRANCH  64  65
HETATM   65  C   UNK N   1      22.865  11.911  10.039  0.00  0.00    -0.005 C 
HETATM   66  C   UNK N   1      24.302  12.325   9.803  0.00  0.00     0.005 C 
ENDBRANCH  64  65
ENDBRANCH  63  64
ENDBRANCH  62  63
ENDBRANCH  61  62
ENDBRANCH  60  61
ENDBRANCH  59  60
ENDBRANCH  58  59
ENDBRANCH  57  58
ENDBRANCH  56  57
ENDBRANCH  55  56
ENDBRANCH  54  55
ENDBRANCH  53  54
ENDBRANCH  52  53
ENDBRANCH  51  52
ENDBRANCH  50  51
ENDBRANCH  49  50
ENDBRANCH  48  49
ENDBRANCH  47  48
ENDBRANCH  46  47
ENDBRANCH  45  46
ENDBRANCH  44  45
ENDBRANCH  43  44
ENDBRANCH  42  43
ENDBRANCH  40  42
BRANCH  40  67
HETATM   67  O   UNK N   1      32.928  18.087   9.049  0.00  0.00    -0.350 OA
HETATM   68  H   UNK N   1      33.463  18.756   9.430  0.00  0.00     0.219 HD
ENDBRANCH  40  67
ENDBRANCH  18  39
ENDBRANCH  17  18
ENDBRANCH  16  17
ENDBRANCH   5  16
TORSDOF 50
ENDMDL
