MODEL 1
REMARK VINA RESULT:      -7.0      0.000      0.000
REMARK  12 active torsions:
REMARK  status: ('A' for Active; 'I' for Inactive)
REMARK    1  A    between atoms: O_2  and  C_3 
REMARK    2  A    between atoms: C_5  and  C_24 
REMARK    3  A    between atoms: C_6  and  C_11 
REMARK    4  A    between atoms: C_8  and  C_9 
REMARK       I    between atoms: C_11  and  N_13 
REMARK    5  A    between atoms: N_13  and  C_14 
REMARK    6  A    between atoms: C_17  and  C_20 
REMARK    7  A    between atoms: C_20  and  N_23 
REMARK    8  A    between atoms: C_27  and  C_34 
REMARK    9  A    between atoms: C_30  and  C_31 
REMARK   10  A    between atoms: C_31  and  O_33 
REMARK       I    between atoms: C_34  and  N_36 
REMARK   11  A    between atoms: N_36  and  C_37 
REMARK   12  A    between atoms: C_37  and  C_38 
ROOT
HETATM    1  C   UNK N   1      36.684  13.618  11.152  0.00  0.00     0.079 A 
HETATM    2  C   UNK N   1      36.314  13.475   9.817  0.00  0.00     0.051 A 
HETATM    3  C   UNK N   1      35.313  14.238   9.213  0.00  0.00    -0.005 A 
HETATM    4  C   UNK N   1      34.599  15.161  10.041  0.00  0.00     0.044 A 
HETATM    5  C   UNK N   1      34.930  15.286  11.394  0.00  0.00     0.032 A 
HETATM    6  C   UNK N   1      35.979  14.547  11.963  0.00  0.00    -0.003 A 
ENDROOT
BRANCH   3   7
HETATM    7  C   UNK N   1      34.981  14.016   7.742  0.00  0.00     0.009 A 
HETATM    8  C   UNK N   1      35.695  14.771   6.793  0.00  0.00     0.017 A 
HETATM    9  C   UNK N   1      35.509  14.625   5.430  0.00  0.00     0.036 A 
HETATM   10  C   UNK N   1      34.569  13.722   4.967  0.00  0.00     0.101 A 
HETATM   11  N   UNK N   1      33.816  13.036   5.872  0.00  0.00    -0.346 N 
HETATM   12  C   UNK N   1      33.967  13.138   7.224  0.00  0.00     0.118 A 
ATOM     13  HN  UNK N   1      33.095  12.408   5.516  1.00  0.00     0.166 HD
BRANCH  10  14
HETATM   14  C   UNK N   1      34.424  13.493   3.499  0.00  0.00     0.268 C 
HETATM   15  O   UNK N   1      35.136  12.650   2.966  0.00  0.00    -0.266 OA
HETATM   16  N   UNK N   1      33.517  14.147   2.727  0.00  0.00    -0.355 N 
HETATM   17  H   UNK N   1      33.519  13.960   1.760  0.00  0.00     0.162 HD
BRANCH  16  18
HETATM   18  C   UNK N   1      32.550  15.097   3.223  0.00  0.00     0.127 C 
BRANCH  18  19
HETATM   19  C   UNK N   1      33.041  16.513   2.995  0.00  0.00     0.003 A 
HETATM   20  C   UNK N   1      31.952  17.486   3.390  0.00  0.00     0.007 A 
HETATM   21  C   UNK N   1      33.102  17.222   4.332  0.00  0.00     0.007 A 
ENDBRANCH  18  19
ENDBRANCH  16  18
ENDBRANCH  10  14
BRANCH  12  22
HETATM   22  C   UNK N   1      33.087  12.247   8.032  0.00  0.00     0.194 C 
HETATM   23  O   UNK N   1      32.964  11.061   7.791  0.00  0.00    -0.645 OA
BRANCH  22  24
HETATM   24  O   UNK N   1      32.329  12.786   9.003  0.00  0.00    -0.772 OA
HETATM   25  H   UNK N   1      31.482  13.131   8.802  0.00  0.00     0.167 HD
ENDBRANCH  22  24
ENDBRANCH  12  22
ENDBRANCH   3   7
BRANCH   4  26
HETATM   26  C   UNK N   1      33.579  16.067   9.483  0.00  0.00     0.257 C 
HETATM   27  O   UNK N   1      33.942  17.138   9.011  0.00  0.00    -0.267 OA
HETATM   28  N   UNK N   1      32.263  15.720   9.441  0.00  0.00    -0.323 N 
HETATM   29  H   UNK N   1      31.932  14.985  10.006  0.00  0.00     0.169 HD
BRANCH  28  30
HETATM   30  C   UNK N   1      31.365  16.418   8.583  0.00  0.00     0.035 A 
HETATM   31  C   UNK N   1      31.196  16.023   7.256  0.00  0.00     0.030 A 
HETATM   32  C   UNK N   1      30.230  16.655   6.460  0.00  0.00     0.017 A 
HETATM   33  C   UNK N   1      29.444  17.698   6.982  0.00  0.00     0.007 A 
HETATM   34  C   UNK N   1      29.663  18.132   8.292  0.00  0.00     0.017 A 
HETATM   35  C   UNK N   1      30.612  17.497   9.084  0.00  0.00     0.030 A 
BRANCH  33  36
HETATM   36  C   UNK N   1      28.365  18.305   6.177  0.00  0.00     0.102 C 
HETATM   37  N   UNK N   1      27.368  18.874   6.751  0.00  0.00    -0.385 N 
HETATM   38  H   UNK N   1      27.224  18.761   7.719  0.00  0.00     0.157 HD
ATOM     39  HN  UNK N   1      26.722  19.444   6.205  1.00  0.00     0.157 HD
BRANCH  36  40
HETATM   40  N   UNK N   1      28.367  18.167   4.771  0.00  0.00    -0.385 N 
HETATM   41  H   UNK N   1      28.483  18.947   4.181  0.00  0.00     0.157 HD
HETATM   42  H   UNK N   1      28.250  17.274   4.372  0.00  0.00     0.157 HD
ENDBRANCH  36  40
ENDBRANCH  33  36
ENDBRANCH  28  30
ENDBRANCH   4  26
BRANCH   1  43
HETATM   43  O   UNK N   1      37.730  12.856  11.577  0.00  0.00    -0.355 OA
HETATM   44  C   UNK N   1      37.717  11.503  11.816  0.00  0.00     0.210 C 
ENDBRANCH   1  43
BRANCH   6  45
HETATM   45  C   UNK N   1      36.341  14.783  13.379  0.00  0.00     0.004 C 
HETATM   46  C   UNK N   1      36.104  13.895  14.344  0.00  0.00     0.012 C 
ENDBRANCH   6  45
TORSDOF 12
ENDMDL
MODEL 2
REMARK VINA RESULT:      -6.9      2.585      8.112
REMARK  12 active torsions:
REMARK  status: ('A' for Active; 'I' for Inactive)
REMARK    1  A    between atoms: O_2  and  C_3 
REMARK    2  A    between atoms: C_5  and  C_24 
REMARK    3  A    between atoms: C_6  and  C_11 
REMARK    4  A    between atoms: C_8  and  C_9 
REMARK       I    between atoms: C_11  and  N_13 
REMARK    5  A    between atoms: N_13  and  C_14 
REMARK    6  A    between atoms: C_17  and  C_20 
REMARK    7  A    between atoms: C_20  and  N_23 
REMARK    8  A    between atoms: C_27  and  C_34 
REMARK    9  A    between atoms: C_30  and  C_31 
REMARK   10  A    between atoms: C_31  and  O_33 
REMARK       I    between atoms: C_34  and  N_36 
REMARK   11  A    between atoms: N_36  and  C_37 
REMARK   12  A    between atoms: C_37  and  C_38 
ROOT
HETATM    1  C   UNK N   1      29.652  17.604   7.460  0.00  0.00     0.079 A 
HETATM    2  C   UNK N   1      30.762  17.306   8.247  0.00  0.00     0.051 A 
HETATM    3  C   UNK N   1      31.791  16.460   7.831  0.00  0.00    -0.005 A 
HETATM    4  C   UNK N   1      31.648  15.827   6.555  0.00  0.00     0.044 A 
HETATM    5  C   UNK N   1      30.519  16.083   5.771  0.00  0.00     0.032 A 
HETATM    6  C   UNK N   1      29.525  16.982   6.189  0.00  0.00    -0.003 A 
ENDROOT
BRANCH   3   7
HETATM    7  C   UNK N   1      32.972  16.197   8.758  0.00  0.00     0.009 A 
HETATM    8  C   UNK N   1      32.851  15.142   9.681  0.00  0.00     0.017 A 
HETATM    9  C   UNK N   1      33.872  14.784  10.544  0.00  0.00     0.036 A 
HETATM   10  C   UNK N   1      35.056  15.499  10.525  0.00  0.00     0.101 A 
HETATM   11  N   UNK N   1      35.164  16.569   9.690  0.00  0.00    -0.346 N 
HETATM   12  C   UNK N   1      34.191  16.958   8.817  0.00  0.00     0.118 A 
ATOM     13  HN  UNK N   1      36.026  17.116   9.721  1.00  0.00     0.166 HD
BRANCH  10  14
HETATM   14  C   UNK N   1      36.195  15.065  11.388  0.00  0.00     0.268 C 
HETATM   15  O   UNK N   1      36.137  15.291  12.591  0.00  0.00    -0.266 OA
HETATM   16  N   UNK N   1      37.279  14.397  10.913  0.00  0.00    -0.355 N 
HETATM   17  H   UNK N   1      38.000  14.185  11.549  0.00  0.00     0.162 HD
BRANCH  16  18
HETATM   18  C   UNK N   1      37.449  13.977   9.543  0.00  0.00     0.127 C 
BRANCH  18  19
HETATM   19  C   UNK N   1      36.921  12.570   9.355  0.00  0.00     0.003 A 
HETATM   20  C   UNK N   1      35.839  12.581   8.297  0.00  0.00     0.007 A 
HETATM   21  C   UNK N   1      37.233  12.123   7.942  0.00  0.00     0.007 A 
ENDBRANCH  18  19
ENDBRANCH  16  18
ENDBRANCH  10  14
BRANCH  12  22
HETATM   22  C   UNK N   1      34.542  18.114   7.945  0.00  0.00     0.194 C 
HETATM   23  O   UNK N   1      34.444  18.070   6.734  0.00  0.00    -0.645 OA
BRANCH  22  24
HETATM   24  O   UNK N   1      35.073  19.215   8.506  0.00  0.00    -0.772 OA
HETATM   25  H   UNK N   1      35.079  19.311   9.438  0.00  0.00     0.167 HD
ENDBRANCH  22  24
ENDBRANCH  12  22
ENDBRANCH   3   7
BRANCH   4  26
HETATM   26  C   UNK N   1      32.714  14.979   5.992  0.00  0.00     0.257 C 
HETATM   27  O   UNK N   1      32.633  13.764   6.135  0.00  0.00    -0.267 OA
HETATM   28  N   UNK N   1      33.751  15.510   5.288  0.00  0.00    -0.323 N 
HETATM   29  H   UNK N   1      33.949  16.472   5.357  0.00  0.00     0.169 HD
BRANCH  28  30
HETATM   30  C   UNK N   1      34.549  14.678   4.450  0.00  0.00     0.035 A 
HETATM   31  C   UNK N   1      34.195  14.459   3.119  0.00  0.00     0.030 A 
HETATM   32  C   UNK N   1      35.049  13.726   2.284  0.00  0.00     0.017 A 
HETATM   33  C   UNK N   1      36.250  13.190   2.782  0.00  0.00     0.007 A 
HETATM   34  C   UNK N   1      36.568  13.358   4.132  0.00  0.00     0.017 A 
HETATM   35  C   UNK N   1      35.727  14.097   4.956  0.00  0.00     0.030 A 
BRANCH  33  36
HETATM   36  C   UNK N   1      37.196  12.495   1.885  0.00  0.00     0.102 C 
HETATM   37  N   UNK N   1      37.104  12.632   0.613  0.00  0.00    -0.385 N 
HETATM   38  H   UNK N   1      36.306  13.055   0.217  0.00  0.00     0.157 HD
ATOM     39  HN  UNK N   1      37.857  12.303   0.008  1.00  0.00     0.157 HD
BRANCH  36  40
HETATM   40  N   UNK N   1      38.140  11.589   2.417  0.00  0.00    -0.385 N 
HETATM   41  H   UNK N   1      39.094  11.647   2.179  0.00  0.00     0.157 HD
HETATM   42  H   UNK N   1      37.839  10.886   3.037  0.00  0.00     0.157 HD
ENDBRANCH  36  40
ENDBRANCH  33  36
ENDBRANCH  28  30
ENDBRANCH   4  26
BRANCH   1  43
HETATM   43  O   UNK N   1      28.768  18.506   7.973  0.00  0.00    -0.355 OA
HETATM   44  C   UNK N   1      27.993  18.349   9.096  0.00  0.00     0.210 C 
ENDBRANCH   1  43
BRANCH   6  45
HETATM   45  C   UNK N   1      28.395  17.279   5.281  0.00  0.00     0.004 C 
HETATM   46  C   UNK N   1      28.319  18.400   4.564  0.00  0.00     0.012 C 
ENDBRANCH   6  45
TORSDOF 12
ENDMDL
MODEL 3
REMARK VINA RESULT:      -6.5      3.549      7.826
REMARK  12 active torsions:
REMARK  status: ('A' for Active; 'I' for Inactive)
REMARK    1  A    between atoms: O_2  and  C_3 
REMARK    2  A    between atoms: C_5  and  C_24 
REMARK    3  A    between atoms: C_6  and  C_11 
REMARK    4  A    between atoms: C_8  and  C_9 
REMARK       I    between atoms: C_11  and  N_13 
REMARK    5  A    between atoms: N_13  and  C_14 
REMARK    6  A    between atoms: C_17  and  C_20 
REMARK    7  A    between atoms: C_20  and  N_23 
REMARK    8  A    between atoms: C_27  and  C_34 
REMARK    9  A    between atoms: C_30  and  C_31 
REMARK   10  A    between atoms: C_31  and  O_33 
REMARK       I    between atoms: C_34  and  N_36 
REMARK   11  A    between atoms: N_36  and  C_37 
REMARK   12  A    between atoms: C_37  and  C_38 
ROOT
HETATM    1  C   UNK N   1      31.193  11.930   1.648  0.00  0.00     0.079 A 
HETATM    2  C   UNK N   1      31.682  12.695   2.704  0.00  0.00     0.051 A 
HETATM    3  C   UNK N   1      30.963  13.735   3.295  0.00  0.00    -0.005 A 
HETATM    4  C   UNK N   1      29.688  14.057   2.730  0.00  0.00     0.044 A 
HETATM    5  C   UNK N   1      29.200  13.326   1.643  0.00  0.00     0.032 A 
HETATM    6  C   UNK N   1      29.920  12.248   1.103  0.00  0.00    -0.003 A 
ENDROOT
BRANCH   3   7
HETATM    7  C   UNK N   1      31.577  14.514   4.452  0.00  0.00     0.009 A 
HETATM    8  C   UNK N   1      31.380  14.011   5.752  0.00  0.00     0.017 A 
HETATM    9  C   UNK N   1      31.924  14.609   6.874  0.00  0.00     0.036 A 
HETATM   10  C   UNK N   1      32.674  15.762   6.731  0.00  0.00     0.101 A 
HETATM   11  N   UNK N   1      32.815  16.304   5.490  0.00  0.00    -0.346 N 
HETATM   12  C   UNK N   1      32.305  15.749   4.352  0.00  0.00     0.118 A 
ATOM     13  HN  UNK N   1      33.332  17.180   5.406  1.00  0.00     0.166 HD
BRANCH  10  14
HETATM   14  C   UNK N   1      33.340  16.364   7.925  0.00  0.00     0.268 C 
HETATM   15  O   UNK N   1      34.480  16.008   8.200  0.00  0.00    -0.266 OA
HETATM   16  N   UNK N   1      32.760  17.316   8.702  0.00  0.00    -0.355 N 
HETATM   17  H   UNK N   1      33.259  17.627   9.492  0.00  0.00     0.162 HD
BRANCH  16  18
HETATM   18  C   UNK N   1      31.465  17.902   8.453  0.00  0.00     0.127 C 
BRANCH  18  19
HETATM   19  C   UNK N   1      30.449  17.370   9.443  0.00  0.00     0.003 A 
HETATM   20  C   UNK N   1      29.482  18.476   9.806  0.00  0.00     0.007 A 
HETATM   21  C   UNK N   1      29.078  17.424   8.801  0.00  0.00     0.007 A 
ENDBRANCH  18  19
ENDBRANCH  16  18
ENDBRANCH  10  14
BRANCH  12  22
HETATM   22  C   UNK N   1      32.634  16.470   3.089  0.00  0.00     0.194 C 
HETATM   23  O   UNK N   1      33.593  16.174   2.402  0.00  0.00    -0.645 OA
BRANCH  22  24
HETATM   24  O   UNK N   1      31.902  17.543   2.743  0.00  0.00    -0.772 OA
HETATM   25  H   UNK N   1      31.664  18.178   3.388  0.00  0.00     0.167 HD
ENDBRANCH  22  24
ENDBRANCH  12  22
ENDBRANCH   3   7
BRANCH   4  26
HETATM   26  C   UNK N   1      28.817  15.085   3.330  0.00  0.00     0.257 C 
HETATM   27  O   UNK N   1      27.923  14.725   4.088  0.00  0.00    -0.267 OA
HETATM   28  N   UNK N   1      29.014  16.411   3.097  0.00  0.00    -0.323 N 
HETATM   29  H   UNK N   1      29.566  16.698   2.333  0.00  0.00     0.169 HD
BRANCH  28  30
HETATM   30  C   UNK N   1      28.424  17.385   3.953  0.00  0.00     0.035 A 
HETATM   31  C   UNK N   1      29.085  17.815   5.105  0.00  0.00     0.030 A 
HETATM   32  C   UNK N   1      28.538  18.850   5.876  0.00  0.00     0.017 A 
HETATM   33  C   UNK N   1      27.316  19.444   5.511  0.00  0.00     0.007 A 
HETATM   34  C   UNK N   1      26.628  18.965   4.394  0.00  0.00     0.017 A 
HETATM   35  C   UNK N   1      27.178  17.948   3.622  0.00  0.00     0.030 A 
BRANCH  33  36
HETATM   36  C   UNK N   1      26.781  20.594   6.268  0.00  0.00     0.102 C 
HETATM   37  N   UNK N   1      26.672  21.744   5.709  0.00  0.00    -0.385 N 
HETATM   38  H   UNK N   1      27.099  21.914   4.838  0.00  0.00     0.157 HD
ATOM     39  HN  UNK N   1      26.141  22.485   6.167  1.00  0.00     0.157 HD
BRANCH  36  40
HETATM   40  N   UNK N   1      26.489  20.463   7.644  0.00  0.00    -0.385 N 
HETATM   41  H   UNK N   1      26.448  21.250   8.234  0.00  0.00     0.157 HD
HETATM   42  H   UNK N   1      26.324  19.568   8.019  0.00  0.00     0.157 HD
ENDBRANCH  36  40
ENDBRANCH  33  36
ENDBRANCH  28  30
ENDBRANCH   4  26
BRANCH   1  43
HETATM   43  O   UNK N   1      31.981  10.902   1.227  0.00  0.00    -0.355 OA
HETATM   44  C   UNK N   1      33.105  10.995   0.443  0.00  0.00     0.210 C 
ENDBRANCH   1  43
BRANCH   6  45
HETATM   45  C   UNK N   1      29.317  11.456   0.008  0.00  0.00     0.004 C 
HETATM   46  C   UNK N   1      29.813  11.437  -1.230  0.00  0.00     0.012 C 
ENDBRANCH   6  45
TORSDOF 12
ENDMDL
MODEL 4
REMARK VINA RESULT:      -6.4      5.650     10.797
REMARK  12 active torsions:
REMARK  status: ('A' for Active; 'I' for Inactive)
REMARK    1  A    between atoms: O_2  and  C_3 
REMARK    2  A    between atoms: C_5  and  C_24 
REMARK    3  A    between atoms: C_6  and  C_11 
REMARK    4  A    between atoms: C_8  and  C_9 
REMARK       I    between atoms: C_11  and  N_13 
REMARK    5  A    between atoms: N_13  and  C_14 
REMARK    6  A    between atoms: C_17  and  C_20 
REMARK    7  A    between atoms: C_20  and  N_23 
REMARK    8  A    between atoms: C_27  and  C_34 
REMARK    9  A    between atoms: C_30  and  C_31 
REMARK   10  A    between atoms: C_31  and  O_33 
REMARK       I    between atoms: C_34  and  N_36 
REMARK   11  A    between atoms: N_36  and  C_37 
REMARK   12  A    between atoms: C_37  and  C_38 
ROOT
HETATM    1  C   UNK N   1      36.564  14.094  10.374  0.00  0.00     0.079 A 
HETATM    2  C   UNK N   1      36.802  12.826  10.897  0.00  0.00     0.051 A 
HETATM    3  C   UNK N   1      36.438  12.448  12.190  0.00  0.00    -0.005 A 
HETATM    4  C   UNK N   1      35.851  13.450  13.027  0.00  0.00     0.044 A 
HETATM    5  C   UNK N   1      35.643  14.741  12.532  0.00  0.00     0.032 A 
HETATM    6  C   UNK N   1      35.967  15.078  11.208  0.00  0.00    -0.003 A 
ENDROOT
BRANCH   3   7
HETATM    7  C   UNK N   1      36.734  11.034  12.674  0.00  0.00     0.009 A 
HETATM    8  C   UNK N   1      37.993  10.794  13.255  0.00  0.00     0.017 A 
HETATM    9  C   UNK N   1      38.357   9.562  13.767  0.00  0.00     0.036 A 
HETATM   10  C   UNK N   1      37.466   8.507  13.690  0.00  0.00     0.101 A 
HETATM   11  N   UNK N   1      36.271   8.699  13.066  0.00  0.00    -0.346 N 
HETATM   12  C   UNK N   1      35.863   9.896  12.552  0.00  0.00     0.118 A 
ATOM     13  HN  UNK N   1      35.644   7.900  12.975  1.00  0.00     0.166 HD
BRANCH  10  14
HETATM   14  C   UNK N   1      37.814   7.198  14.319  0.00  0.00     0.268 C 
HETATM   15  O   UNK N   1      38.448   6.382  13.660  0.00  0.00    -0.266 OA
HETATM   16  N   UNK N   1      37.497   6.878  15.602  0.00  0.00    -0.355 N 
HETATM   17  H   UNK N   1      37.733   5.976  15.919  0.00  0.00     0.162 HD
BRANCH  16  18
HETATM   18  C   UNK N   1      36.838   7.765  16.530  0.00  0.00     0.127 C 
BRANCH  18  19
HETATM   19  C   UNK N   1      35.388   7.360  16.703  0.00  0.00     0.003 A 
HETATM   20  C   UNK N   1      35.327   5.973  17.304  0.00  0.00     0.007 A 
HETATM   21  C   UNK N   1      35.111   7.183  18.181  0.00  0.00     0.007 A 
ENDBRANCH  18  19
ENDBRANCH  16  18
ENDBRANCH  10  14
BRANCH  12  22
HETATM   22  C   UNK N   1      34.490   9.905  11.972  0.00  0.00     0.194 C 
HETATM   23  O   UNK N   1      34.258   9.523  10.841  0.00  0.00    -0.645 OA
BRANCH  22  24
HETATM   24  O   UNK N   1      33.484  10.439  12.688  0.00  0.00    -0.772 OA
HETATM   25  H   UNK N   1      32.743   9.916  12.920  0.00  0.00     0.167 HD
ENDBRANCH  22  24
ENDBRANCH  12  22
ENDBRANCH   3   7
BRANCH   4  26
HETATM   26  C   UNK N   1      35.361  13.132  14.381  0.00  0.00     0.257 C 
HETATM   27  O   UNK N   1      34.272  12.580  14.494  0.00  0.00    -0.267 OA
HETATM   28  N   UNK N   1      36.106  13.396  15.489  0.00  0.00    -0.323 N 
HETATM   29  H   UNK N   1      36.859  14.027  15.435  0.00  0.00     0.169 HD
BRANCH  28  30
HETATM   30  C   UNK N   1      35.798  12.760  16.727  0.00  0.00     0.035 A 
HETATM   31  C   UNK N   1      36.011  11.391  16.897  0.00  0.00     0.030 A 
HETATM   32  C   UNK N   1      35.804  10.806  18.154  0.00  0.00     0.017 A 
HETATM   33  C   UNK N   1      35.361  11.583  19.240  0.00  0.00     0.007 A 
HETATM   34  C   UNK N   1      35.088  12.939  19.047  0.00  0.00     0.017 A 
HETATM   35  C   UNK N   1      35.307  13.521  17.804  0.00  0.00     0.030 A 
BRANCH  33  36
HETATM   36  C   UNK N   1      35.229  10.990  20.587  0.00  0.00     0.102 C 
HETATM   37  N   UNK N   1      34.092  10.983  21.183  0.00  0.00    -0.385 N 
HETATM   38  H   UNK N   1      33.345  11.519  20.831  0.00  0.00     0.157 HD
ATOM     39  HN  UNK N   1      33.962  10.420  22.024  1.00  0.00     0.157 HD
BRANCH  36  40
HETATM   40  N   UNK N   1      36.373  10.526  21.272  0.00  0.00    -0.385 N 
HETATM   41  H   UNK N   1      36.398  10.485  22.256  0.00  0.00     0.157 HD
HETATM   42  H   UNK N   1      37.161  10.237  20.757  0.00  0.00     0.157 HD
ENDBRANCH  36  40
ENDBRANCH  33  36
ENDBRANCH  28  30
ENDBRANCH   4  26
BRANCH   1  43
HETATM   43  O   UNK N   1      36.908  14.290   9.071  0.00  0.00    -0.355 OA
HETATM   44  C   UNK N   1      36.440  13.593   7.984  0.00  0.00     0.210 C 
ENDBRANCH   1  43
BRANCH   6  45
HETATM   45  C   UNK N   1      35.647  16.435  10.712  0.00  0.00     0.004 C 
HETATM   46  C   UNK N   1      34.653  16.678   9.857  0.00  0.00     0.012 C 
ENDBRANCH   6  45
TORSDOF 12
ENDMDL
MODEL 5
REMARK VINA RESULT:      -6.4      2.833      7.725
REMARK  12 active torsions:
REMARK  status: ('A' for Active; 'I' for Inactive)
REMARK    1  A    between atoms: O_2  and  C_3 
REMARK    2  A    between atoms: C_5  and  C_24 
REMARK    3  A    between atoms: C_6  and  C_11 
REMARK    4  A    between atoms: C_8  and  C_9 
REMARK       I    between atoms: C_11  and  N_13 
REMARK    5  A    between atoms: N_13  and  C_14 
REMARK    6  A    between atoms: C_17  and  C_20 
REMARK    7  A    between atoms: C_20  and  N_23 
REMARK    8  A    between atoms: C_27  and  C_34 
REMARK    9  A    between atoms: C_30  and  C_31 
REMARK   10  A    between atoms: C_31  and  O_33 
REMARK       I    between atoms: C_34  and  N_36 
REMARK   11  A    between atoms: N_36  and  C_37 
REMARK   12  A    between atoms: C_37  and  C_38 
ROOT
HETATM    1  C   UNK N   1      27.660  18.442   4.849  0.00  0.00     0.079 A 
HETATM    2  C   UNK N   1      28.532  17.394   4.565  0.00  0.00     0.051 A 
HETATM    3  C   UNK N   1      29.539  16.976   5.437  0.00  0.00    -0.005 A 
HETATM    4  C   UNK N   1      29.707  17.717   6.650  0.00  0.00     0.044 A 
HETATM    5  C   UNK N   1      28.867  18.799   6.931  0.00  0.00     0.032 A 
HETATM    6  C   UNK N   1      27.826  19.163   6.062  0.00  0.00    -0.003 A 
ENDROOT
BRANCH   3   7
HETATM    7  C   UNK N   1      30.442  15.814   5.044  0.00  0.00     0.009 A 
HETATM    8  C   UNK N   1      30.079  14.529   5.488  0.00  0.00     0.017 A 
HETATM    9  C   UNK N   1      30.799  13.394   5.159  0.00  0.00     0.036 A 
HETATM   10  C   UNK N   1      31.937  13.515   4.382  0.00  0.00     0.101 A 
HETATM   11  N   UNK N   1      32.345  14.758   4.004  0.00  0.00    -0.346 N 
HETATM   12  C   UNK N   1      31.667  15.906   4.296  0.00  0.00     0.118 A 
ATOM     13  HN  UNK N   1      33.211  14.836   3.471  1.00  0.00     0.166 HD
BRANCH  10  14
HETATM   14  C   UNK N   1      32.668  12.289   3.947  0.00  0.00     0.268 C 
HETATM   15  O   UNK N   1      32.322  11.738   2.909  0.00  0.00    -0.266 OA
HETATM   16  N   UNK N   1      33.726  11.770   4.626  0.00  0.00    -0.355 N 
HETATM   17  H   UNK N   1      34.122  10.935   4.286  0.00  0.00     0.162 HD
BRANCH  16  18
HETATM   18  C   UNK N   1      34.308  12.355   5.810  0.00  0.00     0.127 C 
BRANCH  18  19
HETATM   19  C   UNK N   1      35.532  13.169   5.446  0.00  0.00     0.003 A 
HETATM   20  C   UNK N   1      35.328  14.601   5.892  0.00  0.00     0.007 A 
HETATM   21  C   UNK N   1      36.176  13.668   6.723  0.00  0.00     0.007 A 
ENDBRANCH  18  19
ENDBRANCH  16  18
ENDBRANCH  10  14
BRANCH  12  22
HETATM   22  C   UNK N   1      32.251  17.153   3.727  0.00  0.00     0.194 C 
HETATM   23  O   UNK N   1      32.960  17.897   4.378  0.00  0.00    -0.645 OA
BRANCH  22  24
HETATM   24  O   UNK N   1      31.910  17.521   2.479  0.00  0.00    -0.772 OA
HETATM   25  H   UNK N   1      31.050  17.847   2.303  0.00  0.00     0.167 HD
ENDBRANCH  22  24
ENDBRANCH  12  22
ENDBRANCH   3   7
BRANCH   4  26
HETATM   26  C   UNK N   1      30.689  17.309   7.672  0.00  0.00     0.257 C 
HETATM   27  O   UNK N   1      30.277  16.956   8.771  0.00  0.00    -0.267 OA
HETATM   28  N   UNK N   1      32.023  17.274   7.405  0.00  0.00    -0.323 N 
HETATM   29  H   UNK N   1      32.381  17.758   6.626  0.00  0.00     0.169 HD
BRANCH  28  30
HETATM   30  C   UNK N   1      32.904  16.539   8.250  0.00  0.00     0.035 A 
HETATM   31  C   UNK N   1      33.905  17.190   8.973  0.00  0.00     0.030 A 
HETATM   32  C   UNK N   1      34.691  16.465   9.880  0.00  0.00     0.017 A 
HETATM   33  C   UNK N   1      34.494  15.083  10.051  0.00  0.00     0.007 A 
HETATM   34  C   UNK N   1      33.534  14.426   9.277  0.00  0.00     0.017 A 
HETATM   35  C   UNK N   1      32.747  15.148   8.388  0.00  0.00     0.030 A 
BRANCH  33  36
HETATM   36  C   UNK N   1      35.257  14.333  11.070  0.00  0.00     0.102 C 
HETATM   37  N   UNK N   1      34.673  13.457  11.803  0.00  0.00    -0.385 N 
HETATM   38  H   UNK N   1      33.689  13.399  11.817  0.00  0.00     0.157 HD
ATOM     39  HN  UNK N   1      35.227  12.818  12.374  1.00  0.00     0.157 HD
BRANCH  36  40
HETATM   40  N   UNK N   1      36.611  14.652  11.318  0.00  0.00    -0.385 N 
HETATM   41  H   UNK N   1      37.331  14.011  11.118  0.00  0.00     0.157 HD
HETATM   42  H   UNK N   1      36.838  15.532  11.698  0.00  0.00     0.157 HD
ENDBRANCH  36  40
ENDBRANCH  33  36
ENDBRANCH  28  30
ENDBRANCH   4  26
BRANCH   1  43
HETATM   43  O   UNK N   1      26.682  18.684   3.932  0.00  0.00    -0.355 OA
HETATM   44  C   UNK N   1      25.745  17.789   3.474  0.00  0.00     0.210 C 
ENDBRANCH   1  43
BRANCH   6  45
HETATM   45  C   UNK N   1      26.915  20.262   6.451  0.00  0.00     0.004 C 
HETATM   46  C   UNK N   1      27.107  21.528   6.080  0.00  0.00     0.012 C 
ENDBRANCH   6  45
TORSDOF 12
ENDMDL
MODEL 6
REMARK VINA RESULT:      -6.4      1.545      2.100
REMARK  12 active torsions:
REMARK  status: ('A' for Active; 'I' for Inactive)
REMARK    1  A    between atoms: O_2  and  C_3 
REMARK    2  A    between atoms: C_5  and  C_24 
REMARK    3  A    between atoms: C_6  and  C_11 
REMARK    4  A    between atoms: C_8  and  C_9 
REMARK       I    between atoms: C_11  and  N_13 
REMARK    5  A    between atoms: N_13  and  C_14 
REMARK    6  A    between atoms: C_17  and  C_20 
REMARK    7  A    between atoms: C_20  and  N_23 
REMARK    8  A    between atoms: C_27  and  C_34 
REMARK    9  A    between atoms: C_30  and  C_31 
REMARK   10  A    between atoms: C_31  and  O_33 
REMARK       I    between atoms: C_34  and  N_36 
REMARK   11  A    between atoms: N_36  and  C_37 
REMARK   12  A    between atoms: C_37  and  C_38 
ROOT
HETATM    1  C   UNK N   1      36.311  13.998  10.143  0.00  0.00     0.079 A 
HETATM    2  C   UNK N   1      35.809  14.120   8.850  0.00  0.00     0.051 A 
HETATM    3  C   UNK N   1      34.705  14.911   8.527  0.00  0.00    -0.005 A 
HETATM    4  C   UNK N   1      34.030  15.569   9.603  0.00  0.00     0.044 A 
HETATM    5  C   UNK N   1      34.495  15.422  10.914  0.00  0.00     0.032 A 
HETATM    6  C   UNK N   1      35.642  14.666  11.204  0.00  0.00    -0.003 A 
ENDROOT
BRANCH   3   7
HETATM    7  C   UNK N   1      34.232  14.990   7.080  0.00  0.00     0.009 A 
HETATM    8  C   UNK N   1      34.411  16.210   6.403  0.00  0.00     0.017 A 
HETATM    9  C   UNK N   1      34.059  16.387   5.077  0.00  0.00     0.036 A 
HETATM   10  C   UNK N   1      33.485  15.338   4.383  0.00  0.00     0.101 A 
HETATM   11  N   UNK N   1      33.236  14.172   5.042  0.00  0.00    -0.346 N 
HETATM   12  C   UNK N   1      33.571  13.946   6.346  0.00  0.00     0.118 A 
ATOM     13  HN  UNK N   1      32.769  13.422   4.530  1.00  0.00     0.166 HD
BRANCH  10  14
HETATM   14  C   UNK N   1      33.184  15.490   2.928  0.00  0.00     0.268 C 
HETATM   15  O   UNK N   1      33.984  15.041   2.116  0.00  0.00    -0.266 OA
HETATM   16  N   UNK N   1      32.048  16.068   2.457  0.00  0.00    -0.355 N 
HETATM   17  H   UNK N   1      31.953  16.160   1.481  0.00  0.00     0.162 HD
BRANCH  16  18
HETATM   18  C   UNK N   1      30.972  16.559   3.285  0.00  0.00     0.127 C 
BRANCH  18  19
HETATM   19  C   UNK N   1      29.636  16.105   2.733  0.00  0.00     0.003 A 
HETATM   20  C   UNK N   1      28.828  15.472   3.845  0.00  0.00     0.007 A 
HETATM   21  C   UNK N   1      28.540  16.892   3.420  0.00  0.00     0.007 A 
ENDBRANCH  18  19
ENDBRANCH  16  18
ENDBRANCH  10  14
BRANCH  12  22
HETATM   22  C   UNK N   1      33.271  12.576   6.852  0.00  0.00     0.194 C 
HETATM   23  O   UNK N   1      33.491  11.577   6.194  0.00  0.00    -0.645 OA
BRANCH  22  24
HETATM   24  O   UNK N   1      32.652  12.441   8.038  0.00  0.00    -0.772 OA
HETATM   25  H   UNK N   1      32.450  13.198   8.551  0.00  0.00     0.167 HD
ENDBRANCH  22  24
ENDBRANCH  12  22
ENDBRANCH   3   7
BRANCH   4  26
HETATM   26  C   UNK N   1      32.903  16.488   9.359  0.00  0.00     0.257 C 
HETATM   27  O   UNK N   1      33.150  17.647   9.049  0.00  0.00    -0.267 OA
HETATM   28  N   UNK N   1      31.611  16.065   9.425  0.00  0.00    -0.323 N 
HETATM   29  H   UNK N   1      31.394  15.221   9.883  0.00  0.00     0.169 HD
BRANCH  28  30
HETATM   30  C   UNK N   1      30.571  16.840   8.835  0.00  0.00     0.035 A 
HETATM   31  C   UNK N   1      29.718  17.609   9.628  0.00  0.00     0.030 A 
HETATM   32  C   UNK N   1      28.772  18.447   9.021  0.00  0.00     0.017 A 
HETATM   33  C   UNK N   1      28.661  18.504   7.620  0.00  0.00     0.007 A 
HETATM   34  C   UNK N   1      29.474  17.683   6.834  0.00  0.00     0.017 A 
HETATM   35  C   UNK N   1      30.420  16.862   7.436  0.00  0.00     0.030 A 
BRANCH  33  36
HETATM   36  C   UNK N   1      27.729  19.451   6.975  0.00  0.00     0.102 C 
HETATM   37  N   UNK N   1      27.809  19.684   5.716  0.00  0.00    -0.385 N 
HETATM   38  H   UNK N   1      28.590  19.372   5.203  0.00  0.00     0.157 HD
ATOM     39  HN  UNK N   1      27.061  20.192   5.243  1.00  0.00     0.157 HD
BRANCH  36  40
HETATM   40  N   UNK N   1      26.815  20.190   7.759  0.00  0.00    -0.385 N 
HETATM   41  H   UNK N   1      27.062  20.525   8.651  0.00  0.00     0.157 HD
HETATM   42  H   UNK N   1      25.915  20.375   7.406  0.00  0.00     0.157 HD
ENDBRANCH  36  40
ENDBRANCH  33  36
ENDBRANCH  28  30
ENDBRANCH   4  26
BRANCH   1  43
HETATM   43  O   UNK N   1      37.440  13.250  10.289  0.00  0.00    -0.355 OA
HETATM   44  C   UNK N   1      38.689  13.541   9.796  0.00  0.00     0.210 C 
ENDBRANCH   1  43
BRANCH   6  45
HETATM   45  C   UNK N   1      36.137  14.616  12.597  0.00  0.00     0.004 C 
HETATM   46  C   UNK N   1      35.760  13.679  13.467  0.00  0.00     0.012 C 
ENDBRANCH   6  45
TORSDOF 12
ENDMDL
MODEL 7
REMARK VINA RESULT:      -6.4      2.509      6.978
REMARK  12 active torsions:
REMARK  status: ('A' for Active; 'I' for Inactive)
REMARK    1  A    between atoms: O_2  and  C_3 
REMARK    2  A    between atoms: C_5  and  C_24 
REMARK    3  A    between atoms: C_6  and  C_11 
REMARK    4  A    between atoms: C_8  and  C_9 
REMARK       I    between atoms: C_11  and  N_13 
REMARK    5  A    between atoms: N_13  and  C_14 
REMARK    6  A    between atoms: C_17  and  C_20 
REMARK    7  A    between atoms: C_20  and  N_23 
REMARK    8  A    between atoms: C_27  and  C_34 
REMARK    9  A    between atoms: C_30  and  C_31 
REMARK   10  A    between atoms: C_31  and  O_33 
REMARK       I    between atoms: C_34  and  N_36 
REMARK   11  A    between atoms: N_36  and  C_37 
REMARK   12  A    between atoms: C_37  and  C_38 
ROOT
HETATM    1  C   UNK N   1      29.041  17.586   5.864  0.00  0.00     0.079 A 
HETATM    2  C   UNK N   1      29.932  16.902   5.041  0.00  0.00     0.051 A 
HETATM    3  C   UNK N   1      31.125  16.342   5.502  0.00  0.00    -0.005 A 
HETATM    4  C   UNK N   1      31.461  16.549   6.877  0.00  0.00     0.044 A 
HETATM    5  C   UNK N   1      30.597  17.270   7.707  0.00  0.00     0.032 A 
HETATM    6  C   UNK N   1      29.376  17.775   7.232  0.00  0.00    -0.003 A 
ENDROOT
BRANCH   3   7
HETATM    7  C   UNK N   1      32.036  15.603   4.528  0.00  0.00     0.009 A 
HETATM    8  C   UNK N   1      32.818  16.379   3.654  0.00  0.00     0.017 A 
HETATM    9  C   UNK N   1      33.712  15.822   2.757  0.00  0.00     0.036 A 
HETATM   10  C   UNK N   1      33.833  14.446   2.689  0.00  0.00     0.101 A 
HETATM   11  N   UNK N   1      33.031  13.676   3.475  0.00  0.00    -0.346 N 
HETATM   12  C   UNK N   1      32.141  14.177   4.380  0.00  0.00     0.118 A 
ATOM     13  HN  UNK N   1      33.098  12.662   3.381  1.00  0.00     0.166 HD
BRANCH  10  14
HETATM   14  C   UNK N   1      34.858  13.838   1.789  0.00  0.00     0.268 C 
HETATM   15  O   UNK N   1      34.844  14.137   0.601  0.00  0.00    -0.266 OA
HETATM   16  N   UNK N   1      35.830  12.995   2.226  0.00  0.00    -0.355 N 
HETATM   17  H   UNK N   1      36.439  12.611   1.554  0.00  0.00     0.162 HD
BRANCH  16  18
HETATM   18  C   UNK N   1      36.033  12.622   3.605  0.00  0.00     0.127 C 
BRANCH  18  19
HETATM   19  C   UNK N   1      36.949  13.617   4.289  0.00  0.00     0.003 A 
HETATM   20  C   UNK N   1      36.196  14.296   5.412  0.00  0.00     0.007 A 
HETATM   21  C   UNK N   1      37.157  13.174   5.722  0.00  0.00     0.007 A 
ENDBRANCH  18  19
ENDBRANCH  16  18
ENDBRANCH  10  14
BRANCH  12  22
HETATM   22  C   UNK N   1      31.412  13.158   5.188  0.00  0.00     0.194 C 
HETATM   23  O   UNK N   1      30.233  12.913   5.016  0.00  0.00    -0.645 OA
BRANCH  22  24
HETATM   24  O   UNK N   1      32.052  12.554   6.205  0.00  0.00    -0.772 OA
HETATM   25  H   UNK N   1      31.936  11.637   6.354  0.00  0.00     0.167 HD
ENDBRANCH  22  24
ENDBRANCH  12  22
ENDBRANCH   3   7
BRANCH   4  26
HETATM   26  C   UNK N   1      32.658  15.933   7.478  0.00  0.00     0.257 C 
HETATM   27  O   UNK N   1      33.738  16.497   7.342  0.00  0.00    -0.267 OA
HETATM   28  N   UNK N   1      32.579  14.788   8.210  0.00  0.00    -0.323 N 
HETATM   29  H   UNK N   1      31.782  14.214   8.140  0.00  0.00     0.169 HD
BRANCH  28  30
HETATM   30  C   UNK N   1      33.648  14.417   9.078  0.00  0.00     0.035 A 
HETATM   31  C   UNK N   1      34.600  13.480   8.674  0.00  0.00     0.030 A 
HETATM   32  C   UNK N   1      35.701  13.209   9.498  0.00  0.00     0.017 A 
HETATM   33  C   UNK N   1      35.843  13.857  10.739  0.00  0.00     0.007 A 
HETATM   34  C   UNK N   1      34.852  14.745  11.165  0.00  0.00     0.017 A 
HETATM   35  C   UNK N   1      33.768  15.023  10.342  0.00  0.00     0.030 A 
BRANCH  33  36
HETATM   36  C   UNK N   1      37.046  13.643  11.569  0.00  0.00     0.102 C 
HETATM   37  N   UNK N   1      38.172  13.366  11.020  0.00  0.00    -0.385 N 
HETATM   38  H   UNK N   1      38.212  13.124  10.065  0.00  0.00     0.157 HD
ATOM     39  HN  UNK N   1      39.030  13.397  11.571  1.00  0.00     0.157 HD
BRANCH  36  40
HETATM   40  N   UNK N   1      36.942  13.633  12.977  0.00  0.00    -0.385 N 
HETATM   41  H   UNK N   1      37.220  14.409  13.515  0.00  0.00     0.157 HD
HETATM   42  H   UNK N   1      36.584  12.835  13.430  0.00  0.00     0.157 HD
ENDBRANCH  36  40
ENDBRANCH  33  36
ENDBRANCH  28  30
ENDBRANCH   4  26
BRANCH   1  43
HETATM   43  O   UNK N   1      27.883  18.010   5.285  0.00  0.00    -0.355 OA
HETATM   44  C   UNK N   1      27.611  18.075   3.940  0.00  0.00     0.210 C 
ENDBRANCH   1  43
BRANCH   6  45
HETATM   45  C   UNK N   1      28.463  18.456   8.175  0.00  0.00     0.004 C 
HETATM   46  C   UNK N   1      28.132  17.944   9.361  0.00  0.00     0.012 C 
ENDBRANCH   6  45
TORSDOF 12
ENDMDL
MODEL 8
REMARK VINA RESULT:      -6.4      6.637     10.795
REMARK  12 active torsions:
REMARK  status: ('A' for Active; 'I' for Inactive)
REMARK    1  A    between atoms: O_2  and  C_3 
REMARK    2  A    between atoms: C_5  and  C_24 
REMARK    3  A    between atoms: C_6  and  C_11 
REMARK    4  A    between atoms: C_8  and  C_9 
REMARK       I    between atoms: C_11  and  N_13 
REMARK    5  A    between atoms: N_13  and  C_14 
REMARK    6  A    between atoms: C_17  and  C_20 
REMARK    7  A    between atoms: C_20  and  N_23 
REMARK    8  A    between atoms: C_27  and  C_34 
REMARK    9  A    between atoms: C_30  and  C_31 
REMARK   10  A    between atoms: C_31  and  O_33 
REMARK       I    between atoms: C_34  and  N_36 
REMARK   11  A    between atoms: N_36  and  C_37 
REMARK   12  A    between atoms: C_37  and  C_38 
ROOT
HETATM    1  C   UNK N   1      22.673  13.383   8.241  0.00  0.00     0.079 A 
HETATM    2  C   UNK N   1      22.374  14.362   7.298  0.00  0.00     0.051 A 
HETATM    3  C   UNK N   1      23.347  15.040   6.561  0.00  0.00    -0.005 A 
HETATM    4  C   UNK N   1      24.717  14.744   6.852  0.00  0.00     0.044 A 
HETATM    5  C   UNK N   1      25.035  13.794   7.827  0.00  0.00     0.032 A 
HETATM    6  C   UNK N   1      24.036  13.086   8.514  0.00  0.00    -0.003 A 
ENDROOT
BRANCH   3   7
HETATM    7  C   UNK N   1      22.925  16.093   5.543  0.00  0.00     0.009 A 
HETATM    8  C   UNK N   1      22.472  17.330   6.037  0.00  0.00     0.017 A 
HETATM    9  C   UNK N   1      22.102  18.374   5.209  0.00  0.00     0.036 A 
HETATM   10  C   UNK N   1      22.152  18.202   3.837  0.00  0.00     0.101 A 
HETATM   11  N   UNK N   1      22.518  16.987   3.341  0.00  0.00    -0.346 N 
HETATM   12  C   UNK N   1      22.898  15.930   4.115  0.00  0.00     0.118 A 
ATOM     13  HN  UNK N   1      22.505  16.860   2.328  1.00  0.00     0.166 HD
BRANCH  10  14
HETATM   14  C   UNK N   1      21.841  19.351   2.936  0.00  0.00     0.268 C 
HETATM   15  O   UNK N   1      20.766  19.359   2.348  0.00  0.00    -0.266 OA
HETATM   16  N   UNK N   1      22.675  20.410   2.761  0.00  0.00    -0.355 N 
HETATM   17  H   UNK N   1      22.405  21.103   2.116  0.00  0.00     0.162 HD
BRANCH  16  18
HETATM   18  C   UNK N   1      23.930  20.589   3.452  0.00  0.00     0.127 C 
BRANCH  18  19
HETATM   19  C   UNK N   1      25.073  20.057   2.612  0.00  0.00     0.003 A 
HETATM   20  C   UNK N   1      26.384  20.372   3.299  0.00  0.00     0.007 A 
HETATM   21  C   UNK N   1      25.794  18.986   3.403  0.00  0.00     0.007 A 
ENDBRANCH  18  19
ENDBRANCH  16  18
ENDBRANCH  10  14
BRANCH  12  22
HETATM   22  C   UNK N   1      23.326  14.714   3.366  0.00  0.00     0.194 C 
HETATM   23  O   UNK N   1      22.673  13.689   3.361  0.00  0.00    -0.645 OA
BRANCH  22  24
HETATM   24  O   UNK N   1      24.521  14.717   2.749  0.00  0.00    -0.772 OA
HETATM   25  H   UNK N   1      24.923  15.527   2.506  0.00  0.00     0.167 HD
ENDBRANCH  22  24
ENDBRANCH  12  22
ENDBRANCH   3   7
BRANCH   4  26
HETATM   26  C   UNK N   1      25.816  15.348   6.076  0.00  0.00     0.257 C 
HETATM   27  O   UNK N   1      26.187  16.479   6.369  0.00  0.00    -0.267 OA
HETATM   28  N   UNK N   1      26.448  14.663   5.084  0.00  0.00    -0.323 N 
HETATM   29  H   UNK N   1      26.026  13.864   4.693  0.00  0.00     0.169 HD
BRANCH  28  30
HETATM   30  C   UNK N   1      27.719  15.099   4.609  0.00  0.00     0.035 A 
HETATM   31  C   UNK N   1      27.819  15.877   3.455  0.00  0.00     0.030 A 
HETATM   32  C   UNK N   1      29.066  16.385   3.065  0.00  0.00     0.017 A 
HETATM   33  C   UNK N   1      30.221  16.099   3.814  0.00  0.00     0.007 A 
HETATM   34  C   UNK N   1      30.124  15.266   4.932  0.00  0.00     0.017 A 
HETATM   35  C   UNK N   1      28.886  14.774   5.325  0.00  0.00     0.030 A 
BRANCH  33  36
HETATM   36  C   UNK N   1      31.520  16.705   3.459  0.00  0.00     0.102 C 
HETATM   37  N   UNK N   1      31.757  17.937   3.729  0.00  0.00    -0.385 N 
HETATM   38  H   UNK N   1      31.024  18.531   4.014  0.00  0.00     0.157 HD
ATOM     39  HN  UNK N   1      32.706  18.303   3.650  1.00  0.00     0.157 HD
BRANCH  36  40
HETATM   40  N   UNK N   1      32.470  15.964   2.721  0.00  0.00    -0.385 N 
HETATM   41  H   UNK N   1      33.410  16.251   2.666  0.00  0.00     0.157 HD
HETATM   42  H   UNK N   1      32.187  15.145   2.254  0.00  0.00     0.157 HD
ENDBRANCH  36  40
ENDBRANCH  33  36
ENDBRANCH  28  30
ENDBRANCH   4  26
BRANCH   1  43
HETATM   43  O   UNK N   1      21.613  12.758   8.825  0.00  0.00    -0.355 OA
HETATM   44  C   UNK N   1      20.997  13.109  10.002  0.00  0.00     0.210 C 
ENDBRANCH   1  43
BRANCH   6  45
HETATM   45  C   UNK N   1      24.431  12.032   9.473  0.00  0.00     0.004 C 
HETATM   46  C   UNK N   1      24.670  12.277  10.762  0.00  0.00     0.012 C 
ENDBRANCH   6  45
TORSDOF 12
ENDMDL
MODEL 9
REMARK VINA RESULT:      -6.4      3.490      7.421
REMARK  12 active torsions:
REMARK  status: ('A' for Active; 'I' for Inactive)
REMARK    1  A    between atoms: O_2  and  C_3 
REMARK    2  A    between atoms: C_5  and  C_24 
REMARK    3  A    between atoms: C_6  and  C_11 
REMARK    4  A    between atoms: C_8  and  C_9 
REMARK       I    between atoms: C_11  and  N_13 
REMARK    5  A    between atoms: N_13  and  C_14 
REMARK    6  A    between atoms: C_17  and  C_20 
REMARK    7  A    between atoms: C_20  and  N_23 
REMARK    8  A    between atoms: C_27  and  C_34 
REMARK    9  A    between atoms: C_30  and  C_31 
REMARK   10  A    between atoms: C_31  and  O_33 
REMARK       I    between atoms: C_34  and  N_36 
REMARK   11  A    between atoms: N_36  and  C_37 
REMARK   12  A    between atoms: C_37  and  C_38 
ROOT
HETATM    1  C   UNK N   1      35.521  12.448  13.872  0.00  0.00     0.079 A 
HETATM    2  C   UNK N   1      35.058  13.341  12.909  0.00  0.00     0.051 A 
HETATM    3  C   UNK N   1      35.744  13.615  11.724  0.00  0.00    -0.005 A 
HETATM    4  C   UNK N   1      37.016  12.986  11.541  0.00  0.00     0.044 A 
HETATM    5  C   UNK N   1      37.515  12.119  12.518  0.00  0.00     0.032 A 
HETATM    6  C   UNK N   1      36.778  11.817  13.674  0.00  0.00    -0.003 A 
ENDROOT
BRANCH   3   7
HETATM    7  C   UNK N   1      35.156  14.602  10.723  0.00  0.00     0.009 A 
HETATM    8  C   UNK N   1      35.383  15.972  10.951  0.00  0.00     0.017 A 
HETATM    9  C   UNK N   1      34.935  16.957  10.089  0.00  0.00     0.036 A 
HETATM   10  C   UNK N   1      34.212  16.597   8.967  0.00  0.00     0.101 A 
HETATM   11  N   UNK N   1      33.918  15.282   8.768  0.00  0.00    -0.346 N 
HETATM   12  C   UNK N   1      34.344  14.273   9.584  0.00  0.00     0.118 A 
ATOM     13  HN  UNK N   1      33.344  15.036   7.961  1.00  0.00     0.166 HD
BRANCH  10  14
HETATM   14  C   UNK N   1      33.801  17.644   7.985  0.00  0.00     0.268 C 
HETATM   15  O   UNK N   1      34.654  18.117   7.243  0.00  0.00    -0.266 OA
HETATM   16  N   UNK N   1      32.519  18.075   7.845  0.00  0.00    -0.355 N 
HETATM   17  H   UNK N   1      32.348  18.797   7.198  0.00  0.00     0.162 HD
BRANCH  16  18
HETATM   18  C   UNK N   1      31.393  17.550   8.578  0.00  0.00     0.127 C 
BRANCH  18  19
HETATM   19  C   UNK N   1      30.494  18.679   9.039  0.00  0.00     0.003 A 
HETATM   20  C   UNK N   1      29.154  18.564   8.345  0.00  0.00     0.007 A 
HETATM   21  C   UNK N   1      29.308  18.083   9.768  0.00  0.00     0.007 A 
ENDBRANCH  18  19
ENDBRANCH  16  18
ENDBRANCH  10  14
BRANCH  12  22
HETATM   22  C   UNK N   1      33.969  12.899   9.145  0.00  0.00     0.194 C 
HETATM   23  O   UNK N   1      34.775  12.126   8.666  0.00  0.00    -0.645 OA
BRANCH  22  24
HETATM   24  O   UNK N   1      32.676  12.530   9.195  0.00  0.00    -0.772 OA
HETATM   25  H   UNK N   1      32.440  11.630   9.090  0.00  0.00     0.167 HD
ENDBRANCH  22  24
ENDBRANCH  12  22
ENDBRANCH   3   7
BRANCH   4  26
HETATM   26  C   UNK N   1      37.783  13.148  10.291  0.00  0.00     0.257 C 
HETATM   27  O   UNK N   1      38.380  14.202  10.104  0.00  0.00    -0.267 OA
HETATM   28  N   UNK N   1      37.874  12.145   9.375  0.00  0.00    -0.323 N 
HETATM   29  H   UNK N   1      37.233  11.398   9.400  0.00  0.00     0.169 HD
BRANCH  28  30
HETATM   30  C   UNK N   1      38.895  12.174   8.381  0.00  0.00     0.035 A 
HETATM   31  C   UNK N   1      38.598  12.539   7.067  0.00  0.00     0.030 A 
HETATM   32  C   UNK N   1      39.634  12.664   6.130  0.00  0.00     0.017 A 
HETATM   33  C   UNK N   1      40.966  12.404   6.498  0.00  0.00     0.007 A 
HETATM   34  C   UNK N   1      41.248  11.976   7.798  0.00  0.00     0.017 A 
HETATM   35  C   UNK N   1      40.223  11.865   8.729  0.00  0.00     0.030 A 
BRANCH  33  36
HETATM   36  C   UNK N   1      42.069  12.622   5.540  0.00  0.00     0.102 C 
HETATM   37  N   UNK N   1      42.352  11.730   4.662  0.00  0.00    -0.385 N 
HETATM   38  H   UNK N   1      41.959  10.829   4.727  0.00  0.00     0.157 HD
ATOM     39  HN  UNK N   1      42.986  11.953   3.894  1.00  0.00     0.157 HD
BRANCH  36  40
HETATM   40  N   UNK N   1      42.891  13.766   5.654  0.00  0.00    -0.385 N 
HETATM   41  H   UNK N   1      43.540  14.000   4.952  0.00  0.00     0.157 HD
HETATM   42  H   UNK N   1      42.812  14.340   6.450  0.00  0.00     0.157 HD
ENDBRANCH  36  40
ENDBRANCH  33  36
ENDBRANCH  28  30
ENDBRANCH   4  26
BRANCH   1  43
HETATM   43  O   UNK N   1      34.703  12.228  14.939  0.00  0.00    -0.355 OA
HETATM   44  C   UNK N   1      34.639  12.973  16.092  0.00  0.00     0.210 C 
ENDBRANCH   1  43
BRANCH   6  45
HETATM   45  C   UNK N   1      37.317  10.828  14.634  0.00  0.00     0.004 C 
HETATM   46  C   UNK N   1      38.546  10.320  14.536  0.00  0.00     0.012 C 
ENDBRANCH   6  45
TORSDOF 12
ENDMDL
