REMARK  3 active torsions:
REMARK  status: ('A' for Active; 'I' for Inactive)
REMARK    1  A    between atoms: C_5  and  C_3 
REMARK    2  A    between atoms: C_6  and  C_4 
REMARK    3  A    between atoms: O_8  and  C_4 
ROOT
HETATM    1  C   UNK N   1       1.470  -0.347  -0.000  0.00  0.00     0.043 A 
HETATM    2  C   UNK N   1       1.828   0.994   0.000  0.00  0.00     0.038 A 
HETATM    3  C   UNK N   1       0.086  -0.359  -0.000  0.00  0.00     0.113 A 
HETATM    4  C   UNK N   1       0.636   1.692   0.000  0.00  0.00     0.077 A 
HETATM    5  O   UNK N   1      -0.377   0.863  -0.000  0.00  0.00    -0.310 OA
ENDROOT
BRANCH   4   6
HETATM    6  C   UNK N   1       0.495   3.175   0.000  0.00  0.00     0.229 C 
BRANCH   6   7
HETATM    7  O   UNK N   1      -0.857   3.522   0.000  0.00  0.00    -0.394 OA
HETATM    8  H   UNK N   1      -1.118   4.456   0.000  0.00  0.00     0.209 HD
ENDBRANCH   6   7
ENDBRANCH   4   6
BRANCH   3   9
HETATM    9  C   UNK N   1      -0.780  -1.542  -0.000  0.00  0.00     0.295 C 
HETATM   10  O   UNK N   1      -0.304  -2.665  -0.000  0.00  0.00    -0.299 OA
ENDBRANCH   3   9
TORSDOF 3
