MODEL 1
REMARK VINA RESULT:      -8.5      0.000      0.000
REMARK  11 active torsions:
REMARK  status: ('A' for Active; 'I' for Inactive)
REMARK    1  A    between atoms: C_10  and  C_3 
REMARK    2  A    between atoms: C_5  and  C_7 
REMARK       I    between atoms: C_7  and  N_9 
REMARK    3  A    between atoms: N_17  and  C_18 
REMARK    4  A    between atoms: C_18  and  C_19 
REMARK    5  A    between atoms: C_19  and  N_20 
REMARK    6  A    between atoms: N_20  and  C_21 
REMARK       I    between atoms: N_20  and  C_28 
REMARK    7  A    between atoms: C_21  and  C_22 
REMARK    8  A    between atoms: C_28  and  C_30 
REMARK    9  A    between atoms: C_30  and  C_31 
REMARK   10  A    between atoms: C_30  and  O_33 
REMARK   11  A    between atoms: C_31  and  O_32 
ROOT
HETATM    1  C   UNK N   1      20.372  14.511   8.341  0.00  0.00     0.023 C 
HETATM    2  C   UNK N   1      20.786  13.934   6.806  0.00  0.00     0.045 C 
HETATM    3  C   UNK N   1      20.905  15.236   5.659  0.00  0.00     0.224 A 
HETATM    4  C   UNK N   1      19.834  15.777   6.144  0.00  0.00     0.038 A 
HETATM    5  C   UNK N   1      21.230  16.248   6.854  0.00  0.00     0.038 A 
HETATM    6  C   UNK N   1      20.924  17.257   7.259  0.00  0.00     0.224 A 
HETATM    7  C   UNK N   1      20.717  16.187   8.557  0.00  0.00     0.045 C 
HETATM    8  N   UNK N   1      21.475  16.721   5.887  0.00  0.00     0.099 N 
ENDROOT
BRANCH   8   9
HETATM    9  C   UNK N   1      21.273  17.661   4.692  0.00  0.00     0.293 C 
BRANCH   9  10
HETATM   10  C   UNK N   1      22.505  17.675   3.772  0.00  0.00     0.156 C 
BRANCH  10  11
HETATM   11  N   UNK N   1      23.148  18.966   3.684  0.00  0.00    -0.348 N 
HETATM   12  C   UNK N   1      22.628  19.972   2.913  0.00  0.00     0.250 C 
HETATM   13  O   UNK N   1      23.170  21.079   2.934  0.00  0.00    -0.270 OA
BRANCH  11  14
HETATM   14  C   UNK N   1      24.249  19.206   4.579  0.00  0.00     0.130 C 
BRANCH  14  15
HETATM   15  C   UNK N   1      25.571  18.793   3.937  0.00  0.00     0.004 C 
HETATM   16  C   UNK N   1      26.364  17.874   4.871  0.00  0.00     0.006 C 
HETATM   17  C   UNK N   1      27.237  18.616   5.892  0.00  0.00     0.000 C 
HETATM   18  C   UNK N   1      26.825  20.077   6.062  0.00  0.00     0.000 C 
HETATM   19  C   UNK N   1      26.897  20.830   4.728  0.00  0.00     0.000 C 
HETATM   20  C   UNK N   1      26.395  20.013   3.525  0.00  0.00     0.006 C 
ENDBRANCH  14  15
ENDBRANCH  11  14
BRANCH  12  21
HETATM   21  C   UNK N   1      21.384  19.821   2.078  0.00  0.00     0.233 C 
BRANCH  21  22
HETATM   22  C   UNK N   1      20.108  20.140   2.841  0.00  0.00     0.205 C 
BRANCH  22  23
HETATM   23  O   UNK N   1      20.347  21.149   3.775  0.00  0.00    -0.398 OA
HETATM   24  H   UNK N   1      19.666  21.401   4.418  0.00  0.00     0.209 HD
ENDBRANCH  22  23
ENDBRANCH  21  22
BRANCH  21  25
HETATM   25  O   UNK N   1      21.475  20.591   0.915  0.00  0.00    -0.384 OA
HETATM   26  H   UNK N   1      20.950  21.232   0.409  0.00  0.00     0.210 HD
ENDBRANCH  21  25
ENDBRANCH  12  21
ENDBRANCH  10  11
ENDBRANCH   9  10
ENDBRANCH   8   9
BRANCH   1  27
HETATM   27  C   UNK N   1      21.040  13.697   9.385  0.00  0.00    -0.053 A 
HETATM   28  C   UNK N   1      20.311  13.062  10.395  0.00  0.00     0.007 A 
HETATM   29  C   UNK N   1      20.987  12.304  11.358  0.00  0.00     0.002 A 
HETATM   30  C   UNK N   1      22.384  12.184  11.308  0.00  0.00     0.017 A 
HETATM   31  C   UNK N   1      23.108  12.826  10.292  0.00  0.00     0.032 A 
HETATM   32  C   UNK N   1      22.425  13.570   9.347  0.00  0.00     0.024 A 
BRANCH  31  33
HETATM   33  C   UNK N   1      24.576  12.731  10.195  0.00  0.00     0.249 C 
HETATM   34  O   UNK N   1      25.172  13.318   9.308  0.00  0.00    -0.268 OA
HETATM   35  N   UNK N   1      25.271  11.996  11.090  0.00  0.00    -0.366 N 
HETATM   36  H   UNK N   1      26.240  12.133  11.193  0.00  0.00     0.159 HD
HETATM   37  H   UNK N   1      24.808  11.322  11.638  0.00  0.00     0.159 HD
ENDBRANCH  31  33
ENDBRANCH   1  27
TORSDOF 11
ENDMDL
MODEL 2
REMARK VINA RESULT:      -8.5      6.066     11.078
REMARK  11 active torsions:
REMARK  status: ('A' for Active; 'I' for Inactive)
REMARK    1  A    between atoms: C_10  and  C_3 
REMARK    2  A    between atoms: C_5  and  C_7 
REMARK       I    between atoms: C_7  and  N_9 
REMARK    3  A    between atoms: N_17  and  C_18 
REMARK    4  A    between atoms: C_18  and  C_19 
REMARK    5  A    between atoms: C_19  and  N_20 
REMARK    6  A    between atoms: N_20  and  C_21 
REMARK       I    between atoms: N_20  and  C_28 
REMARK    7  A    between atoms: C_21  and  C_22 
REMARK    8  A    between atoms: C_28  and  C_30 
REMARK    9  A    between atoms: C_30  and  C_31 
REMARK   10  A    between atoms: C_30  and  O_33 
REMARK   11  A    between atoms: C_31  and  O_32 
ROOT
HETATM    1  C   UNK N   1      27.058  18.413   6.195  0.00  0.00     0.023 C 
HETATM    2  C   UNK N   1      27.794  19.432   7.327  0.00  0.00     0.045 C 
HETATM    3  C   UNK N   1      29.110  18.628   8.129  0.00  0.00     0.224 A 
HETATM    4  C   UNK N   1      28.403  17.549   8.235  0.00  0.00     0.038 A 
HETATM    5  C   UNK N   1      29.284  17.667   6.863  0.00  0.00     0.038 A 
HETATM    6  C   UNK N   1      29.398  16.575   6.596  0.00  0.00     0.224 A 
HETATM    7  C   UNK N   1      28.066  17.107   5.694  0.00  0.00     0.045 C 
HETATM    8  N   UNK N   1      30.173  17.590   7.515  0.00  0.00     0.099 N 
ENDROOT
BRANCH   8   9
HETATM    9  C   UNK N   1      31.099  16.950   8.556  0.00  0.00     0.293 C 
BRANCH   9  10
HETATM   10  C   UNK N   1      32.533  17.490   8.441  0.00  0.00     0.156 C 
BRANCH  10  11
HETATM   11  N   UNK N   1      33.484  16.514   7.958  0.00  0.00    -0.348 N 
HETATM   12  C   UNK N   1      34.573  16.147   8.703  0.00  0.00     0.250 C 
HETATM   13  O   UNK N   1      35.309  15.254   8.281  0.00  0.00    -0.270 OA
BRANCH  11  14
HETATM   14  C   UNK N   1      33.139  15.815   6.748  0.00  0.00     0.130 C 
BRANCH  14  15
HETATM   15  C   UNK N   1      33.860  16.418   5.547  0.00  0.00     0.004 C 
HETATM   16  C   UNK N   1      33.026  17.539   4.919  0.00  0.00     0.006 C 
HETATM   17  C   UNK N   1      31.991  17.054   3.894  0.00  0.00     0.000 C 
HETATM   18  C   UNK N   1      31.703  15.560   4.016  0.00  0.00     0.000 C 
HETATM   19  C   UNK N   1      32.982  14.734   3.837  0.00  0.00     0.000 C 
HETATM   20  C   UNK N   1      34.218  15.347   4.517  0.00  0.00     0.006 C 
ENDBRANCH  14  15
ENDBRANCH  11  14
BRANCH  12  21
HETATM   21  C   UNK N   1      34.894  16.737  10.051  0.00  0.00     0.233 C 
BRANCH  21  22
HETATM   22  C   UNK N   1      35.662  15.783  10.953  0.00  0.00     0.205 C 
BRANCH  22  23
HETATM   23  O   UNK N   1      37.032  16.023  10.851  0.00  0.00    -0.398 OA
HETATM   24  H   UNK N   1      37.508  15.838  10.027  0.00  0.00     0.209 HD
ENDBRANCH  22  23
ENDBRANCH  21  22
BRANCH  21  25
HETATM   25  O   UNK N   1      35.579  17.948   9.909  0.00  0.00    -0.384 OA
HETATM   26  H   UNK N   1      36.170  18.527  10.416  0.00  0.00     0.210 HD
ENDBRANCH  21  25
ENDBRANCH  12  21
ENDBRANCH  10  11
ENDBRANCH   9  10
ENDBRANCH   8   9
BRANCH   1  27
HETATM   27  C   UNK N   1      26.597  19.203   5.027  0.00  0.00    -0.053 A 
HETATM   28  C   UNK N   1      27.492  19.935   4.241  0.00  0.00     0.007 A 
HETATM   29  C   UNK N   1      27.010  20.665   3.148  0.00  0.00     0.002 A 
HETATM   30  C   UNK N   1      25.639  20.660   2.848  0.00  0.00     0.017 A 
HETATM   31  C   UNK N   1      24.748  19.925   3.643  0.00  0.00     0.032 A 
HETATM   32  C   UNK N   1      25.241  19.208   4.718  0.00  0.00     0.024 A 
BRANCH  31  33
HETATM   33  C   UNK N   1      23.300  19.887   3.370  0.00  0.00     0.249 C 
HETATM   34  O   UNK N   1      22.743  20.848   2.867  0.00  0.00    -0.268 OA
HETATM   35  N   UNK N   1      22.579  18.785   3.674  0.00  0.00    -0.366 N 
HETATM   36  H   UNK N   1      21.693  18.649   3.268  0.00  0.00     0.159 HD
HETATM   37  H   UNK N   1      22.941  18.118   4.301  0.00  0.00     0.159 HD
ENDBRANCH  31  33
ENDBRANCH   1  27
TORSDOF 11
ENDMDL
MODEL 3
REMARK VINA RESULT:      -8.2      3.636      6.809
REMARK  11 active torsions:
REMARK  status: ('A' for Active; 'I' for Inactive)
REMARK    1  A    between atoms: C_10  and  C_3 
REMARK    2  A    between atoms: C_5  and  C_7 
REMARK       I    between atoms: C_7  and  N_9 
REMARK    3  A    between atoms: N_17  and  C_18 
REMARK    4  A    between atoms: C_18  and  C_19 
REMARK    5  A    between atoms: C_19  and  N_20 
REMARK    6  A    between atoms: N_20  and  C_21 
REMARK       I    between atoms: N_20  and  C_28 
REMARK    7  A    between atoms: C_21  and  C_22 
REMARK    8  A    between atoms: C_28  and  C_30 
REMARK    9  A    between atoms: C_30  and  C_31 
REMARK   10  A    between atoms: C_30  and  O_33 
REMARK   11  A    between atoms: C_31  and  O_32 
ROOT
HETATM    1  C   UNK N   1      28.166  18.733   4.611  0.00  0.00     0.023 C 
HETATM    2  C   UNK N   1      27.323  20.014   5.322  0.00  0.00     0.045 C 
HETATM    3  C   UNK N   1      25.715  20.142   4.673  0.00  0.00     0.224 A 
HETATM    4  C   UNK N   1      26.168  19.933   3.479  0.00  0.00     0.038 A 
HETATM    5  C   UNK N   1      25.748  18.586   4.306  0.00  0.00     0.038 A 
HETATM    6  C   UNK N   1      25.530  17.879   3.453  0.00  0.00     0.224 A 
HETATM    7  C   UNK N   1      27.135  17.553   3.889  0.00  0.00     0.045 C 
HETATM    8  N   UNK N   1      24.711  18.962   4.246  0.00  0.00     0.099 N 
ENDROOT
BRANCH   8   9
HETATM    9  C   UNK N   1      23.431  19.446   3.555  0.00  0.00     0.293 C 
BRANCH   9  10
HETATM   10  C   UNK N   1      22.174  18.888   4.242  0.00  0.00     0.156 C 
BRANCH  10  11
HETATM   11  N   UNK N   1      21.588  17.761   3.551  0.00  0.00    -0.348 N 
HETATM   12  C   UNK N   1      20.448  17.895   2.804  0.00  0.00     0.250 C 
HETATM   13  O   UNK N   1      20.033  16.922   2.171  0.00  0.00    -0.270 OA
BRANCH  11  14
HETATM   14  C   UNK N   1      22.352  16.541   3.534  0.00  0.00     0.130 C 
BRANCH  14  15
HETATM   15  C   UNK N   1      22.148  15.753   4.824  0.00  0.00     0.004 C 
HETATM   16  C   UNK N   1      23.374  15.873   5.733  0.00  0.00     0.006 C 
HETATM   17  C   UNK N   1      24.481  14.853   5.435  0.00  0.00     0.000 C 
HETATM   18  C   UNK N   1      24.337  14.221   4.052  0.00  0.00     0.000 C 
HETATM   19  C   UNK N   1      22.981  13.519   3.905  0.00  0.00     0.000 C 
HETATM   20  C   UNK N   1      21.810  14.290   4.536  0.00  0.00     0.006 C 
ENDBRANCH  14  15
ENDBRANCH  11  14
BRANCH  12  21
HETATM   21  C   UNK N   1      19.695  19.191   2.662  0.00  0.00     0.233 C 
BRANCH  21  22
HETATM   22  C   UNK N   1      20.286  20.114   1.607  0.00  0.00     0.205 C 
BRANCH  22  23
HETATM   23  O   UNK N   1      20.606  19.388   0.459  0.00  0.00    -0.398 OA
HETATM   24  H   UNK N   1      21.150  18.587   0.513  0.00  0.00     0.209 HD
ENDBRANCH  22  23
ENDBRANCH  21  22
BRANCH  21  25
HETATM   25  O   UNK N   1      18.341  18.951   2.412  0.00  0.00    -0.384 OA
HETATM   26  H   UNK N   1      17.773  18.281   2.000  0.00  0.00     0.210 HD
ENDBRANCH  21  25
ENDBRANCH  12  21
ENDBRANCH  10  11
ENDBRANCH   9  10
ENDBRANCH   8   9
BRANCH   1  27
HETATM   27  C   UNK N   1      29.069  18.106   5.607  0.00  0.00    -0.053 A 
HETATM   28  C   UNK N   1      30.242  17.452   5.220  0.00  0.00     0.007 A 
HETATM   29  C   UNK N   1      31.062  16.875   6.197  0.00  0.00     0.002 A 
HETATM   30  C   UNK N   1      30.706  16.955   7.552  0.00  0.00     0.017 A 
HETATM   31  C   UNK N   1      29.526  17.611   7.931  0.00  0.00     0.032 A 
HETATM   32  C   UNK N   1      28.728  18.176   6.954  0.00  0.00     0.024 A 
BRANCH  31  33
HETATM   33  C   UNK N   1      29.107  17.723   9.340  0.00  0.00     0.249 C 
HETATM   34  O   UNK N   1      28.139  17.103   9.745  0.00  0.00    -0.268 OA
HETATM   35  N   UNK N   1      29.796  18.511  10.194  0.00  0.00    -0.366 N 
HETATM   36  H   UNK N   1      29.692  18.394  11.165  0.00  0.00     0.159 HD
HETATM   37  H   UNK N   1      30.402  19.204   9.844  0.00  0.00     0.159 HD
ENDBRANCH  31  33
ENDBRANCH   1  27
TORSDOF 11
ENDMDL
MODEL 4
REMARK VINA RESULT:      -7.9      1.951      2.691
REMARK  11 active torsions:
REMARK  status: ('A' for Active; 'I' for Inactive)
REMARK    1  A    between atoms: C_10  and  C_3 
REMARK    2  A    between atoms: C_5  and  C_7 
REMARK       I    between atoms: C_7  and  N_9 
REMARK    3  A    between atoms: N_17  and  C_18 
REMARK    4  A    between atoms: C_18  and  C_19 
REMARK    5  A    between atoms: C_19  and  N_20 
REMARK    6  A    between atoms: N_20  and  C_21 
REMARK       I    between atoms: N_20  and  C_28 
REMARK    7  A    between atoms: C_21  and  C_22 
REMARK    8  A    between atoms: C_28  and  C_30 
REMARK    9  A    between atoms: C_30  and  C_31 
REMARK   10  A    between atoms: C_30  and  O_33 
REMARK   11  A    between atoms: C_31  and  O_32 
ROOT
HETATM    1  C   UNK N   1      23.642  13.278   7.271  0.00  0.00     0.023 C 
HETATM    2  C   UNK N   1      24.594  14.672   7.167  0.00  0.00     0.045 C 
HETATM    3  C   UNK N   1      24.066  15.695   5.864  0.00  0.00     0.224 A 
HETATM    4  C   UNK N   1      23.918  14.663   5.098  0.00  0.00     0.038 A 
HETATM    5  C   UNK N   1      22.600  15.067   5.977  0.00  0.00     0.038 A 
HETATM    6  C   UNK N   1      21.781  14.625   5.336  0.00  0.00     0.224 A 
HETATM    7  C   UNK N   1      22.104  13.443   6.507  0.00  0.00     0.045 C 
HETATM    8  N   UNK N   1      22.567  15.987   5.366  0.00  0.00     0.099 N 
ENDROOT
BRANCH   8   9
HETATM    9  C   UNK N   1      22.483  16.815   4.079  0.00  0.00     0.293 C 
BRANCH   9  10
HETATM   10  C   UNK N   1      22.044  18.260   4.366  0.00  0.00     0.156 C 
BRANCH  10  11
HETATM   11  N   UNK N   1      22.862  19.256   3.709  0.00  0.00    -0.348 N 
HETATM   12  C   UNK N   1      22.357  20.053   2.716  0.00  0.00     0.250 C 
HETATM   13  O   UNK N   1      23.071  20.939   2.243  0.00  0.00    -0.270 OA
BRANCH  11  14
HETATM   14  C   UNK N   1      24.166  19.496   4.267  0.00  0.00     0.130 C 
BRANCH  14  15
HETATM   15  C   UNK N   1      25.258  19.213   3.239  0.00  0.00     0.004 C 
HETATM   16  C   UNK N   1      25.819  17.799   3.419  0.00  0.00     0.006 C 
HETATM   17  C   UNK N   1      26.945  17.696   4.456  0.00  0.00     0.000 C 
HETATM   18  C   UNK N   1      26.989  18.901   5.393  0.00  0.00     0.000 C 
HETATM   19  C   UNK N   1      27.175  20.205   4.607  0.00  0.00     0.000 C 
HETATM   20  C   UNK N   1      26.366  20.264   3.300  0.00  0.00     0.006 C 
ENDBRANCH  14  15
ENDBRANCH  11  14
BRANCH  12  21
HETATM   21  C   UNK N   1      20.945  19.947   2.202  0.00  0.00     0.233 C 
BRANCH  21  22
HETATM   22  C   UNK N   1      20.533  21.130   1.339  0.00  0.00     0.205 C 
BRANCH  22  23
HETATM   23  O   UNK N   1      20.829  20.873  -0.000  0.00  0.00    -0.398 OA
HETATM   24  H   UNK N   1      21.619  20.366  -0.245  0.00  0.00     0.209 HD
ENDBRANCH  22  23
ENDBRANCH  21  22
BRANCH  21  25
HETATM   25  O   UNK N   1      20.757  18.742   1.519  0.00  0.00    -0.384 OA
HETATM   26  H   UNK N   1      20.189  17.956   1.548  0.00  0.00     0.210 HD
ENDBRANCH  21  25
ENDBRANCH  12  21
ENDBRANCH  10  11
ENDBRANCH   9  10
ENDBRANCH   8   9
BRANCH   1  27
HETATM   27  C   UNK N   1      23.486  12.876   8.690  0.00  0.00    -0.053 A 
HETATM   28  C   UNK N   1      24.590  12.544   9.481  0.00  0.00     0.007 A 
HETATM   29  C   UNK N   1      24.392  12.170  10.815  0.00  0.00     0.002 A 
HETATM   30  C   UNK N   1      23.096  12.129  11.351  0.00  0.00     0.017 A 
HETATM   31  C   UNK N   1      21.994  12.462  10.550  0.00  0.00     0.032 A 
HETATM   32  C   UNK N   1      22.207  12.831   9.234  0.00  0.00     0.024 A 
BRANCH  31  33
HETATM   33  C   UNK N   1      20.613  12.436  11.064  0.00  0.00     0.249 C 
HETATM   34  O   UNK N   1      19.741  13.091  10.519  0.00  0.00    -0.268 OA
HETATM   35  N   UNK N   1      20.303  11.684  12.143  0.00  0.00    -0.366 N 
HETATM   36  H   UNK N   1      19.364  11.456  12.331  0.00  0.00     0.159 HD
HETATM   37  H   UNK N   1      21.016  11.364  12.741  0.00  0.00     0.159 HD
ENDBRANCH  31  33
ENDBRANCH   1  27
TORSDOF 11
ENDMDL
MODEL 5
REMARK VINA RESULT:      -7.9      3.154      6.824
REMARK  11 active torsions:
REMARK  status: ('A' for Active; 'I' for Inactive)
REMARK    1  A    between atoms: C_10  and  C_3 
REMARK    2  A    between atoms: C_5  and  C_7 
REMARK       I    between atoms: C_7  and  N_9 
REMARK    3  A    between atoms: N_17  and  C_18 
REMARK    4  A    between atoms: C_18  and  C_19 
REMARK    5  A    between atoms: C_19  and  N_20 
REMARK    6  A    between atoms: N_20  and  C_21 
REMARK       I    between atoms: N_20  and  C_28 
REMARK    7  A    between atoms: C_21  and  C_22 
REMARK    8  A    between atoms: C_28  and  C_30 
REMARK    9  A    between atoms: C_30  and  C_31 
REMARK   10  A    between atoms: C_30  and  O_33 
REMARK   11  A    between atoms: C_31  and  O_32 
ROOT
HETATM    1  C   UNK N   1      28.565  18.724   6.353  0.00  0.00     0.023 C 
HETATM    2  C   UNK N   1      27.476  19.966   6.719  0.00  0.00     0.045 C 
HETATM    3  C   UNK N   1      26.224  20.075   5.517  0.00  0.00     0.224 A 
HETATM    4  C   UNK N   1      27.097  19.909   4.576  0.00  0.00     0.038 A 
HETATM    5  C   UNK N   1      26.442  18.531   5.162  0.00  0.00     0.038 A 
HETATM    6  C   UNK N   1      26.582  17.843   4.276  0.00  0.00     0.224 A 
HETATM    7  C   UNK N   1      27.917  17.542   5.276  0.00  0.00     0.045 C 
HETATM    8  N   UNK N   1      25.491  18.884   4.724  0.00  0.00     0.099 N 
ENDROOT
BRANCH   8   9
HETATM    9  C   UNK N   1      24.548  19.357   3.612  0.00  0.00     0.293 C 
BRANCH   9  10
HETATM   10  C   UNK N   1      23.352  18.407   3.446  0.00  0.00     0.156 C 
BRANCH  10  11
HETATM   11  N   UNK N   1      22.152  18.863   4.113  0.00  0.00    -0.348 N 
HETATM   12  C   UNK N   1      21.340  19.813   3.552  0.00  0.00     0.250 C 
HETATM   13  O   UNK N   1      20.289  20.109   4.123  0.00  0.00    -0.270 OA
BRANCH  11  14
HETATM   14  C   UNK N   1      21.755  18.147   5.296  0.00  0.00     0.130 C 
BRANCH  14  15
HETATM   15  C   UNK N   1      21.346  16.717   4.955  0.00  0.00     0.004 C 
HETATM   16  C   UNK N   1      19.848  16.509   5.195  0.00  0.00     0.006 C 
HETATM   17  C   UNK N   1      19.488  16.132   6.639  0.00  0.00     0.000 C 
HETATM   18  C   UNK N   1      20.609  16.455   7.624  0.00  0.00     0.000 C 
HETATM   19  C   UNK N   1      21.904  15.728   7.244  0.00  0.00     0.000 C 
HETATM   20  C   UNK N   1      22.181  15.699   5.731  0.00  0.00     0.006 C 
ENDBRANCH  14  15
ENDBRANCH  11  14
BRANCH  12  21
HETATM   21  C   UNK N   1      21.631  20.482   2.235  0.00  0.00     0.233 C 
BRANCH  21  22
HETATM   22  C   UNK N   1      20.714  20.019   1.113  0.00  0.00     0.205 C 
BRANCH  22  23
HETATM   23  O   UNK N   1      20.816  20.882   0.022  0.00  0.00    -0.398 OA
HETATM   24  H   UNK N   1      20.311  21.710  -0.005  0.00  0.00     0.209 HD
ENDBRANCH  22  23
ENDBRANCH  21  22
BRANCH  21  25
HETATM   25  O   UNK N   1      21.591  21.873   2.368  0.00  0.00    -0.384 OA
HETATM   26  H   UNK N   1      21.046  22.627   2.093  0.00  0.00     0.210 HD
ENDBRANCH  21  25
ENDBRANCH  12  21
ENDBRANCH  10  11
ENDBRANCH   9  10
ENDBRANCH   8   9
BRANCH   1  27
HETATM   27  C   UNK N   1      29.049  18.091   7.603  0.00  0.00    -0.053 A 
HETATM   28  C   UNK N   1      28.255  18.042   8.753  0.00  0.00     0.007 A 
HETATM   29  C   UNK N   1      28.757  17.433   9.910  0.00  0.00     0.002 A 
HETATM   30  C   UNK N   1      30.045  16.878   9.911  0.00  0.00     0.017 A 
HETATM   31  C   UNK N   1      30.835  16.932   8.754  0.00  0.00     0.032 A 
HETATM   32  C   UNK N   1      30.325  17.536   7.619  0.00  0.00     0.024 A 
BRANCH  31  33
HETATM   33  C   UNK N   1      32.194  16.363   8.703  0.00  0.00     0.249 C 
HETATM   34  O   UNK N   1      32.365  15.209   8.352  0.00  0.00    -0.268 OA
HETATM   35  N   UNK N   1      33.261  17.119   9.044  0.00  0.00    -0.366 N 
HETATM   36  H   UNK N   1      34.166  16.845   8.771  0.00  0.00     0.159 HD
HETATM   37  H   UNK N   1      33.133  17.943   9.566  0.00  0.00     0.159 HD
ENDBRANCH  31  33
ENDBRANCH   1  27
TORSDOF 11
ENDMDL
MODEL 6
REMARK VINA RESULT:      -7.7      3.919      7.190
REMARK  11 active torsions:
REMARK  status: ('A' for Active; 'I' for Inactive)
REMARK    1  A    between atoms: C_10  and  C_3 
REMARK    2  A    between atoms: C_5  and  C_7 
REMARK       I    between atoms: C_7  and  N_9 
REMARK    3  A    between atoms: N_17  and  C_18 
REMARK    4  A    between atoms: C_18  and  C_19 
REMARK    5  A    between atoms: C_19  and  N_20 
REMARK    6  A    between atoms: N_20  and  C_21 
REMARK       I    between atoms: N_20  and  C_28 
REMARK    7  A    between atoms: C_21  and  C_22 
REMARK    8  A    between atoms: C_28  and  C_30 
REMARK    9  A    between atoms: C_30  and  C_31 
REMARK   10  A    between atoms: C_30  and  O_33 
REMARK   11  A    between atoms: C_31  and  O_32 
ROOT
HETATM    1  C   UNK N   1      28.270  18.685   4.589  0.00  0.00     0.023 C 
HETATM    2  C   UNK N   1      27.424  19.924   5.370  0.00  0.00     0.045 C 
HETATM    3  C   UNK N   1      25.805  20.062   4.751  0.00  0.00     0.224 A 
HETATM    4  C   UNK N   1      26.241  19.911   3.542  0.00  0.00     0.038 A 
HETATM    5  C   UNK N   1      25.849  18.524   4.316  0.00  0.00     0.038 A 
HETATM    6  C   UNK N   1      25.626  17.853   3.434  0.00  0.00     0.224 A 
HETATM    7  C   UNK N   1      27.240  17.526   3.831  0.00  0.00     0.045 C 
HETATM    8  N   UNK N   1      24.807  18.890   4.288  0.00  0.00     0.099 N 
ENDROOT
BRANCH   8   9
HETATM    9  C   UNK N   1      23.511  19.390   3.638  0.00  0.00     0.293 C 
BRANCH   9  10
HETATM   10  C   UNK N   1      22.272  18.770   4.304  0.00  0.00     0.156 C 
BRANCH  10  11
HETATM   11  N   UNK N   1      21.719  17.653   3.571  0.00  0.00    -0.348 N 
HETATM   12  C   UNK N   1      20.655  17.812   2.723  0.00  0.00     0.250 C 
HETATM   13  O   UNK N   1      20.271  16.845   2.062  0.00  0.00    -0.270 OA
BRANCH  11  14
HETATM   14  C   UNK N   1      22.445  16.412   3.632  0.00  0.00     0.130 C 
BRANCH  14  15
HETATM   15  C   UNK N   1      22.161  15.679   4.940  0.00  0.00     0.004 C 
HETATM   16  C   UNK N   1      23.183  16.066   6.012  0.00  0.00     0.006 C 
HETATM   17  C   UNK N   1      24.476  15.239   5.977  0.00  0.00     0.000 C 
HETATM   18  C   UNK N   1      24.668  14.510   4.649  0.00  0.00     0.000 C 
HETATM   19  C   UNK N   1      23.489  13.574   4.358  0.00  0.00     0.000 C 
HETATM   20  C   UNK N   1      22.118  14.165   4.731  0.00  0.00     0.006 C 
ENDBRANCH  14  15
ENDBRANCH  11  14
BRANCH  12  21
HETATM   21  C   UNK N   1      19.957  19.128   2.503  0.00  0.00     0.233 C 
BRANCH  21  22
HETATM   22  C   UNK N   1      20.569  19.950   1.380  0.00  0.00     0.205 C 
BRANCH  22  23
HETATM   23  O   UNK N   1      20.511  19.242   0.179  0.00  0.00    -0.398 OA
HETATM   24  H   UNK N   1      20.309  18.293   0.172  0.00  0.00     0.209 HD
ENDBRANCH  22  23
ENDBRANCH  21  22
BRANCH  21  25
HETATM   25  O   UNK N   1      18.589  18.931   2.288  0.00  0.00    -0.384 OA
HETATM   26  H   UNK N   1      17.743  19.056   2.746  0.00  0.00     0.210 HD
ENDBRANCH  21  25
ENDBRANCH  12  21
ENDBRANCH  10  11
ENDBRANCH   9  10
ENDBRANCH   8   9
BRANCH   1  27
HETATM   27  C   UNK N   1      29.194  18.025   5.542  0.00  0.00    -0.053 A 
HETATM   28  C   UNK N   1      28.838  17.809   6.877  0.00  0.00     0.007 A 
HETATM   29  C   UNK N   1      29.745  17.181   7.739  0.00  0.00     0.002 A 
HETATM   30  C   UNK N   1      31.001  16.774   7.264  0.00  0.00     0.017 A 
HETATM   31  C   UNK N   1      31.352  16.997   5.925  0.00  0.00     0.032 A 
HETATM   32  C   UNK N   1      30.444  17.616   5.086  0.00  0.00     0.024 A 
BRANCH  31  33
HETATM   33  C   UNK N   1      32.658  16.588   5.377  0.00  0.00     0.249 C 
HETATM   34  O   UNK N   1      32.741  15.618   4.643  0.00  0.00    -0.268 OA
HETATM   35  N   UNK N   1      33.773  17.288   5.683  0.00  0.00    -0.366 N 
HETATM   36  H   UNK N   1      34.582  17.189   5.132  0.00  0.00     0.159 HD
HETATM   37  H   UNK N   1      33.775  17.895   6.457  0.00  0.00     0.159 HD
ENDBRANCH  31  33
ENDBRANCH   1  27
TORSDOF 11
ENDMDL
MODEL 7
REMARK VINA RESULT:      -7.7      3.714      7.459
REMARK  11 active torsions:
REMARK  status: ('A' for Active; 'I' for Inactive)
REMARK    1  A    between atoms: C_10  and  C_3 
REMARK    2  A    between atoms: C_5  and  C_7 
REMARK       I    between atoms: C_7  and  N_9 
REMARK    3  A    between atoms: N_17  and  C_18 
REMARK    4  A    between atoms: C_18  and  C_19 
REMARK    5  A    between atoms: C_19  and  N_20 
REMARK    6  A    between atoms: N_20  and  C_21 
REMARK       I    between atoms: N_20  and  C_28 
REMARK    7  A    between atoms: C_21  and  C_22 
REMARK    8  A    between atoms: C_28  and  C_30 
REMARK    9  A    between atoms: C_30  and  C_31 
REMARK   10  A    between atoms: C_30  and  O_33 
REMARK   11  A    between atoms: C_31  and  O_32 
ROOT
HETATM    1  C   UNK N   1      29.136  16.968   5.462  0.00  0.00     0.023 C 
HETATM    2  C   UNK N   1      28.749  18.362   4.587  0.00  0.00     0.045 C 
HETATM    3  C   UNK N   1      27.130  18.278   3.959  0.00  0.00     0.224 A 
HETATM    4  C   UNK N   1      27.312  17.042   3.623  0.00  0.00     0.038 A 
HETATM    5  C   UNK N   1      26.736  17.270   5.136  0.00  0.00     0.038 A 
HETATM    6  C   UNK N   1      26.217  16.281   5.311  0.00  0.00     0.224 A 
HETATM    7  C   UNK N   1      27.751  16.096   6.007  0.00  0.00     0.045 C 
HETATM    8  N   UNK N   1      25.820  17.653   4.650  0.00  0.00     0.099 N 
ENDROOT
BRANCH   8   9
HETATM    9  C   UNK N   1      24.591  17.604   3.735  0.00  0.00     0.293 C 
BRANCH   9  10
HETATM   10  C   UNK N   1      23.525  18.622   4.170  0.00  0.00     0.156 C 
BRANCH  10  11
HETATM   11  N   UNK N   1      22.178  18.096   4.148  0.00  0.00    -0.348 N 
HETATM   12  C   UNK N   1      21.175  18.728   3.462  0.00  0.00     0.250 C 
HETATM   13  O   UNK N   1      20.064  18.198   3.408  0.00  0.00    -0.270 OA
BRANCH  11  14
HETATM   14  C   UNK N   1      21.981  16.791   4.722  0.00  0.00     0.130 C 
BRANCH  14  15
HETATM   15  C   UNK N   1      22.149  16.833   6.238  0.00  0.00     0.004 C 
HETATM   16  C   UNK N   1      22.722  15.511   6.757  0.00  0.00     0.006 C 
HETATM   17  C   UNK N   1      21.665  14.431   7.031  0.00  0.00     0.000 C 
HETATM   18  C   UNK N   1      20.335  14.727   6.342  0.00  0.00     0.000 C 
HETATM   19  C   UNK N   1      19.770  16.080   6.790  0.00  0.00     0.000 C 
HETATM   20  C   UNK N   1      20.834  17.181   6.935  0.00  0.00     0.006 C 
ENDBRANCH  14  15
ENDBRANCH  11  14
BRANCH  12  21
HETATM   21  C   UNK N   1      21.368  20.019   2.711  0.00  0.00     0.233 C 
BRANCH  21  22
HETATM   22  C   UNK N   1      20.844  19.965   1.284  0.00  0.00     0.205 C 
BRANCH  22  23
HETATM   23  O   UNK N   1      21.568  20.840   0.473  0.00  0.00    -0.398 OA
HETATM   24  H   UNK N   1      21.397  20.889  -0.480  0.00  0.00     0.209 HD
ENDBRANCH  22  23
ENDBRANCH  21  22
BRANCH  21  25
HETATM   25  O   UNK N   1      20.798  21.087   3.410  0.00  0.00    -0.384 OA
HETATM   26  H   UNK N   1      20.454  21.293   4.294  0.00  0.00     0.210 HD
ENDBRANCH  21  25
ENDBRANCH  12  21
ENDBRANCH  10  11
ENDBRANCH   9  10
ENDBRANCH   8   9
BRANCH   1  27
HETATM   27  C   UNK N   1      30.022  17.314   6.600  0.00  0.00    -0.053 A 
HETATM   28  C   UNK N   1      29.504  17.705   7.838  0.00  0.00     0.007 A 
HETATM   29  C   UNK N   1      30.381  18.022   8.882  0.00  0.00     0.002 A 
HETATM   30  C   UNK N   1      31.768  17.947   8.684  0.00  0.00     0.017 A 
HETATM   31  C   UNK N   1      32.280  17.556   7.438  0.00  0.00     0.032 A 
HETATM   32  C   UNK N   1      31.400  17.245   6.417  0.00  0.00     0.024 A 
BRANCH  31  33
HETATM   33  C   UNK N   1      33.728  17.461   7.178  0.00  0.00     0.249 C 
HETATM   34  O   UNK N   1      34.171  17.704   6.069  0.00  0.00    -0.268 OA
HETATM   35  N   UNK N   1      34.575  17.107   8.170  0.00  0.00    -0.366 N 
HETATM   36  H   UNK N   1      35.538  17.291   8.084  0.00  0.00     0.159 HD
HETATM   37  H   UNK N   1      34.228  16.665   8.978  0.00  0.00     0.159 HD
ENDBRANCH  31  33
ENDBRANCH   1  27
TORSDOF 11
ENDMDL
MODEL 8
REMARK VINA RESULT:      -7.6      9.845     14.719
REMARK  11 active torsions:
REMARK  status: ('A' for Active; 'I' for Inactive)
REMARK    1  A    between atoms: C_10  and  C_3 
REMARK    2  A    between atoms: C_5  and  C_7 
REMARK       I    between atoms: C_7  and  N_9 
REMARK    3  A    between atoms: N_17  and  C_18 
REMARK    4  A    between atoms: C_18  and  C_19 
REMARK    5  A    between atoms: C_19  and  N_20 
REMARK    6  A    between atoms: N_20  and  C_21 
REMARK       I    between atoms: N_20  and  C_28 
REMARK    7  A    between atoms: C_21  and  C_22 
REMARK    8  A    between atoms: C_28  and  C_30 
REMARK    9  A    between atoms: C_30  and  C_31 
REMARK   10  A    between atoms: C_30  and  O_33 
REMARK   11  A    between atoms: C_31  and  O_32 
ROOT
HETATM    1  C   UNK N   1      32.975  16.588   7.221  0.00  0.00     0.023 C 
HETATM    2  C   UNK N   1      33.009  15.058   7.939  0.00  0.00     0.045 C 
HETATM    3  C   UNK N   1      34.341  14.915   9.047  0.00  0.00     0.224 A 
HETATM    4  C   UNK N   1      35.120  15.518   8.207  0.00  0.00     0.038 A 
HETATM    5  C   UNK N   1      34.332  16.501   9.249  0.00  0.00     0.038 A 
HETATM    6  C   UNK N   1      35.028  17.391   9.260  0.00  0.00     0.224 A 
HETATM    7  C   UNK N   1      33.842  17.782   8.116  0.00  0.00     0.045 C 
HETATM    8  N   UNK N   1      34.940  16.028  10.040  0.00  0.00     0.099 N 
ENDROOT
BRANCH   8   9
HETATM    9  C   UNK N   1      36.228  15.602  10.756  0.00  0.00     0.293 C 
BRANCH   9  10
HETATM   10  C   UNK N   1      35.936  15.062  12.165  0.00  0.00     0.156 C 
BRANCH  10  11
HETATM   11  N   UNK N   1      36.392  13.705  12.371  0.00  0.00    -0.348 N 
HETATM   12  C   UNK N   1      36.580  13.198  13.629  0.00  0.00     0.250 C 
HETATM   13  O   UNK N   1      36.893  12.012  13.753  0.00  0.00    -0.270 OA
BRANCH  11  14
HETATM   14  C   UNK N   1      36.460  12.859  11.209  0.00  0.00     0.130 C 
BRANCH  14  15
HETATM   15  C   UNK N   1      37.876  12.327  11.007  0.00  0.00     0.004 C 
HETATM   16  C   UNK N   1      38.727  13.332  10.225  0.00  0.00     0.006 C 
HETATM   17  C   UNK N   1      38.600  13.212   8.700  0.00  0.00     0.000 C 
HETATM   18  C   UNK N   1      37.359  12.431   8.276  0.00  0.00     0.000 C 
HETATM   19  C   UNK N   1      37.365  11.018   8.872  0.00  0.00     0.000 C 
HETATM   20  C   UNK N   1      37.865  10.959  10.325  0.00  0.00     0.006 C 
ENDBRANCH  14  15
ENDBRANCH  11  14
BRANCH  12  21
HETATM   21  C   UNK N   1      36.369  13.998  14.888  0.00  0.00     0.233 C 
BRANCH  21  22
HETATM   22  C   UNK N   1      35.478  13.295  15.900  0.00  0.00     0.205 C 
BRANCH  22  23
HETATM   23  O   UNK N   1      34.288  12.892  15.294  0.00  0.00    -0.398 OA
HETATM   24  H   UNK N   1      34.238  12.054  14.807  0.00  0.00     0.209 HD
ENDBRANCH  22  23
ENDBRANCH  21  22
BRANCH  21  25
HETATM   25  O   UNK N   1      37.595  14.347  15.462  0.00  0.00    -0.384 OA
HETATM   26  H   UNK N   1      37.976  14.538  16.334  0.00  0.00     0.210 HD
ENDBRANCH  21  25
ENDBRANCH  12  21
ENDBRANCH  10  11
ENDBRANCH   9  10
ENDBRANCH   8   9
BRANCH   1  27
HETATM   27  C   UNK N   1      31.572  17.012   6.998  0.00  0.00    -0.053 A 
HETATM   28  C   UNK N   1      30.974  16.926   5.737  0.00  0.00     0.007 A 
HETATM   29  C   UNK N   1      29.646  17.339   5.575  0.00  0.00     0.002 A 
HETATM   30  C   UNK N   1      28.924  17.834   6.672  0.00  0.00     0.017 A 
HETATM   31  C   UNK N   1      29.532  17.918   7.933  0.00  0.00     0.032 A 
HETATM   32  C   UNK N   1      30.844  17.506   8.076  0.00  0.00     0.024 A 
BRANCH  31  33
HETATM   33  C   UNK N   1      28.817  18.431   9.117  0.00  0.00     0.249 C 
HETATM   34  O   UNK N   1      29.425  18.670  10.146  0.00  0.00    -0.268 OA
HETATM   35  N   UNK N   1      27.483  18.640   9.067  0.00  0.00    -0.366 N 
HETATM   36  H   UNK N   1      27.050  19.212   9.740  0.00  0.00     0.159 HD
HETATM   37  H   UNK N   1      26.945  18.220   8.358  0.00  0.00     0.159 HD
ENDBRANCH  31  33
ENDBRANCH   1  27
TORSDOF 11
ENDMDL
MODEL 9
REMARK VINA RESULT:      -7.4      3.105      6.989
REMARK  11 active torsions:
REMARK  status: ('A' for Active; 'I' for Inactive)
REMARK    1  A    between atoms: C_10  and  C_3 
REMARK    2  A    between atoms: C_5  and  C_7 
REMARK       I    between atoms: C_7  and  N_9 
REMARK    3  A    between atoms: N_17  and  C_18 
REMARK    4  A    between atoms: C_18  and  C_19 
REMARK    5  A    between atoms: C_19  and  N_20 
REMARK    6  A    between atoms: N_20  and  C_21 
REMARK       I    between atoms: N_20  and  C_28 
REMARK    7  A    between atoms: C_21  and  C_22 
REMARK    8  A    between atoms: C_28  and  C_30 
REMARK    9  A    between atoms: C_30  and  C_31 
REMARK   10  A    between atoms: C_30  and  O_33 
REMARK   11  A    between atoms: C_31  and  O_32 
ROOT
HETATM    1  C   UNK N   1      28.477  18.362   4.945  0.00  0.00     0.023 C 
HETATM    2  C   UNK N   1      27.561  19.616   5.615  0.00  0.00     0.045 C 
HETATM    3  C   UNK N   1      25.946  19.623   4.973  0.00  0.00     0.224 A 
HETATM    4  C   UNK N   1      26.404  19.397   3.784  0.00  0.00     0.038 A 
HETATM    5  C   UNK N   1      26.071  18.060   4.663  0.00  0.00     0.038 A 
HETATM    6  C   UNK N   1      25.893  17.309   3.837  0.00  0.00     0.224 A 
HETATM    7  C   UNK N   1      27.516  17.097   4.274  0.00  0.00     0.045 C 
HETATM    8  N   UNK N   1      25.013  18.370   4.597  0.00  0.00     0.099 N 
ENDROOT
BRANCH   8   9
HETATM    9  C   UNK N   1      23.703  18.750   3.897  0.00  0.00     0.293 C 
BRANCH   9  10
HETATM   10  C   UNK N   1      22.481  18.223   4.666  0.00  0.00     0.156 C 
BRANCH  10  11
HETATM   11  N   UNK N   1      22.015  16.935   4.201  0.00  0.00    -0.348 N 
HETATM   12  C   UNK N   1      21.119  16.828   3.172  0.00  0.00     0.250 C 
HETATM   13  O   UNK N   1      20.814  15.707   2.761  0.00  0.00    -0.270 OA
BRANCH  11  14
HETATM   14  C   UNK N   1      22.670  15.774   4.743  0.00  0.00     0.130 C 
BRANCH  14  15
HETATM   15  C   UNK N   1      22.998  15.973   6.220  0.00  0.00     0.004 C 
HETATM   16  C   UNK N   1      24.332  15.309   6.574  0.00  0.00     0.006 C 
HETATM   17  C   UNK N   1      24.219  13.820   6.931  0.00  0.00     0.000 C 
HETATM   18  C   UNK N   1      22.906  13.203   6.455  0.00  0.00     0.000 C 
HETATM   19  C   UNK N   1      21.701  13.936   7.057  0.00  0.00     0.000 C 
HETATM   20  C   UNK N   1      21.868  15.464   7.114  0.00  0.00     0.006 C 
ENDBRANCH  14  15
ENDBRANCH  11  14
BRANCH  12  21
HETATM   21  C   UNK N   1      20.520  18.015   2.464  0.00  0.00     0.233 C 
BRANCH  21  22
HETATM   22  C   UNK N   1      20.297  17.776   0.978  0.00  0.00     0.205 C 
BRANCH  22  23
HETATM   23  O   UNK N   1      19.056  17.174   0.770  0.00  0.00    -0.398 OA
HETATM   24  H   UNK N   1      18.253  17.711   0.681  0.00  0.00     0.209 HD
ENDBRANCH  22  23
ENDBRANCH  21  22
BRANCH  21  25
HETATM   25  O   UNK N   1      19.335  18.416   3.087  0.00  0.00    -0.384 OA
HETATM   26  H   UNK N   1      18.384  18.225   3.061  0.00  0.00     0.210 HD
ENDBRANCH  21  25
ENDBRANCH  12  21
ENDBRANCH  10  11
ENDBRANCH   9  10
ENDBRANCH   8   9
BRANCH   1  27
HETATM   27  C   UNK N   1      29.421  17.828   5.957  0.00  0.00    -0.053 A 
HETATM   28  C   UNK N   1      30.576  17.134   5.585  0.00  0.00     0.007 A 
HETATM   29  C   UNK N   1      31.436  16.648   6.577  0.00  0.00     0.002 A 
HETATM   30  C   UNK N   1      31.139  16.858   7.932  0.00  0.00     0.017 A 
HETATM   31  C   UNK N   1      29.977  17.554   8.296  0.00  0.00     0.032 A 
HETATM   32  C   UNK N   1      29.138  18.029   7.304  0.00  0.00     0.024 A 
BRANCH  31  33
HETATM   33  C   UNK N   1      29.619  17.802   9.705  0.00  0.00     0.249 C 
HETATM   34  O   UNK N   1      29.541  18.942  10.129  0.00  0.00    -0.268 OA
HETATM   35  N   UNK N   1      29.374  16.766  10.537  0.00  0.00    -0.366 N 
HETATM   36  H   UNK N   1      28.892  16.916  11.381  0.00  0.00     0.159 HD
HETATM   37  H   UNK N   1      29.678  15.861  10.298  0.00  0.00     0.159 HD
ENDBRANCH  31  33
ENDBRANCH   1  27
TORSDOF 11
ENDMDL
