MODEL 1
REMARK VINA RESULT:      -9.4      0.000      0.000
REMARK  11 active torsions:
REMARK  status: ('A' for Active; 'I' for Inactive)
REMARK    1  A    between atoms: C_3  and  N_28 
REMARK    2  A    between atoms: C_9  and  N_10 
REMARK    3  A    between atoms: C_13  and  C_16 
REMARK    4  A    between atoms: N_28  and  C_29 
REMARK    5  A    between atoms: C_29  and  C_30 
REMARK    6  A    between atoms: C_30  and  C_31 
REMARK    7  A    between atoms: C_30  and  N_34 
REMARK    8  A    between atoms: C_31  and  O_33 
REMARK    9  A    between atoms: N_34  and  S_35 
REMARK   10  A    between atoms: S_35  and  C_38 
REMARK   11  A    between atoms: C_41  and  O_44 
ROOT
HETATM    1  C   UNK N   1      35.201  11.725  12.867  0.00  0.00     0.056 C 
HETATM    2  C   UNK N   1      35.800  12.811  13.696  0.00  0.00     0.026 A 
HETATM    3  C   UNK N   1      36.208  14.014  13.079  0.00  0.00     0.112 A 
HETATM    4  N   UNK N   1      36.778  14.987  13.830  0.00  0.00    -0.332 N 
ATOM      5  HN  UNK N   1      37.102  15.840  13.376  1.00  0.00     0.168 HD
HETATM    6  C   UNK N   1      36.927  14.852  15.171  0.00  0.00     0.080 A 
HETATM    7  N   UNK N   1      36.487  13.730  15.797  0.00  0.00    -0.332 N 
ATOM      8  HN  UNK N   1      36.569  13.663  16.812  1.00  0.00     0.168 HD
HETATM    9  C   UNK N   1      35.939  12.693  15.108  0.00  0.00     0.114 A 
HETATM   10  C   UNK N   1      37.537  15.951  15.961  0.00  0.00     0.089 C 
ENDROOT
BRANCH   3  11
HETATM   11  N   UNK N   1      35.969  14.272  11.698  0.00  0.00    -0.373 N 
HETATM   12  H   UNK N   1      35.773  13.517  11.098  0.00  0.00     0.161 HD
BRANCH  11  13
HETATM   13  C   UNK N   1      36.007  15.614  11.152  0.00  0.00     0.158 C 
BRANCH  13  14
HETATM   14  C   UNK N   1      35.032  15.826  10.000  0.00  0.00     0.208 C 
BRANCH  14  15
HETATM   15  C   UNK N   1      33.872  14.889  10.112  0.00  0.00     0.165 C 
HETATM   16  O   UNK N   1      33.772  13.955   9.335  0.00  0.00    -0.648 OA
BRANCH  15  17
HETATM   17  O   UNK N   1      32.951  15.056  11.079  0.00  0.00    -0.775 OA
HETATM   18  H   UNK N   1      32.765  15.705  11.729  0.00  0.00     0.167 HD
ENDBRANCH  15  17
ENDBRANCH  14  15
BRANCH  14  19
HETATM   19  N   UNK N   1      34.582  17.213   9.923  0.00  0.00    -0.299 N 
HETATM   20  H   UNK N   1      34.523  17.863  10.708  0.00  0.00     0.173 HD
BRANCH  19  21
HETATM   21  S   UNK N   1      34.156  17.582   8.241  0.00  0.00     0.259 S 
HETATM   22  O   UNK N   1      34.783  18.962   7.991  0.00  0.00    -0.201 OA
HETATM   23  O   UNK N   1      35.026  16.664   7.366  0.00  0.00    -0.201 OA
BRANCH  21  24
HETATM   24  C   UNK N   1      32.418  17.563   7.822  0.00  0.00     0.079 A 
HETATM   25  C   UNK N   1      31.451  17.984   8.740  0.00  0.00     0.028 A 
HETATM   26  C   UNK N   1      30.095  17.939   8.392  0.00  0.00     0.038 A 
HETATM   27  C   UNK N   1      29.705  17.473   7.121  0.00  0.00     0.068 A 
HETATM   28  C   UNK N   1      30.681  17.061   6.214  0.00  0.00     0.038 A 
HETATM   29  C   UNK N   1      32.027  17.103   6.566  0.00  0.00     0.028 A 
BRANCH  27  30
HETATM   30  O   UNK N   1      28.405  17.402   6.751  0.00  0.00    -0.356 OA
HETATM   31  C   UNK N   1      27.932  16.509   5.819  0.00  0.00     0.210 C 
ENDBRANCH  27  30
ENDBRANCH  21  24
ENDBRANCH  19  21
ENDBRANCH  14  19
ENDBRANCH  13  14
ENDBRANCH  11  13
ENDBRANCH   3  11
BRANCH   9  32
HETATM   32  N   UNK N   1      35.459  11.550  15.836  0.00  0.00    -0.367 N 
HETATM   33  C   UNK N   1      36.106  10.268  15.668  0.00  0.00     0.125 C 
HETATM   34  C   UNK N   1      36.917   9.957  16.944  0.00  0.00     0.030 C 
HETATM   35  C   UNK N   1      36.117  10.209  18.248  0.00  0.00     0.038 C 
HETATM   36  C   UNK N   1      35.405  11.560  18.213  0.00  0.00     0.030 C 
HETATM   37  C   UNK N   1      34.563  11.668  16.956  0.00  0.00     0.125 C 
BRANCH  35  38
HETATM   38  C   UNK N   1      35.152   9.115  18.604  0.00  0.00     0.015 A 
HETATM   39  C   UNK N   1      35.425   7.799  18.198  0.00  0.00     0.026 A 
HETATM   40  C   UNK N   1      34.543   6.776  18.531  0.00  0.00     0.013 A 
HETATM   41  C   UNK N   1      33.382   7.078  19.236  0.00  0.00    -0.014 A 
HETATM   42  C   UNK N   1      33.119   8.408  19.603  0.00  0.00     0.107 A 
HETATM   43  C   UNK N   1      32.417   5.996  19.597  0.00  0.00     0.044 C 
HETATM   44  N   UNK N   1      34.008   9.388  19.291  0.00  0.00    -0.345 N 
HETATM   45  N   UNK N   1      31.912   8.736  20.271  0.00  0.00    -0.376 N 
ATOM     46  HN  UNK N   1      33.816  10.347  19.578  1.00  0.00     0.167 HD
HETATM   47  C   UNK N   1      30.882   7.745  20.529  0.00  0.00     0.121 C 
HETATM   48  H   UNK N   1      31.768   9.663  20.569  0.00  0.00     0.161 HD
HETATM   49  C   UNK N   1      30.997   6.546  19.582  0.00  0.00     0.024 C 
ENDBRANCH  35  38
ENDBRANCH   9  32
TORSDOF 11
ENDMDL
MODEL 2
REMARK VINA RESULT:      -9.0      4.813     14.275
REMARK  11 active torsions:
REMARK  status: ('A' for Active; 'I' for Inactive)
REMARK    1  A    between atoms: C_3  and  N_28 
REMARK    2  A    between atoms: C_9  and  N_10 
REMARK    3  A    between atoms: C_13  and  C_16 
REMARK    4  A    between atoms: N_28  and  C_29 
REMARK    5  A    between atoms: C_29  and  C_30 
REMARK    6  A    between atoms: C_30  and  C_31 
REMARK    7  A    between atoms: C_30  and  N_34 
REMARK    8  A    between atoms: C_31  and  O_33 
REMARK    9  A    between atoms: N_34  and  S_35 
REMARK   10  A    between atoms: S_35  and  C_38 
REMARK   11  A    between atoms: C_41  and  O_44 
ROOT
HETATM    1  C   UNK N   1      29.186  17.403   8.730  0.00  0.00     0.056 C 
HETATM    2  C   UNK N   1      30.119  17.346   7.568  0.00  0.00     0.026 A 
HETATM    3  C   UNK N   1      31.466  16.975   7.773  0.00  0.00     0.112 A 
HETATM    4  N   UNK N   1      32.318  16.952   6.720  0.00  0.00    -0.332 N 
ATOM      5  HN  UNK N   1      33.297  16.716   6.877  1.00  0.00     0.168 HD
HETATM    6  C   UNK N   1      31.898  17.237   5.462  0.00  0.00     0.080 A 
HETATM    7  N   UNK N   1      30.594  17.537   5.229  0.00  0.00    -0.332 N 
ATOM      8  HN  UNK N   1      30.287  17.707   4.271  1.00  0.00     0.168 HD
HETATM    9  C   UNK N   1      29.686  17.618   6.238  0.00  0.00     0.114 A 
HETATM   10  C   UNK N   1      32.859  17.180   4.332  0.00  0.00     0.089 C 
ENDROOT
BRANCH   3  11
HETATM   11  N   UNK N   1      31.945  16.545   9.044  0.00  0.00    -0.373 N 
HETATM   12  H   UNK N   1      31.959  17.186   9.790  0.00  0.00     0.161 HD
BRANCH  11  13
HETATM   13  C   UNK N   1      32.411  15.192   9.271  0.00  0.00     0.158 C 
BRANCH  13  14
HETATM   14  C   UNK N   1      33.823  15.124   9.837  0.00  0.00     0.208 C 
BRANCH  14  15
HETATM   15  C   UNK N   1      34.573  16.383   9.535  0.00  0.00     0.165 C 
HETATM   16  O   UNK N   1      34.866  16.651   8.383  0.00  0.00    -0.648 OA
BRANCH  15  17
HETATM   17  O   UNK N   1      34.904  17.233  10.524  0.00  0.00    -0.775 OA
HETATM   18  H   UNK N   1      34.532  17.491  11.345  0.00  0.00     0.167 HD
ENDBRANCH  15  17
ENDBRANCH  14  15
BRANCH  14  19
HETATM   19  N   UNK N   1      33.817  14.846  11.270  0.00  0.00    -0.299 N 
HETATM   20  H   UNK N   1      33.143  15.212  11.943  0.00  0.00     0.173 HD
BRANCH  19  21
HETATM   21  S   UNK N   1      35.175  13.767  11.648  0.00  0.00     0.259 S 
HETATM   22  O   UNK N   1      35.032  12.620  10.637  0.00  0.00    -0.201 OA
HETATM   23  O   UNK N   1      36.442  14.483  11.154  0.00  0.00    -0.201 OA
BRANCH  21  24
HETATM   24  C   UNK N   1      35.282  13.158  13.326  0.00  0.00     0.079 A 
HETATM   25  C   UNK N   1      34.548  12.041  13.735  0.00  0.00     0.028 A 
HETATM   26  C   UNK N   1      34.636  11.599  15.061  0.00  0.00     0.038 A 
HETATM   27  C   UNK N   1      35.465  12.274  15.980  0.00  0.00     0.068 A 
HETATM   28  C   UNK N   1      36.196  13.383  15.555  0.00  0.00     0.038 A 
HETATM   29  C   UNK N   1      36.100  13.822  14.238  0.00  0.00     0.028 A 
BRANCH  27  30
HETATM   30  O   UNK N   1      35.568  11.885  17.272  0.00  0.00    -0.356 OA
HETATM   31  C   UNK N   1      35.190  10.641  17.719  0.00  0.00     0.210 C 
ENDBRANCH  27  30
ENDBRANCH  21  24
ENDBRANCH  19  21
ENDBRANCH  14  19
ENDBRANCH  13  14
ENDBRANCH  11  13
ENDBRANCH   3  11
BRANCH   9  32
HETATM   32  N   UNK N   1      28.314  17.903   5.919  0.00  0.00    -0.367 N 
HETATM   33  C   UNK N   1      27.846  19.271   5.921  0.00  0.00     0.125 C 
HETATM   34  C   UNK N   1      27.627  19.717   4.460  0.00  0.00     0.030 C 
HETATM   35  C   UNK N   1      26.844  18.676   3.619  0.00  0.00     0.038 C 
HETATM   36  C   UNK N   1      27.399  17.267   3.819  0.00  0.00     0.030 C 
HETATM   37  C   UNK N   1      27.448  16.937   5.298  0.00  0.00     0.125 C 
BRANCH  35  38
HETATM   38  C   UNK N   1      25.359  18.693   3.839  0.00  0.00     0.015 A 
HETATM   39  C   UNK N   1      24.772  17.707   4.647  0.00  0.00     0.026 A 
HETATM   40  C   UNK N   1      23.398  17.720   4.865  0.00  0.00     0.013 A 
HETATM   41  C   UNK N   1      22.618  18.694   4.250  0.00  0.00    -0.014 A 
HETATM   42  C   UNK N   1      23.228  19.650   3.421  0.00  0.00     0.107 A 
HETATM   43  C   UNK N   1      21.140  18.721   4.464  0.00  0.00     0.044 C 
HETATM   44  N   UNK N   1      24.576  19.636   3.244  0.00  0.00    -0.345 N 
HETATM   45  N   UNK N   1      22.436  20.612   2.743  0.00  0.00    -0.376 N 
ATOM     46  HN  UNK N   1      25.010  20.345   2.655  1.00  0.00     0.167 HD
HETATM   47  C   UNK N   1      20.986  20.601   2.813  0.00  0.00     0.121 C 
HETATM   48  H   UNK N   1      22.883  21.308   2.210  0.00  0.00     0.161 HD
HETATM   49  C   UNK N   1      20.446  19.222   3.203  0.00  0.00     0.024 C 
ENDBRANCH  35  38
ENDBRANCH   9  32
TORSDOF 11
ENDMDL
MODEL 3
REMARK VINA RESULT:      -8.9      7.167     12.325
REMARK  11 active torsions:
REMARK  status: ('A' for Active; 'I' for Inactive)
REMARK    1  A    between atoms: C_3  and  N_28 
REMARK    2  A    between atoms: C_9  and  N_10 
REMARK    3  A    between atoms: C_13  and  C_16 
REMARK    4  A    between atoms: N_28  and  C_29 
REMARK    5  A    between atoms: C_29  and  C_30 
REMARK    6  A    between atoms: C_30  and  C_31 
REMARK    7  A    between atoms: C_30  and  N_34 
REMARK    8  A    between atoms: C_31  and  O_33 
REMARK    9  A    between atoms: N_34  and  S_35 
REMARK   10  A    between atoms: S_35  and  C_38 
REMARK   11  A    between atoms: C_41  and  O_44 
ROOT
HETATM    1  C   UNK N   1      27.956  15.047   5.604  0.00  0.00     0.056 C 
HETATM    2  C   UNK N   1      27.795  16.514   5.818  0.00  0.00     0.026 A 
HETATM    3  C   UNK N   1      26.570  17.136   5.492  0.00  0.00     0.112 A 
HETATM    4  N   UNK N   1      26.436  18.474   5.661  0.00  0.00    -0.332 N 
ATOM      5  HN  UNK N   1      25.562  18.924   5.392  1.00  0.00     0.168 HD
HETATM    6  C   UNK N   1      27.439  19.226   6.178  0.00  0.00     0.080 A 
HETATM    7  N   UNK N   1      28.605  18.642   6.557  0.00  0.00    -0.332 N 
ATOM      8  HN  UNK N   1      29.332  19.217   6.984  1.00  0.00     0.168 HD
HETATM    9  C   UNK N   1      28.830  17.312   6.384  0.00  0.00     0.114 A 
HETATM   10  C   UNK N   1      27.244  20.686   6.367  0.00  0.00     0.089 C 
ENDROOT
BRANCH   3  11
HETATM   11  N   UNK N   1      25.436  16.388   5.061  0.00  0.00    -0.373 N 
HETATM   12  H   UNK N   1      25.295  16.248   4.097  0.00  0.00     0.161 HD
BRANCH  11  13
HETATM   13  C   UNK N   1      24.484  15.829   5.999  0.00  0.00     0.158 C 
BRANCH  13  14
HETATM   14  C   UNK N   1      23.075  16.383   5.836  0.00  0.00     0.208 C 
BRANCH  14  15
HETATM   15  C   UNK N   1      22.999  17.288   4.647  0.00  0.00     0.165 C 
HETATM   16  O   UNK N   1      22.546  16.869   3.596  0.00  0.00    -0.648 OA
BRANCH  15  17
HETATM   17  O   UNK N   1      23.404  18.568   4.738  0.00  0.00    -0.775 OA
HETATM   18  H   UNK N   1      24.225  19.020   4.713  0.00  0.00     0.167 HD
ENDBRANCH  15  17
ENDBRANCH  14  15
BRANCH  14  19
HETATM   19  N   UNK N   1      22.082  15.316   5.748  0.00  0.00    -0.299 N 
HETATM   20  H   UNK N   1      21.925  14.716   4.938  0.00  0.00     0.173 HD
BRANCH  19  21
HETATM   21  S   UNK N   1      21.196  15.233   7.283  0.00  0.00     0.259 S 
HETATM   22  O   UNK N   1      21.161  16.689   7.774  0.00  0.00    -0.201 OA
HETATM   23  O   UNK N   1      19.725  14.977   6.916  0.00  0.00    -0.201 OA
BRANCH  21  24
HETATM   24  C   UNK N   1      21.843  14.131   8.534  0.00  0.00     0.079 A 
HETATM   25  C   UNK N   1      23.087  13.514   8.376  0.00  0.00     0.028 A 
HETATM   26  C   UNK N   1      23.560  12.639   9.363  0.00  0.00     0.038 A 
HETATM   27  C   UNK N   1      22.786  12.384  10.514  0.00  0.00     0.068 A 
HETATM   28  C   UNK N   1      21.550  13.013  10.660  0.00  0.00     0.038 A 
HETATM   29  C   UNK N   1      21.083  13.876   9.674  0.00  0.00     0.028 A 
BRANCH  27  30
HETATM   30  O   UNK N   1      23.202  11.537  11.483  0.00  0.00    -0.356 OA
HETATM   31  C   UNK N   1      23.106  11.819  12.826  0.00  0.00     0.210 C 
ENDBRANCH  27  30
ENDBRANCH  21  24
ENDBRANCH  19  21
ENDBRANCH  14  19
ENDBRANCH  13  14
ENDBRANCH  11  13
ENDBRANCH   3  11
BRANCH   9  32
HETATM   32  N   UNK N   1      30.072  16.751   6.842  0.00  0.00    -0.367 N 
HETATM   33  C   UNK N   1      31.099  16.406   5.886  0.00  0.00     0.125 C 
HETATM   34  C   UNK N   1      32.242  17.437   6.001  0.00  0.00     0.030 C 
HETATM   35  C   UNK N   1      32.667  17.710   7.467  0.00  0.00     0.038 C 
HETATM   36  C   UNK N   1      31.454  17.944   8.365  0.00  0.00     0.030 C 
HETATM   37  C   UNK N   1      30.476  16.794   8.222  0.00  0.00     0.125 C 
BRANCH  35  38
HETATM   38  C   UNK N   1      33.564  16.660   8.058  0.00  0.00     0.015 A 
HETATM   39  C   UNK N   1      34.351  15.870   7.206  0.00  0.00     0.026 A 
HETATM   40  C   UNK N   1      35.193  14.901   7.743  0.00  0.00     0.013 A 
HETATM   41  C   UNK N   1      35.218  14.707   9.121  0.00  0.00    -0.014 A 
HETATM   42  C   UNK N   1      34.397  15.491   9.947  0.00  0.00     0.107 A 
HETATM   43  C   UNK N   1      36.109  13.667   9.718  0.00  0.00     0.044 C 
HETATM   44  N   UNK N   1      33.603  16.450   9.403  0.00  0.00    -0.345 N 
HETATM   45  N   UNK N   1      34.372  15.263  11.346  0.00  0.00    -0.376 N 
ATOM     46  HN  UNK N   1      33.024  17.026  10.014  1.00  0.00     0.167 HD
HETATM   47  C   UNK N   1      35.118  14.180  11.962  0.00  0.00     0.121 C 
HETATM   48  H   UNK N   1      33.833  15.856  11.917  0.00  0.00     0.161 HD
HETATM   49  C   UNK N   1      35.449  13.073  10.956  0.00  0.00     0.024 C 
ENDBRANCH  35  38
ENDBRANCH   9  32
TORSDOF 11
ENDMDL
MODEL 4
REMARK VINA RESULT:      -8.8      6.900     13.022
REMARK  11 active torsions:
REMARK  status: ('A' for Active; 'I' for Inactive)
REMARK    1  A    between atoms: C_3  and  N_28 
REMARK    2  A    between atoms: C_9  and  N_10 
REMARK    3  A    between atoms: C_13  and  C_16 
REMARK    4  A    between atoms: N_28  and  C_29 
REMARK    5  A    between atoms: C_29  and  C_30 
REMARK    6  A    between atoms: C_30  and  C_31 
REMARK    7  A    between atoms: C_30  and  N_34 
REMARK    8  A    between atoms: C_31  and  O_33 
REMARK    9  A    between atoms: N_34  and  S_35 
REMARK   10  A    between atoms: S_35  and  C_38 
REMARK   11  A    between atoms: C_41  and  O_44 
ROOT
HETATM    1  C   UNK N   1      30.265  16.867   7.980  0.00  0.00     0.056 C 
HETATM    2  C   UNK N   1      30.665  15.720   7.115  0.00  0.00     0.026 A 
HETATM    3  C   UNK N   1      31.653  14.818   7.566  0.00  0.00     0.112 A 
HETATM    4  N   UNK N   1      32.035  13.793   6.765  0.00  0.00    -0.332 N 
ATOM      5  HN  UNK N   1      32.772  13.164   7.080  1.00  0.00     0.168 HD
HETATM    6  C   UNK N   1      31.459  13.587   5.554  0.00  0.00     0.080 A 
HETATM    7  N   UNK N   1      30.464  14.405   5.124  0.00  0.00    -0.332 N 
ATOM      8  HN  UNK N   1      30.013  14.210   4.230  1.00  0.00     0.168 HD
HETATM    9  C   UNK N   1      30.051  15.477   5.853  0.00  0.00     0.114 A 
HETATM   10  C   UNK N   1      31.891  12.440   4.717  0.00  0.00     0.089 C 
ENDROOT
BRANCH   3  11
HETATM   11  N   UNK N   1      32.211  14.902   8.874  0.00  0.00    -0.373 N 
HETATM   12  H   UNK N   1      31.618  15.104   9.633  0.00  0.00     0.161 HD
BRANCH  11  13
HETATM   13  C   UNK N   1      33.624  14.699   9.120  0.00  0.00     0.158 C 
BRANCH  13  14
HETATM   14  C   UNK N   1      34.262  15.810   9.945  0.00  0.00     0.208 C 
BRANCH  14  15
HETATM   15  C   UNK N   1      34.836  15.262  11.213  0.00  0.00     0.165 C 
HETATM   16  O   UNK N   1      35.865  15.734  11.665  0.00  0.00    -0.648 OA
BRANCH  15  17
HETATM   17  O   UNK N   1      34.212  14.267  11.870  0.00  0.00    -0.775 OA
HETATM   18  H   UNK N   1      34.303  13.337  11.931  0.00  0.00     0.167 HD
ENDBRANCH  15  17
ENDBRANCH  14  15
BRANCH  14  19
HETATM   19  N   UNK N   1      35.272  16.537   9.181  0.00  0.00    -0.299 N 
HETATM   20  H   UNK N   1      36.282  16.428   9.278  0.00  0.00     0.173 HD
BRANCH  19  21
HETATM   21  S   UNK N   1      34.454  17.640   8.058  0.00  0.00     0.259 S 
HETATM   22  O   UNK N   1      33.165  18.036   8.795  0.00  0.00    -0.201 OA
HETATM   23  O   UNK N   1      35.259  18.950   8.081  0.00  0.00    -0.201 OA
BRANCH  21  24
HETATM   24  C   UNK N   1      34.111  17.018   6.417  0.00  0.00     0.079 A 
HETATM   25  C   UNK N   1      33.214  17.677   5.570  0.00  0.00     0.028 A 
HETATM   26  C   UNK N   1      32.949  17.155   4.297  0.00  0.00     0.038 A 
HETATM   27  C   UNK N   1      33.585  15.973   3.869  0.00  0.00     0.068 A 
HETATM   28  C   UNK N   1      34.481  15.331   4.723  0.00  0.00     0.038 A 
HETATM   29  C   UNK N   1      34.737  15.850   5.989  0.00  0.00     0.028 A 
BRANCH  27  30
HETATM   30  O   UNK N   1      33.347  15.431   2.653  0.00  0.00    -0.356 OA
HETATM   31  C   UNK N   1      33.942  14.273   2.211  0.00  0.00     0.210 C 
ENDBRANCH  27  30
ENDBRANCH  21  24
ENDBRANCH  19  21
ENDBRANCH  14  19
ENDBRANCH  13  14
ENDBRANCH  11  13
ENDBRANCH   3  11
BRANCH   9  32
HETATM   32  N   UNK N   1      28.967  16.280   5.357  0.00  0.00    -0.367 N 
HETATM   33  C   UNK N   1      27.661  16.180   5.968  0.00  0.00     0.125 C 
HETATM   34  C   UNK N   1      27.406  17.459   6.794  0.00  0.00     0.030 C 
HETATM   35  C   UNK N   1      27.757  18.758   6.022  0.00  0.00     0.038 C 
HETATM   36  C   UNK N   1      29.121  18.653   5.344  0.00  0.00     0.030 C 
HETATM   37  C   UNK N   1      29.175  17.404   4.484  0.00  0.00     0.125 C 
BRANCH  35  38
HETATM   38  C   UNK N   1      26.711  19.194   5.037  0.00  0.00     0.015 A 
HETATM   39  C   UNK N   1      27.040  20.149   4.063  0.00  0.00     0.026 A 
HETATM   40  C   UNK N   1      26.082  20.553   3.139  0.00  0.00     0.013 A 
HETATM   41  C   UNK N   1      24.796  20.026   3.215  0.00  0.00    -0.014 A 
HETATM   42  C   UNK N   1      24.485  19.096   4.219  0.00  0.00     0.107 A 
HETATM   43  C   UNK N   1      23.749  20.453   2.237  0.00  0.00     0.044 C 
HETATM   44  N   UNK N   1      25.445  18.694   5.094  0.00  0.00    -0.345 N 
HETATM   45  N   UNK N   1      23.164  18.596   4.342  0.00  0.00    -0.376 N 
ATOM     46  HN  UNK N   1      25.213  18.004   5.808  1.00  0.00     0.167 HD
HETATM   47  C   UNK N   1      22.080  19.075   3.502  0.00  0.00     0.121 C 
HETATM   48  H   UNK N   1      22.976  17.904   5.016  0.00  0.00     0.161 HD
HETATM   49  C   UNK N   1      22.384  20.456   2.914  0.00  0.00     0.024 C 
ENDBRANCH  35  38
ENDBRANCH   9  32
TORSDOF 11
ENDMDL
MODEL 5
REMARK VINA RESULT:      -8.8      4.365     13.573
REMARK  11 active torsions:
REMARK  status: ('A' for Active; 'I' for Inactive)
REMARK    1  A    between atoms: C_3  and  N_28 
REMARK    2  A    between atoms: C_9  and  N_10 
REMARK    3  A    between atoms: C_13  and  C_16 
REMARK    4  A    between atoms: N_28  and  C_29 
REMARK    5  A    between atoms: C_29  and  C_30 
REMARK    6  A    between atoms: C_30  and  C_31 
REMARK    7  A    between atoms: C_30  and  N_34 
REMARK    8  A    between atoms: C_31  and  O_33 
REMARK    9  A    between atoms: N_34  and  S_35 
REMARK   10  A    between atoms: S_35  and  C_38 
REMARK   11  A    between atoms: C_41  and  O_44 
ROOT
HETATM    1  C   UNK N   1      29.541  17.538   8.895  0.00  0.00     0.056 C 
HETATM    2  C   UNK N   1      30.407  17.400   7.689  0.00  0.00     0.026 A 
HETATM    3  C   UNK N   1      31.773  17.079   7.845  0.00  0.00     0.112 A 
HETATM    4  N   UNK N   1      32.564  16.982   6.749  0.00  0.00    -0.332 N 
ATOM      5  HN  UNK N   1      33.557  16.784   6.867  1.00  0.00     0.168 HD
HETATM    6  C   UNK N   1      32.065  17.146   5.498  0.00  0.00     0.080 A 
HETATM    7  N   UNK N   1      30.742  17.394   5.318  0.00  0.00    -0.332 N 
ATOM      8  HN  UNK N   1      30.376  17.472   4.369  1.00  0.00     0.168 HD
HETATM    9  C   UNK N   1      29.891  17.543   6.369  0.00  0.00     0.114 A 
HETATM   10  C   UNK N   1      32.961  17.011   4.322  0.00  0.00     0.089 C 
ENDROOT
BRANCH   3  11
HETATM   11  N   UNK N   1      32.336  16.774   9.118  0.00  0.00    -0.373 N 
HETATM   12  H   UNK N   1      32.497  17.506   9.756  0.00  0.00     0.161 HD
BRANCH  11  13
HETATM   13  C   UNK N   1      32.677  15.419   9.501  0.00  0.00     0.158 C 
BRANCH  13  14
HETATM   14  C   UNK N   1      34.139  15.250   9.895  0.00  0.00     0.208 C 
BRANCH  14  15
HETATM   15  C   UNK N   1      34.967  16.362   9.334  0.00  0.00     0.165 C 
HETATM   16  O   UNK N   1      35.180  16.413   8.135  0.00  0.00    -0.648 OA
BRANCH  15  17
HETATM   17  O   UNK N   1      35.459  17.320  10.142  0.00  0.00    -0.775 OA
HETATM   18  H   UNK N   1      35.102  18.008  10.668  0.00  0.00     0.167 HD
ENDBRANCH  15  17
ENDBRANCH  14  15
BRANCH  14  19
HETATM   19  N   UNK N   1      34.299  15.153  11.343  0.00  0.00    -0.299 N 
HETATM   20  H   UNK N   1      33.905  15.797  12.029  0.00  0.00     0.173 HD
BRANCH  19  21
HETATM   21  S   UNK N   1      35.293  13.730  11.713  0.00  0.00     0.259 S 
HETATM   22  O   UNK N   1      34.763  12.647  10.761  0.00  0.00    -0.201 OA
HETATM   23  O   UNK N   1      36.688  14.019  11.135  0.00  0.00    -0.201 OA
BRANCH  21  24
HETATM   24  C   UNK N   1      35.303  13.168  13.411  0.00  0.00     0.079 A 
HETATM   25  C   UNK N   1      36.042  13.842  14.388  0.00  0.00     0.028 A 
HETATM   26  C   UNK N   1      36.047  13.367  15.705  0.00  0.00     0.038 A 
HETATM   27  C   UNK N   1      35.309  12.216  16.048  0.00  0.00     0.068 A 
HETATM   28  C   UNK N   1      34.572  11.559  15.063  0.00  0.00     0.038 A 
HETATM   29  C   UNK N   1      34.574  12.032  13.754  0.00  0.00     0.028 A 
BRANCH  27  30
HETATM   30  O   UNK N   1      35.298  11.720  17.306  0.00  0.00    -0.356 OA
HETATM   31  C   UNK N   1      35.198  12.508  18.429  0.00  0.00     0.210 C 
ENDBRANCH  27  30
ENDBRANCH  21  24
ENDBRANCH  19  21
ENDBRANCH  14  19
ENDBRANCH  13  14
ENDBRANCH  11  13
ENDBRANCH   3  11
BRANCH   9  32
HETATM   32  N   UNK N   1      28.496  17.768   6.108  0.00  0.00    -0.367 N 
HETATM   33  C   UNK N   1      28.014  19.113   5.885  0.00  0.00     0.125 C 
HETATM   34  C   UNK N   1      27.680  19.271   4.386  0.00  0.00     0.030 C 
HETATM   35  C   UNK N   1      26.846  18.091   3.823  0.00  0.00     0.038 C 
HETATM   36  C   UNK N   1      27.429  16.744   4.245  0.00  0.00     0.030 C 
HETATM   37  C   UNK N   1      27.595  16.704   5.753  0.00  0.00     0.125 C 
BRANCH  35  38
HETATM   38  C   UNK N   1      25.381  18.157   4.150  0.00  0.00     0.015 A 
HETATM   39  C   UNK N   1      24.591  19.160   3.568  0.00  0.00     0.026 A 
HETATM   40  C   UNK N   1      23.232  19.223   3.857  0.00  0.00     0.013 A 
HETATM   41  C   UNK N   1      22.679  18.307   4.746  0.00  0.00    -0.014 A 
HETATM   42  C   UNK N   1      23.499  17.332   5.337  0.00  0.00     0.107 A 
HETATM   43  C   UNK N   1      21.222  18.362   5.075  0.00  0.00     0.044 C 
HETATM   44  N   UNK N   1      24.819  17.271   5.019  0.00  0.00    -0.345 N 
HETATM   45  N   UNK N   1      22.958  16.430   6.287  0.00  0.00    -0.376 N 
ATOM     46  HN  UNK N   1      25.402  16.548   5.441  1.00  0.00     0.167 HD
HETATM   47  C   UNK N   1      21.582  16.524   6.740  0.00  0.00     0.121 C 
HETATM   48  H   UNK N   1      23.533  15.719   6.651  0.00  0.00     0.161 HD
HETATM   49  C   UNK N   1      21.004  17.925   6.518  0.00  0.00     0.024 C 
ENDBRANCH  35  38
ENDBRANCH   9  32
TORSDOF 11
ENDMDL
MODEL 6
REMARK VINA RESULT:      -8.8      4.681     13.038
REMARK  11 active torsions:
REMARK  status: ('A' for Active; 'I' for Inactive)
REMARK    1  A    between atoms: C_3  and  N_28 
REMARK    2  A    between atoms: C_9  and  N_10 
REMARK    3  A    between atoms: C_13  and  C_16 
REMARK    4  A    between atoms: N_28  and  C_29 
REMARK    5  A    between atoms: C_29  and  C_30 
REMARK    6  A    between atoms: C_30  and  C_31 
REMARK    7  A    between atoms: C_30  and  N_34 
REMARK    8  A    between atoms: C_31  and  O_33 
REMARK    9  A    between atoms: N_34  and  S_35 
REMARK   10  A    between atoms: S_35  and  C_38 
REMARK   11  A    between atoms: C_41  and  O_44 
ROOT
HETATM    1  C   UNK N   1      29.231  17.626   8.775  0.00  0.00     0.056 C 
HETATM    2  C   UNK N   1      29.819  17.464   7.414  0.00  0.00     0.026 A 
HETATM    3  C   UNK N   1      31.219  17.358   7.268  0.00  0.00     0.112 A 
HETATM    4  N   UNK N   1      31.753  17.240   6.028  0.00  0.00    -0.332 N 
ATOM      5  HN  UNK N   1      32.766  17.198   5.924  1.00  0.00     0.168 HD
HETATM    6  C   UNK N   1      30.969  17.178   4.922  0.00  0.00     0.080 A 
HETATM    7  N   UNK N   1      29.617  17.216   5.041  0.00  0.00    -0.332 N 
ATOM      8  HN  UNK N   1      29.042  17.124   4.203  1.00  0.00     0.168 HD
HETATM    9  C   UNK N   1      29.007  17.371   6.247  0.00  0.00     0.114 A 
HETATM   10  C   UNK N   1      31.592  17.027   3.583  0.00  0.00     0.089 C 
ENDROOT
BRANCH   3  11
HETATM   11  N   UNK N   1      32.092  17.293   8.392  0.00  0.00    -0.373 N 
HETATM   12  H   UNK N   1      32.173  18.078   8.980  0.00  0.00     0.161 HD
BRANCH  11  13
HETATM   13  C   UNK N   1      32.864  16.105   8.696  0.00  0.00     0.158 C 
BRANCH  13  14
HETATM   14  C   UNK N   1      34.329  16.396   9.000  0.00  0.00     0.208 C 
BRANCH  14  15
HETATM   15  C   UNK N   1      34.752  17.686   8.373  0.00  0.00     0.165 C 
HETATM   16  O   UNK N   1      34.570  17.867   7.181  0.00  0.00    -0.648 OA
BRANCH  15  17
HETATM   17  O   UNK N   1      35.309  18.657   9.119  0.00  0.00    -0.775 OA
HETATM   18  H   UNK N   1      35.982  19.299   9.000  0.00  0.00     0.167 HD
ENDBRANCH  15  17
ENDBRANCH  14  15
BRANCH  14  19
HETATM   19  N   UNK N   1      34.590  16.399  10.437  0.00  0.00    -0.299 N 
HETATM   20  H   UNK N   1      34.107  16.974  11.127  0.00  0.00     0.173 HD
BRANCH  19  21
HETATM   21  S   UNK N   1      35.886  15.238  10.784  0.00  0.00     0.259 S 
HETATM   22  O   UNK N   1      35.889  14.305   9.563  0.00  0.00    -0.201 OA
HETATM   23  O   UNK N   1      37.207  16.005  10.612  0.00  0.00    -0.201 OA
BRANCH  21  24
HETATM   24  C   UNK N   1      35.763  14.321  12.314  0.00  0.00     0.079 A 
HETATM   25  C   UNK N   1      36.412  14.761  13.472  0.00  0.00     0.028 A 
HETATM   26  C   UNK N   1      36.315  14.011  14.651  0.00  0.00     0.038 A 
HETATM   27  C   UNK N   1      35.565  12.819  14.673  0.00  0.00     0.068 A 
HETATM   28  C   UNK N   1      34.919  12.396  13.512  0.00  0.00     0.038 A 
HETATM   29  C   UNK N   1      35.022  13.141  12.341  0.00  0.00     0.028 A 
BRANCH  27  30
HETATM   30  O   UNK N   1      35.457  12.061  15.788  0.00  0.00    -0.356 OA
HETATM   31  C   UNK N   1      35.939  10.776  15.879  0.00  0.00     0.210 C 
ENDBRANCH  27  30
ENDBRANCH  21  24
ENDBRANCH  19  21
ENDBRANCH  14  19
ENDBRANCH  13  14
ENDBRANCH  11  13
ENDBRANCH   3  11
BRANCH   9  32
HETATM   32  N   UNK N   1      27.571  17.365   6.307  0.00  0.00    -0.367 N 
HETATM   33  C   UNK N   1      26.818  18.364   5.583  0.00  0.00     0.125 C 
HETATM   34  C   UNK N   1      26.148  17.688   4.368  0.00  0.00     0.030 C 
HETATM   35  C   UNK N   1      25.440  16.356   4.729  0.00  0.00     0.038 C 
HETATM   36  C   UNK N   1      26.335  15.465   5.589  0.00  0.00     0.030 C 
HETATM   37  C   UNK N   1      26.823  16.238   6.799  0.00  0.00     0.125 C 
BRANCH  35  38
HETATM   38  C   UNK N   1      24.093  16.524   5.370  0.00  0.00     0.015 A 
HETATM   39  C   UNK N   1      23.361  17.698   5.133  0.00  0.00     0.026 A 
HETATM   40  C   UNK N   1      22.107  17.860   5.714  0.00  0.00     0.013 A 
HETATM   41  C   UNK N   1      21.609  16.866   6.550  0.00  0.00    -0.014 A 
HETATM   42  C   UNK N   1      22.375  15.715   6.794  0.00  0.00     0.107 A 
HETATM   43  C   UNK N   1      20.267  17.023   7.190  0.00  0.00     0.044 C 
HETATM   44  N   UNK N   1      23.586  15.565   6.194  0.00  0.00    -0.345 N 
HETATM   45  N   UNK N   1      21.902  14.722   7.689  0.00  0.00    -0.376 N 
ATOM     46  HN  UNK N   1      24.126  14.717   6.363  1.00  0.00     0.167 HD
HETATM   47  C   UNK N   1      20.668  14.886   8.436  0.00  0.00     0.121 C 
HETATM   48  H   UNK N   1      22.426  13.897   7.806  0.00  0.00     0.161 HD
HETATM   49  C   UNK N   1      20.271  16.359   8.561  0.00  0.00     0.024 C 
ENDBRANCH  35  38
ENDBRANCH   9  32
TORSDOF 11
ENDMDL
MODEL 7
REMARK VINA RESULT:      -8.6      4.673     13.578
REMARK  11 active torsions:
REMARK  status: ('A' for Active; 'I' for Inactive)
REMARK    1  A    between atoms: C_3  and  N_28 
REMARK    2  A    between atoms: C_9  and  N_10 
REMARK    3  A    between atoms: C_13  and  C_16 
REMARK    4  A    between atoms: N_28  and  C_29 
REMARK    5  A    between atoms: C_29  and  C_30 
REMARK    6  A    between atoms: C_30  and  C_31 
REMARK    7  A    between atoms: C_30  and  N_34 
REMARK    8  A    between atoms: C_31  and  O_33 
REMARK    9  A    between atoms: N_34  and  S_35 
REMARK   10  A    between atoms: S_35  and  C_38 
REMARK   11  A    between atoms: C_41  and  O_44 
ROOT
HETATM    1  C   UNK N   1      29.118  17.270   8.056  0.00  0.00     0.056 C 
HETATM    2  C   UNK N   1      29.907  17.236   6.791  0.00  0.00     0.026 A 
HETATM    3  C   UNK N   1      31.315  17.329   6.847  0.00  0.00     0.112 A 
HETATM    4  N   UNK N   1      32.029  17.327   5.694  0.00  0.00    -0.332 N 
ATOM      5  HN  UNK N   1      33.042  17.429   5.736  1.00  0.00     0.168 HD
HETATM    6  C   UNK N   1      31.425  17.194   4.487  0.00  0.00     0.080 A 
HETATM    7  N   UNK N   1      30.078  17.041   4.411  0.00  0.00    -0.332 N 
ATOM      8  HN  UNK N   1      29.645  16.899   3.498  1.00  0.00     0.168 HD
HETATM    9  C   UNK N   1      29.289  17.071   5.519  0.00  0.00     0.114 A 
HETATM   10  C   UNK N   1      32.245  17.176   3.249  0.00  0.00     0.089 C 
ENDROOT
BRANCH   3  11
HETATM   11  N   UNK N   1      32.022  17.348   8.083  0.00  0.00    -0.373 N 
HETATM   12  H   UNK N   1      32.086  18.193   8.584  0.00  0.00     0.161 HD
BRANCH  11  13
HETATM   13  C   UNK N   1      32.650  16.160   8.626  0.00  0.00     0.158 C 
BRANCH  13  14
HETATM   14  C   UNK N   1      34.127  16.347   8.946  0.00  0.00     0.208 C 
BRANCH  14  15
HETATM   15  C   UNK N   1      34.651  17.594   8.306  0.00  0.00     0.165 C 
HETATM   16  O   UNK N   1      35.078  18.498   9.004  0.00  0.00    -0.648 OA
BRANCH  15  17
HETATM   17  O   UNK N   1      34.677  17.714   6.967  0.00  0.00    -0.775 OA
HETATM   18  H   UNK N   1      35.339  17.797   6.309  0.00  0.00     0.167 HD
ENDBRANCH  15  17
ENDBRANCH  14  15
BRANCH  14  19
HETATM   19  N   UNK N   1      34.371  16.353  10.386  0.00  0.00    -0.299 N 
HETATM   20  H   UNK N   1      33.831  16.873  11.078  0.00  0.00     0.173 HD
BRANCH  19  21
HETATM   21  S   UNK N   1      35.760  15.306  10.734  0.00  0.00     0.259 S 
HETATM   22  O   UNK N   1      35.913  14.454   9.465  0.00  0.00    -0.201 OA
HETATM   23  O   UNK N   1      37.004  16.208  10.673  0.00  0.00    -0.201 OA
BRANCH  21  24
HETATM   24  C   UNK N   1      35.662  14.289  12.202  0.00  0.00     0.079 A 
HETATM   25  C   UNK N   1      34.929  13.099  12.206  0.00  0.00     0.028 A 
HETATM   26  C   UNK N   1      34.852  12.334  13.376  0.00  0.00     0.038 A 
HETATM   27  C   UNK N   1      35.513  12.759  14.546  0.00  0.00     0.068 A 
HETATM   28  C   UNK N   1      36.245  13.946  14.525  0.00  0.00     0.038 A 
HETATM   29  C   UNK N   1      36.314  14.705  13.360  0.00  0.00     0.028 A 
BRANCH  27  30
HETATM   30  O   UNK N   1      35.454  12.054  15.699  0.00  0.00    -0.356 OA
HETATM   31  C   UNK N   1      35.137  12.617  16.914  0.00  0.00     0.210 C 
ENDBRANCH  27  30
ENDBRANCH  21  24
ENDBRANCH  19  21
ENDBRANCH  14  19
ENDBRANCH  13  14
ENDBRANCH  11  13
ENDBRANCH   3  11
BRANCH   9  32
HETATM   32  N   UNK N   1      27.874  16.865   5.372  0.00  0.00    -0.367 N 
HETATM   33  C   UNK N   1      26.983  18.003   5.331  0.00  0.00     0.125 C 
HETATM   34  C   UNK N   1      26.477  18.177   3.884  0.00  0.00     0.030 C 
HETATM   35  C   UNK N   1      25.997  16.847   3.245  0.00  0.00     0.038 C 
HETATM   36  C   UNK N   1      27.004  15.722   3.477  0.00  0.00     0.030 C 
HETATM   37  C   UNK N   1      27.316  15.605   4.957  0.00  0.00     0.125 C 
BRANCH  35  38
HETATM   38  C   UNK N   1      24.622  16.417   3.667  0.00  0.00     0.015 A 
HETATM   39  C   UNK N   1      23.978  15.387   2.965  0.00  0.00     0.026 A 
HETATM   40  C   UNK N   1      22.707  14.974   3.355  0.00  0.00     0.013 A 
HETATM   41  C   UNK N   1      22.078  15.614   4.417  0.00  0.00    -0.014 A 
HETATM   42  C   UNK N   1      22.733  16.664   5.082  0.00  0.00     0.107 A 
HETATM   43  C   UNK N   1      20.710  15.192   4.847  0.00  0.00     0.044 C 
HETATM   44  N   UNK N   1      23.985  17.031   4.703  0.00  0.00    -0.345 N 
HETATM   45  N   UNK N   1      22.078  17.360   6.129  0.00  0.00    -0.376 N 
ATOM     46  HN  UNK N   1      24.459  17.782   5.205  1.00  0.00     0.167 HD
HETATM   47  C   UNK N   1      20.702  17.078   6.498  0.00  0.00     0.121 C 
HETATM   48  H   UNK N   1      22.571  18.056   6.621  0.00  0.00     0.161 HD
HETATM   49  C   UNK N   1      19.936  16.400   5.358  0.00  0.00     0.024 C 
ENDBRANCH  35  38
ENDBRANCH   9  32
TORSDOF 11
ENDMDL
MODEL 8
REMARK VINA RESULT:      -8.6      3.081      4.440
REMARK  11 active torsions:
REMARK  status: ('A' for Active; 'I' for Inactive)
REMARK    1  A    between atoms: C_3  and  N_28 
REMARK    2  A    between atoms: C_9  and  N_10 
REMARK    3  A    between atoms: C_13  and  C_16 
REMARK    4  A    between atoms: N_28  and  C_29 
REMARK    5  A    between atoms: C_29  and  C_30 
REMARK    6  A    between atoms: C_30  and  C_31 
REMARK    7  A    between atoms: C_30  and  N_34 
REMARK    8  A    between atoms: C_31  and  O_33 
REMARK    9  A    between atoms: N_34  and  S_35 
REMARK   10  A    between atoms: S_35  and  C_38 
REMARK   11  A    between atoms: C_41  and  O_44 
ROOT
HETATM    1  C   UNK N   1      34.760  13.090  16.981  0.00  0.00     0.056 C 
HETATM    2  C   UNK N   1      35.677  12.001  16.538  0.00  0.00     0.026 A 
HETATM    3  C   UNK N   1      36.461  12.179  15.378  0.00  0.00     0.112 A 
HETATM    4  N   UNK N   1      37.272  11.176  14.961  0.00  0.00    -0.332 N 
ATOM      5  HN  UNK N   1      37.811  11.295  14.104  1.00  0.00     0.168 HD
HETATM    6  C   UNK N   1      37.381  10.018  15.658  0.00  0.00     0.080 A 
HETATM    7  N   UNK N   1      36.684   9.846  16.811  0.00  0.00    -0.332 N 
ATOM      8  HN  UNK N   1      36.811   8.986  17.344  1.00  0.00     0.168 HD
HETATM    9  C   UNK N   1      35.821  10.790  17.274  0.00  0.00     0.114 A 
HETATM   10  C   UNK N   1      38.297   8.952  15.179  0.00  0.00     0.089 C 
ENDROOT
BRANCH   3  11
HETATM   11  N   UNK N   1      36.488  13.414  14.668  0.00  0.00    -0.373 N 
HETATM   12  H   UNK N   1      37.179  14.078  14.891  0.00  0.00     0.161 HD
BRANCH  11  13
HETATM   13  C   UNK N   1      35.529  13.721  13.626  0.00  0.00     0.158 C 
BRANCH  13  14
HETATM   14  C   UNK N   1      36.176  14.090  12.297  0.00  0.00     0.208 C 
BRANCH  14  15
HETATM   15  C   UNK N   1      37.065  12.987  11.818  0.00  0.00     0.165 C 
HETATM   16  O   UNK N   1      36.698  11.828  11.915  0.00  0.00    -0.648 OA
BRANCH  15  17
HETATM   17  O   UNK N   1      38.257  13.266  11.260  0.00  0.00    -0.775 OA
HETATM   18  H   UNK N   1      39.137  12.955  11.356  0.00  0.00     0.167 HD
ENDBRANCH  15  17
ENDBRANCH  14  15
BRANCH  14  19
HETATM   19  N   UNK N   1      35.177  14.435  11.289  0.00  0.00    -0.299 N 
HETATM   20  H   UNK N   1      34.363  13.872  11.042  0.00  0.00     0.173 HD
BRANCH  19  21
HETATM   21  S   UNK N   1      35.613  15.995  10.563  0.00  0.00     0.259 S 
HETATM   22  O   UNK N   1      35.175  17.029  11.611  0.00  0.00    -0.201 OA
HETATM   23  O   UNK N   1      37.146  16.088  10.635  0.00  0.00    -0.201 OA
BRANCH  21  24
HETATM   24  C   UNK N   1      34.930  16.358   8.951  0.00  0.00     0.079 A 
HETATM   25  C   UNK N   1      34.960  15.408   7.926  0.00  0.00     0.028 A 
HETATM   26  C   UNK N   1      34.435  15.728   6.667  0.00  0.00     0.038 A 
HETATM   27  C   UNK N   1      33.877  17.001   6.434  0.00  0.00     0.068 A 
HETATM   28  C   UNK N   1      33.849  17.935   7.469  0.00  0.00     0.038 A 
HETATM   29  C   UNK N   1      34.376  17.615   8.716  0.00  0.00     0.028 A 
BRANCH  27  30
HETATM   30  O   UNK N   1      33.371  17.352   5.229  0.00  0.00    -0.356 OA
HETATM   31  C   UNK N   1      32.092  17.045   4.827  0.00  0.00     0.210 C 
ENDBRANCH  27  30
ENDBRANCH  21  24
ENDBRANCH  19  21
ENDBRANCH  14  19
ENDBRANCH  13  14
ENDBRANCH  11  13
ENDBRANCH   3  11
BRANCH   9  32
HETATM   32  N   UNK N   1      35.143  10.561  18.521  0.00  0.00    -0.367 N 
HETATM   33  C   UNK N   1      34.215   9.459  18.641  0.00  0.00     0.125 C 
HETATM   34  C   UNK N   1      34.866   8.363  19.511  0.00  0.00     0.030 C 
HETATM   35  C   UNK N   1      35.514   8.921  20.805  0.00  0.00     0.038 C 
HETATM   36  C   UNK N   1      36.373  10.150  20.514  0.00  0.00     0.030 C 
HETATM   37  C   UNK N   1      35.559  11.179  19.751  0.00  0.00     0.125 C 
BRANCH  35  38
HETATM   38  C   UNK N   1      34.540   9.210  21.911  0.00  0.00     0.015 A 
HETATM   39  C   UNK N   1      33.170   9.000  21.692  0.00  0.00     0.026 A 
HETATM   40  C   UNK N   1      32.259   9.255  22.713  0.00  0.00     0.013 A 
HETATM   41  C   UNK N   1      32.719   9.747  23.930  0.00  0.00    -0.014 A 
HETATM   42  C   UNK N   1      34.093   9.977  24.111  0.00  0.00     0.107 A 
HETATM   43  C   UNK N   1      31.758  10.035  25.037  0.00  0.00     0.044 C 
HETATM   44  N   UNK N   1      34.967   9.695  23.110  0.00  0.00    -0.345 N 
HETATM   45  N   UNK N   1      34.566  10.533  25.327  0.00  0.00    -0.376 N 
ATOM     46  HN  UNK N   1      35.964   9.849  23.259  1.00  0.00     0.167 HD
HETATM   47  C   UNK N   1      33.663  10.952  26.384  0.00  0.00     0.121 C 
HETATM   48  H   UNK N   1      35.536  10.637  25.459  0.00  0.00     0.161 HD
HETATM   49  C   UNK N   1      32.252  11.223  25.852  0.00  0.00     0.024 C 
ENDBRANCH  35  38
ENDBRANCH   9  32
TORSDOF 11
ENDMDL
MODEL 9
REMARK VINA RESULT:      -8.5      9.303     14.530
REMARK  11 active torsions:
REMARK  status: ('A' for Active; 'I' for Inactive)
REMARK    1  A    between atoms: C_3  and  N_28 
REMARK    2  A    between atoms: C_9  and  N_10 
REMARK    3  A    between atoms: C_13  and  C_16 
REMARK    4  A    between atoms: N_28  and  C_29 
REMARK    5  A    between atoms: C_29  and  C_30 
REMARK    6  A    between atoms: C_30  and  C_31 
REMARK    7  A    between atoms: C_30  and  N_34 
REMARK    8  A    between atoms: C_31  and  O_33 
REMARK    9  A    between atoms: N_34  and  S_35 
REMARK   10  A    between atoms: S_35  and  C_38 
REMARK   11  A    between atoms: C_41  and  O_44 
ROOT
HETATM    1  C   UNK N   1      24.525  15.451   6.057  0.00  0.00     0.056 C 
HETATM    2  C   UNK N   1      24.666  16.700   5.254  0.00  0.00     0.026 A 
HETATM    3  C   UNK N   1      23.511  17.341   4.755  0.00  0.00     0.112 A 
HETATM    4  N   UNK N   1      23.643  18.460   4.002  0.00  0.00    -0.332 N 
ATOM      5  HN  UNK N   1      22.810  18.901   3.614  1.00  0.00     0.168 HD
HETATM    6  C   UNK N   1      24.860  19.006   3.751  0.00  0.00     0.080 A 
HETATM    7  N   UNK N   1      25.981  18.443   4.271  0.00  0.00    -0.332 N 
ATOM      8  HN  UNK N   1      26.883  18.891   4.107  1.00  0.00     0.168 HD
HETATM    9  C   UNK N   1      25.934  17.298   5.004  0.00  0.00     0.114 A 
HETATM   10  C   UNK N   1      24.960  20.244   2.938  0.00  0.00     0.089 C 
ENDROOT
BRANCH   3  11
HETATM   11  N   UNK N   1      22.199  16.893   5.082  0.00  0.00    -0.373 N 
HETATM   12  H   UNK N   1      22.063  15.949   5.321  0.00  0.00     0.161 HD
BRANCH  11  13
HETATM   13  C   UNK N   1      21.059  17.788   5.072  0.00  0.00     0.158 C 
BRANCH  13  14
HETATM   14  C   UNK N   1      19.914  17.301   4.192  0.00  0.00     0.208 C 
BRANCH  14  15
HETATM   15  C   UNK N   1      19.906  18.030   2.886  0.00  0.00     0.165 C 
HETATM   16  O   UNK N   1      20.960  18.378   2.381  0.00  0.00    -0.648 OA
BRANCH  15  17
HETATM   17  O   UNK N   1      18.746  18.283   2.253  0.00  0.00    -0.775 OA
HETATM   18  H   UNK N   1      18.104  17.778   1.794  0.00  0.00     0.167 HD
ENDBRANCH  15  17
ENDBRANCH  14  15
BRANCH  14  19
HETATM   19  N   UNK N   1      19.967  15.857   3.988  0.00  0.00    -0.299 N 
HETATM   20  H   UNK N   1      20.422  15.383   3.207  0.00  0.00     0.173 HD
BRANCH  19  21
HETATM   21  S   UNK N   1      19.112  15.059   5.322  0.00  0.00     0.259 S 
HETATM   22  O   UNK N   1      17.967  16.025   5.662  0.00  0.00    -0.201 OA
HETATM   23  O   UNK N   1      18.362  13.869   4.701  0.00  0.00    -0.201 OA
BRANCH  21  24
HETATM   24  C   UNK N   1      20.076  14.644   6.770  0.00  0.00     0.079 A 
HETATM   25  C   UNK N   1      20.110  15.493   7.881  0.00  0.00     0.028 A 
HETATM   26  C   UNK N   1      20.891  15.151   8.992  0.00  0.00     0.038 A 
HETATM   27  C   UNK N   1      21.637  13.956   8.995  0.00  0.00     0.068 A 
HETATM   28  C   UNK N   1      21.588  13.117   7.882  0.00  0.00     0.038 A 
HETATM   29  C   UNK N   1      20.815  13.463   6.778  0.00  0.00     0.028 A 
BRANCH  27  30
HETATM   30  O   UNK N   1      22.412  13.597  10.044  0.00  0.00    -0.356 OA
HETATM   31  C   UNK N   1      23.541  12.822   9.920  0.00  0.00     0.210 C 
ENDBRANCH  27  30
ENDBRANCH  21  24
ENDBRANCH  19  21
ENDBRANCH  14  19
ENDBRANCH  13  14
ENDBRANCH  11  13
ENDBRANCH   3  11
BRANCH   9  32
HETATM   32  N   UNK N   1      27.154  16.776   5.557  0.00  0.00    -0.367 N 
HETATM   33  C   UNK N   1      28.022  15.960   4.739  0.00  0.00     0.125 C 
HETATM   34  C   UNK N   1      29.273  16.786   4.376  0.00  0.00     0.030 C 
HETATM   35  C   UNK N   1      29.891  17.519   5.595  0.00  0.00     0.038 C 
HETATM   36  C   UNK N   1      28.822  18.238   6.414  0.00  0.00     0.030 C 
HETATM   37  C   UNK N   1      27.717  17.267   6.787  0.00  0.00     0.125 C 
BRANCH  35  38
HETATM   38  C   UNK N   1      30.734  16.645   6.480  0.00  0.00     0.015 A 
HETATM   39  C   UNK N   1      31.130  17.122   7.739  0.00  0.00     0.026 A 
HETATM   40  C   UNK N   1      31.903  16.317   8.571  0.00  0.00     0.013 A 
HETATM   41  C   UNK N   1      32.299  15.060   8.127  0.00  0.00    -0.014 A 
HETATM   42  C   UNK N   1      31.914  14.620   6.850  0.00  0.00     0.107 A 
HETATM   43  C   UNK N   1      33.136  14.182   9.002  0.00  0.00     0.044 C 
HETATM   44  N   UNK N   1      31.136  15.412   6.065  0.00  0.00    -0.345 N 
HETATM   45  N   UNK N   1      32.361  13.365   6.366  0.00  0.00    -0.376 N 
ATOM     46  HN  UNK N   1      30.847  15.076   5.147  1.00  0.00     0.167 HD
HETATM   47  C   UNK N   1      33.280  12.532   7.121  0.00  0.00     0.121 C 
HETATM   48  H   UNK N   1      32.037  13.048   5.492  0.00  0.00     0.161 HD
HETATM   49  C   UNK N   1      34.077  13.348   8.143  0.00  0.00     0.024 C 
ENDBRANCH  35  38
ENDBRANCH   9  32
TORSDOF 11
ENDMDL
