MODEL 1
REMARK VINA RESULT:      -7.2      0.000      0.000
REMARK  4 active torsions:
REMARK  status: ('A' for Active; 'I' for Inactive)
REMARK    1  A    between atoms: O_19  and  C_10 
REMARK    2  A    between atoms: C_15  and  O_20 
REMARK    3  A    between atoms: C_16  and  O_21 
REMARK    4  A    between atoms: C_17  and  O_22 
ROOT
HETATM    1  C   UNK N   1      30.399  22.466  -6.293  0.00  0.00     0.018 C 
HETATM    2  C   UNK N   1      26.624  24.569  -3.612  0.00  0.00     0.039 C 
HETATM    3  C   UNK N   1      27.676  28.549  -4.820  0.00  0.00     0.037 A 
HETATM    4  C   UNK N   1      27.812  23.998  -2.814  0.00  0.00     0.010 C 
HETATM    5  C   UNK N   1      28.573  27.492  -5.019  0.00  0.00     0.011 A 
HETATM    6  C   UNK N   1      30.533  25.335  -5.323  0.00  0.00     0.010 C 
HETATM    7  C   UNK N   1      31.572  24.235  -5.000  0.00  0.00     0.013 C 
HETATM    8  C   UNK N   1      26.066  27.016  -3.854  0.00  0.00     0.044 A 
HETATM    9  C   UNK N   1      26.956  25.959  -4.059  0.00  0.00    -0.049 A 
HETATM   10  C   UNK N   1      26.423  28.310  -4.244  0.00  0.00     0.066 A 
HETATM   11  C   UNK N   1      28.209  26.190  -4.647  0.00  0.00    -0.047 A 
HETATM   12  C   UNK N   1      29.106  24.992  -4.833  0.00  0.00     0.024 C 
HETATM   13  C   UNK N   1      29.190  24.192  -3.511  0.00  0.00     0.002 C 
HETATM   14  C   UNK N   1      29.849  22.809  -3.790  0.00  0.00     0.032 C 
HETATM   15  C   UNK N   1      30.536  22.142  -2.563  0.00  0.00     0.154 C 
HETATM   16  C   UNK N   1      32.014  22.063  -2.943  0.00  0.00     0.176 C 
HETATM   17  C   UNK N   1      31.930  21.764  -4.430  0.00  0.00     0.158 C 
HETATM   18  C   UNK N   1      30.939  22.830  -4.910  0.00  0.00    -0.009 C 
ENDROOT
BRANCH  10  19
HETATM   19  O   UNK N   1      25.562  29.324  -4.062  0.00  0.00    -0.361 OA
HETATM   20  H   UNK N   1      25.708  30.151  -4.479  0.00  0.00     0.217 HD
ENDBRANCH  10  19
BRANCH  15  21
HETATM   21  O   UNK N   1      30.348  22.813  -1.350  0.00  0.00    -0.392 OA
HETATM   22  H   UNK N   1      30.944  23.277  -0.742  0.00  0.00     0.210 HD
ENDBRANCH  15  21
BRANCH  17  23
HETATM   23  O   UNK N   1      33.170  21.839  -5.071  0.00  0.00    -0.392 OA
HETATM   24  H   UNK N   1      33.449  22.563  -5.652  0.00  0.00     0.210 HD
ENDBRANCH  17  23
BRANCH  16  25
HETATM   25  O   UNK N   1      32.688  21.064  -2.234  0.00  0.00    -0.390 OA
HETATM   26  H   UNK N   1      32.223  20.258  -1.958  0.00  0.00     0.210 HD
ENDBRANCH  16  25
TORSDOF 4
ENDMDL
MODEL 2
REMARK VINA RESULT:      -6.9      3.678      4.839
REMARK  4 active torsions:
REMARK  status: ('A' for Active; 'I' for Inactive)
REMARK    1  A    between atoms: O_19  and  C_10 
REMARK    2  A    between atoms: C_15  and  O_20 
REMARK    3  A    between atoms: C_16  and  O_21 
REMARK    4  A    between atoms: C_17  and  O_22 
ROOT
HETATM    1  C   UNK N   1      25.194  21.375  -7.765  0.00  0.00     0.018 C 
HETATM    2  C   UNK N   1      27.088  24.114  -3.922  0.00  0.00     0.039 C 
HETATM    3  C   UNK N   1      25.140  27.709  -5.223  0.00  0.00     0.037 A 
HETATM    4  C   UNK N   1      28.072  23.694  -5.030  0.00  0.00     0.010 C 
HETATM    5  C   UNK N   1      25.236  26.608  -6.084  0.00  0.00     0.011 A 
HETATM    6  C   UNK N   1      25.539  24.380  -7.963  0.00  0.00     0.010 C 
HETATM    7  C   UNK N   1      26.163  23.345  -8.930  0.00  0.00     0.013 C 
HETATM    8  C   UNK N   1      26.292  26.466  -3.489  0.00  0.00     0.044 A 
HETATM    9  C   UNK N   1      26.380  25.365  -4.343  0.00  0.00    -0.049 A 
HETATM   10  C   UNK N   1      25.662  27.635  -3.926  0.00  0.00     0.066 A 
HETATM   11  C   UNK N   1      25.848  25.427  -5.640  0.00  0.00    -0.047 A 
HETATM   12  C   UNK N   1      25.987  24.192  -6.494  0.00  0.00     0.024 C 
HETATM   13  C   UNK N   1      27.451  23.693  -6.457  0.00  0.00     0.002 C 
HETATM   14  C   UNK N   1      27.521  22.264  -7.071  0.00  0.00     0.032 C 
HETATM   15  C   UNK N   1      28.908  21.856  -7.649  0.00  0.00     0.154 C 
HETATM   16  C   UNK N   1      28.661  21.655  -9.144  0.00  0.00     0.176 C 
HETATM   17  C   UNK N   1      27.269  21.046  -9.142  0.00  0.00     0.158 C 
HETATM   18  C   UNK N   1      26.503  22.011  -8.231  0.00  0.00    -0.009 C 
ENDROOT
BRANCH  10  19
HETATM   19  O   UNK N   1      25.561  28.690  -3.101  0.00  0.00    -0.361 OA
HETATM   20  H   UNK N   1      25.145  28.601  -2.266  0.00  0.00     0.217 HD
ENDBRANCH  10  19
BRANCH  15  21
HETATM   21  O   UNK N   1      29.933  22.778  -7.413  0.00  0.00    -0.392 OA
HETATM   22  H   UNK N   1      29.997  23.742  -7.485  0.00  0.00     0.210 HD
ENDBRANCH  15  21
BRANCH  17  23
HETATM   23  O   UNK N   1      26.718  20.945 -10.422  0.00  0.00    -0.392 OA
HETATM   24  H   UNK N   1      25.768  20.912 -10.615  0.00  0.00     0.210 HD
ENDBRANCH  17  23
BRANCH  16  25
HETATM   25  O   UNK N   1      29.613  20.812  -9.725  0.00  0.00    -0.390 OA
HETATM   26  H   UNK N   1      30.279  20.370  -9.177  0.00  0.00     0.210 HD
ENDBRANCH  16  25
TORSDOF 4
ENDMDL
MODEL 3
REMARK VINA RESULT:      -6.9     14.528     17.311
REMARK  4 active torsions:
REMARK  status: ('A' for Active; 'I' for Inactive)
REMARK    1  A    between atoms: O_19  and  C_10 
REMARK    2  A    between atoms: C_15  and  O_20 
REMARK    3  A    between atoms: C_16  and  O_21 
REMARK    4  A    between atoms: C_17  and  O_22 
ROOT
HETATM    1  C   UNK N   1      20.486  14.144   4.394  0.00  0.00     0.018 C 
HETATM    2  C   UNK N   1      24.851  13.875   6.988  0.00  0.00     0.039 C 
HETATM    3  C   UNK N   1      22.880  12.785  10.640  0.00  0.00     0.037 A 
HETATM    4  C   UNK N   1      24.357  15.282   6.598  0.00  0.00     0.010 C 
HETATM    5  C   UNK N   1      22.141  13.303   9.568  0.00  0.00     0.011 A 
HETATM    6  C   UNK N   1      20.582  14.512   7.401  0.00  0.00     0.010 C 
HETATM    7  C   UNK N   1      20.014  15.541   6.395  0.00  0.00     0.013 C 
HETATM    8  C   UNK N   1      24.914  12.947   9.331  0.00  0.00     0.044 A 
HETATM    9  C   UNK N   1      24.178  13.454   8.258  0.00  0.00    -0.049 A 
HETATM   10  C   UNK N   1      24.262  12.602  10.519  0.00  0.00     0.066 A 
HETATM   11  C   UNK N   1      22.791  13.629   8.368  0.00  0.00    -0.047 A 
HETATM   12  C   UNK N   1      22.075  14.181   7.161  0.00  0.00     0.024 C 
HETATM   13  C   UNK N   1      22.810  15.443   6.650  0.00  0.00     0.002 C 
HETATM   14  C   UNK N   1      22.263  15.819   5.241  0.00  0.00     0.032 C 
HETATM   15  C   UNK N   1      22.430  17.315   4.842  0.00  0.00     0.154 C 
HETATM   16  C   UNK N   1      21.002  17.838   4.692  0.00  0.00     0.176 C 
HETATM   17  C   UNK N   1      20.298  16.631   4.095  0.00  0.00     0.158 C 
HETATM   18  C   UNK N   1      20.745  15.507   5.035  0.00  0.00    -0.009 C 
ENDROOT
BRANCH  10  19
HETATM   19  O   UNK N   1      24.965  12.099  11.546  0.00  0.00    -0.361 OA
HETATM   20  H   UNK N   1      24.529  11.816  12.326  0.00  0.00     0.217 HD
ENDBRANCH  10  19
BRANCH  15  21
HETATM   21  O   UNK N   1      23.170  18.083   5.747  0.00  0.00    -0.392 OA
HETATM   22  H   UNK N   1      22.948  18.814   6.344  0.00  0.00     0.210 HD
ENDBRANCH  15  21
BRANCH  17  23
HETATM   23  O   UNK N   1      18.910  16.782   4.041  0.00  0.00    -0.392 OA
HETATM   24  H   UNK N   1      18.276  16.259   4.556  0.00  0.00     0.210 HD
ENDBRANCH  17  23
BRANCH  16  25
HETATM   25  O   UNK N   1      20.936  18.961   3.862  0.00  0.00    -0.390 OA
HETATM   26  H   UNK N   1      20.079  19.349   3.627  0.00  0.00     0.210 HD
ENDBRANCH  16  25
TORSDOF 4
ENDMDL
MODEL 4
REMARK VINA RESULT:      -6.9      4.455      6.443
REMARK  4 active torsions:
REMARK  status: ('A' for Active; 'I' for Inactive)
REMARK    1  A    between atoms: O_19  and  C_10 
REMARK    2  A    between atoms: C_15  and  O_20 
REMARK    3  A    between atoms: C_16  and  O_21 
REMARK    4  A    between atoms: C_17  and  O_22 
ROOT
HETATM    1  C   UNK N   1      29.751  27.945  -5.500  0.00  0.00     0.018 C 
HETATM    2  C   UNK N   1      26.730  23.905  -4.856  0.00  0.00     0.039 C 
HETATM    3  C   UNK N   1      25.426  23.942  -8.943  0.00  0.00     0.037 A 
HETATM    4  C   UNK N   1      26.273  25.227  -4.212  0.00  0.00     0.010 C 
HETATM    5  C   UNK N   1      26.089  25.052  -8.405  0.00  0.00     0.011 A 
HETATM    6  C   UNK N   1      27.347  27.447  -7.279  0.00  0.00     0.010 C 
HETATM    7  C   UNK N   1      27.589  28.728  -6.445  0.00  0.00     0.013 C 
HETATM    8  C   UNK N   1      25.629  22.780  -6.825  0.00  0.00     0.044 A 
HETATM    9  C   UNK N   1      26.299  23.882  -6.290  0.00  0.00    -0.049 A 
HETATM   10  C   UNK N   1      25.202  22.806  -8.156  0.00  0.00     0.066 A 
HETATM   11  C   UNK N   1      26.537  25.019  -7.077  0.00  0.00    -0.047 A 
HETATM   12  C   UNK N   1      27.268  26.163  -6.419  0.00  0.00     0.024 C 
HETATM   13  C   UNK N   1      26.610  26.489  -5.058  0.00  0.00     0.002 C 
HETATM   14  C   UNK N   1      27.543  27.441  -4.252  0.00  0.00     0.032 C 
HETATM   15  C   UNK N   1      26.831  28.319  -3.181  0.00  0.00     0.154 C 
HETATM   16  C   UNK N   1      27.048  29.756  -3.653  0.00  0.00     0.176 C 
HETATM   17  C   UNK N   1      28.451  29.679  -4.229  0.00  0.00     0.158 C 
HETATM   18  C   UNK N   1      28.354  28.446  -5.134  0.00  0.00    -0.009 C 
ENDROOT
BRANCH  10  19
HETATM   19  O   UNK N   1      24.572  21.741  -8.677  0.00  0.00    -0.361 OA
HETATM   20  H   UNK N   1      23.652  21.772  -8.854  0.00  0.00     0.217 HD
ENDBRANCH  10  19
BRANCH  15  21
HETATM   21  O   UNK N   1      25.475  28.033  -2.997  0.00  0.00    -0.392 OA
HETATM   22  H   UNK N   1      24.734  27.880  -3.603  0.00  0.00     0.210 HD
ENDBRANCH  15  21
BRANCH  17  23
HETATM   23  O   UNK N   1      28.821  30.837  -4.919  0.00  0.00    -0.392 OA
HETATM   24  H   UNK N   1      29.479  31.479  -4.610  0.00  0.00     0.210 HD
ENDBRANCH  17  23
BRANCH  16  25
HETATM   25  O   UNK N   1      26.950  30.675  -2.604  0.00  0.00    -0.390 OA
HETATM   26  H   UNK N   1      26.286  30.556  -1.907  0.00  0.00     0.210 HD
ENDBRANCH  16  25
TORSDOF 4
ENDMDL
MODEL 5
REMARK VINA RESULT:      -6.8      4.194      5.716
REMARK  4 active torsions:
REMARK  status: ('A' for Active; 'I' for Inactive)
REMARK    1  A    between atoms: O_19  and  C_10 
REMARK    2  A    between atoms: C_15  and  O_20 
REMARK    3  A    between atoms: C_16  and  O_21 
REMARK    4  A    between atoms: C_17  and  O_22 
ROOT
HETATM    1  C   UNK N   1      28.364  22.429  -6.829  0.00  0.00     0.018 C 
HETATM    2  C   UNK N   1      27.643  27.433  -7.378  0.00  0.00     0.039 C 
HETATM    3  C   UNK N   1      25.741  27.811  -3.551  0.00  0.00     0.037 A 
HETATM    4  C   UNK N   1      26.767  26.504  -8.240  0.00  0.00     0.010 C 
HETATM    5  C   UNK N   1      25.923  26.547  -4.125  0.00  0.00     0.011 A 
HETATM    6  C   UNK N   1      26.158  23.897  -5.355  0.00  0.00     0.010 C 
HETATM    7  C   UNK N   1      25.949  22.690  -6.301  0.00  0.00     0.013 C 
HETATM    8  C   UNK N   1      26.824  28.846  -5.457  0.00  0.00     0.044 A 
HETATM    9  C   UNK N   1      27.015  27.585  -6.027  0.00  0.00    -0.049 A 
HETATM   10  C   UNK N   1      26.196  28.957  -4.214  0.00  0.00     0.066 A 
HETATM   11  C   UNK N   1      26.572  26.431  -5.363  0.00  0.00    -0.047 A 
HETATM   12  C   UNK N   1      26.820  25.111  -6.050  0.00  0.00     0.024 C 
HETATM   13  C   UNK N   1      26.344  25.190  -7.520  0.00  0.00     0.002 C 
HETATM   14  C   UNK N   1      26.883  23.955  -8.300  0.00  0.00     0.032 C 
HETATM   15  C   UNK N   1      26.061  23.556  -9.562  0.00  0.00     0.154 C 
HETATM   16  C   UNK N   1      25.522  22.161  -9.248  0.00  0.00     0.176 C 
HETATM   17  C   UNK N   1      26.681  21.554  -8.476  0.00  0.00     0.158 C 
HETATM   18  C   UNK N   1      26.983  22.649  -7.447  0.00  0.00    -0.009 C 
ENDROOT
BRANCH  10  19
HETATM   19  O   UNK N   1      26.026  30.167  -3.656  0.00  0.00    -0.361 OA
HETATM   20  H   UNK N   1      26.329  30.938  -4.094  0.00  0.00     0.217 HD
ENDBRANCH  10  19
BRANCH  15  21
HETATM   21  O   UNK N   1      25.035  24.445  -9.896  0.00  0.00    -0.392 OA
HETATM   22  H   UNK N   1      24.289  24.406 -10.515  0.00  0.00     0.210 HD
ENDBRANCH  15  21
BRANCH  17  23
HETATM   23  O   UNK N   1      26.362  20.325  -7.892  0.00  0.00    -0.392 OA
HETATM   24  H   UNK N   1      25.480  20.075  -7.575  0.00  0.00     0.210 HD
ENDBRANCH  17  23
BRANCH  16  25
HETATM   25  O   UNK N   1      25.216  21.442 -10.407  0.00  0.00    -0.390 OA
HETATM   26  H   UNK N   1      25.729  20.655 -10.647  0.00  0.00     0.210 HD
ENDBRANCH  16  25
TORSDOF 4
ENDMDL
MODEL 6
REMARK VINA RESULT:      -6.7     12.573     15.652
REMARK  4 active torsions:
REMARK  status: ('A' for Active; 'I' for Inactive)
REMARK    1  A    between atoms: O_19  and  C_10 
REMARK    2  A    between atoms: C_15  and  O_20 
REMARK    3  A    between atoms: C_16  and  O_21 
REMARK    4  A    between atoms: C_17  and  O_22 
ROOT
HETATM    1  C   UNK N   1      33.683  13.103   9.298  0.00  0.00     0.018 C 
HETATM    2  C   UNK N   1      31.690  17.114   6.890  0.00  0.00     0.039 C 
HETATM    3  C   UNK N   1      33.325  15.941   3.101  0.00  0.00     0.037 A 
HETATM    4  C   UNK N   1      32.872  17.387   7.840  0.00  0.00     0.010 C 
HETATM    5  C   UNK N   1      33.791  15.350   4.283  0.00  0.00     0.011 A 
HETATM    6  C   UNK N   1      34.890  14.193   6.740  0.00  0.00     0.010 C 
HETATM    7  C   UNK N   1      35.642  14.034   8.084  0.00  0.00     0.013 C 
HETATM    8  C   UNK N   1      31.764  17.288   4.377  0.00  0.00     0.044 A 
HETATM    9  C   UNK N   1      32.221  16.693   5.555  0.00  0.00    -0.049 A 
HETATM   10  C   UNK N   1      32.310  16.903   3.149  0.00  0.00     0.066 A 
HETATM   11  C   UNK N   1      33.230  15.719   5.514  0.00  0.00    -0.047 A 
HETATM   12  C   UNK N   1      33.661  15.129   6.834  0.00  0.00     0.024 C 
HETATM   13  C   UNK N   1      33.949  16.264   7.844  0.00  0.00     0.002 C 
HETATM   14  C   UNK N   1      34.085  15.657   9.272  0.00  0.00     0.032 C 
HETATM   15  C   UNK N   1      34.925  16.500  10.275  0.00  0.00     0.154 C 
HETATM   16  C   UNK N   1      36.122  15.614  10.618  0.00  0.00     0.176 C 
HETATM   17  C   UNK N   1      35.485  14.235  10.632  0.00  0.00     0.158 C 
HETATM   18  C   UNK N   1      34.718  14.228   9.306  0.00  0.00    -0.009 C 
ENDROOT
BRANCH  10  19
HETATM   19  O   UNK N   1      31.861  17.462   2.013  0.00  0.00    -0.361 OA
HETATM   20  H   UNK N   1      32.398  17.472   1.244  0.00  0.00     0.217 HD
ENDBRANCH  10  19
BRANCH  15  21
HETATM   21  O   UNK N   1      35.327  17.751   9.796  0.00  0.00    -0.392 OA
HETATM   22  H   UNK N   1      35.076  18.286   9.027  0.00  0.00     0.210 HD
ENDBRANCH  15  21
BRANCH  17  23
HETATM   23  O   UNK N   1      36.423  13.204  10.729  0.00  0.00    -0.392 OA
HETATM   24  H   UNK N   1      37.027  12.936  10.019  0.00  0.00     0.210 HD
ENDBRANCH  17  23
BRANCH  16  25
HETATM   25  O   UNK N   1      36.693  15.953  11.848  0.00  0.00    -0.390 OA
HETATM   26  H   UNK N   1      36.514  15.418  12.637  0.00  0.00     0.210 HD
ENDBRANCH  16  25
TORSDOF 4
ENDMDL
MODEL 7
REMARK VINA RESULT:      -6.7     22.875     25.151
REMARK  4 active torsions:
REMARK  status: ('A' for Active; 'I' for Inactive)
REMARK    1  A    between atoms: O_19  and  C_10 
REMARK    2  A    between atoms: C_15  and  O_20 
REMARK    3  A    between atoms: C_16  and  O_21 
REMARK    4  A    between atoms: C_17  and  O_22 
ROOT
HETATM    1  C   UNK N   1      38.179   9.558  13.942  0.00  0.00     0.018 C 
HETATM    2  C   UNK N   1      35.492  13.377  15.957  0.00  0.00     0.039 C 
HETATM    3  C   UNK N   1      35.295  11.508  19.813  0.00  0.00     0.037 A 
HETATM    4  C   UNK N   1      34.760  12.459  14.959  0.00  0.00     0.010 C 
HETATM    5  C   UNK N   1      35.688  10.768  18.691  0.00  0.00     0.011 A 
HETATM    6  C   UNK N   1      36.377   9.151  16.346  0.00  0.00     0.010 C 
HETATM    7  C   UNK N   1      36.272   8.375  15.011  0.00  0.00     0.013 C 
HETATM    8  C   UNK N   1      35.052  13.488  18.436  0.00  0.00     0.044 A 
HETATM    9  C   UNK N   1      35.452  12.754  17.318  0.00  0.00    -0.049 A 
HETATM   10  C   UNK N   1      34.983  12.866  19.686  0.00  0.00     0.066 A 
HETATM   11  C   UNK N   1      35.777  11.395  17.440  0.00  0.00    -0.047 A 
HETATM   12  C   UNK N   1      36.201  10.679  16.181  0.00  0.00     0.024 C 
HETATM   13  C   UNK N   1      35.184  10.965  15.051  0.00  0.00     0.002 C 
HETATM   14  C   UNK N   1      35.781  10.493  13.693  0.00  0.00     0.032 C 
HETATM   15  C   UNK N   1      34.736  10.155  12.589  0.00  0.00     0.154 C 
HETATM   16  C   UNK N   1      34.930   8.663  12.316  0.00  0.00     0.176 C 
HETATM   17  C   UNK N   1      36.436   8.522  12.460  0.00  0.00     0.158 C 
HETATM   18  C   UNK N   1      36.694   9.228  13.795  0.00  0.00    -0.009 C 
ENDROOT
BRANCH  10  19
HETATM   19  O   UNK N   1      34.615  13.574  20.766  0.00  0.00    -0.361 OA
HETATM   20  H   UNK N   1      34.768  13.240  21.629  0.00  0.00     0.217 HD
ENDBRANCH  10  19
BRANCH  15  21
HETATM   21  O   UNK N   1      33.412  10.451  12.926  0.00  0.00    -0.392 OA
HETATM   22  H   UNK N   1      32.908  11.276  13.003  0.00  0.00     0.210 HD
ENDBRANCH  15  21
BRANCH  17  23
HETATM   23  O   UNK N   1      36.860   7.190  12.453  0.00  0.00    -0.392 OA
HETATM   24  H   UNK N   1      37.688   6.871  12.844  0.00  0.00     0.210 HD
ENDBRANCH  17  23
BRANCH  16  25
HETATM   25  O   UNK N   1      34.477   8.297  11.046  0.00  0.00    -0.390 OA
HETATM   26  H   UNK N   1      35.081   7.887  10.408  0.00  0.00     0.210 HD
ENDBRANCH  16  25
TORSDOF 4
ENDMDL
MODEL 8
REMARK VINA RESULT:      -6.6     22.655     26.051
REMARK  4 active torsions:
REMARK  status: ('A' for Active; 'I' for Inactive)
REMARK    1  A    between atoms: O_19  and  C_10 
REMARK    2  A    between atoms: C_15  and  O_20 
REMARK    3  A    between atoms: C_16  and  O_21 
REMARK    4  A    between atoms: C_17  and  O_22 
ROOT
HETATM    1  C   UNK N   1      33.755  11.165  14.323  0.00  0.00     0.018 C 
HETATM    2  C   UNK N   1      37.085   8.456  17.050  0.00  0.00     0.039 C 
HETATM    3  C   UNK N   1      36.090  10.480  20.699  0.00  0.00     0.037 A 
HETATM    4  C   UNK N   1      37.666   9.505  16.082  0.00  0.00     0.010 C 
HETATM    5  C   UNK N   1      35.685  11.009  19.467  0.00  0.00     0.011 A 
HETATM    6  C   UNK N   1      34.939  12.221  16.906  0.00  0.00     0.010 C 
HETATM    7  C   UNK N   1      35.026  12.926  15.531  0.00  0.00     0.013 C 
HETATM    8  C   UNK N   1      37.129   8.606  19.566  0.00  0.00     0.044 A 
HETATM    9  C   UNK N   1      36.717   9.127  18.337  0.00  0.00    -0.049 A 
HETATM   10  C   UNK N   1      36.806   9.278  20.748  0.00  0.00     0.066 A 
HETATM   11  C   UNK N   1      35.989  10.325  18.282  0.00  0.00    -0.047 A 
HETATM   12  C   UNK N   1      35.584  10.814  16.913  0.00  0.00     0.024 C 
HETATM   13  C   UNK N   1      36.810  10.800  15.970  0.00  0.00     0.002 C 
HETATM   14  C   UNK N   1      36.329  11.000  14.502  0.00  0.00     0.032 C 
HETATM   15  C   UNK N   1      37.392  11.589  13.529  0.00  0.00     0.154 C 
HETATM   16  C   UNK N   1      36.813  12.934  13.091  0.00  0.00     0.176 C 
HETATM   17  C   UNK N   1      35.331  12.613  13.008  0.00  0.00     0.158 C 
HETATM   18  C   UNK N   1      35.079  11.927  14.355  0.00  0.00    -0.009 C 
ENDROOT
BRANCH  10  19
HETATM   19  O   UNK N   1      37.187   8.771  21.931  0.00  0.00    -0.361 OA
HETATM   20  H   UNK N   1      36.842   7.952  22.230  0.00  0.00     0.217 HD
ENDBRANCH  10  19
BRANCH  15  21
HETATM   21  O   UNK N   1      38.672  11.730  14.076  0.00  0.00    -0.392 OA
HETATM   22  H   UNK N   1      39.567  11.606  13.726  0.00  0.00     0.210 HD
ENDBRANCH  15  21
BRANCH  17  23
HETATM   23  O   UNK N   1      34.539  13.748  12.814  0.00  0.00    -0.392 OA
HETATM   24  H   UNK N   1      34.880  14.636  12.627  0.00  0.00     0.210 HD
ENDBRANCH  17  23
BRANCH  16  25
HETATM   25  O   UNK N   1      37.338  13.360  11.868  0.00  0.00    -0.390 OA
HETATM   26  H   UNK N   1      38.282  13.251  11.674  0.00  0.00     0.210 HD
ENDBRANCH  16  25
TORSDOF 4
ENDMDL
MODEL 9
REMARK VINA RESULT:      -6.6     11.473     13.063
REMARK  4 active torsions:
REMARK  status: ('A' for Active; 'I' for Inactive)
REMARK    1  A    between atoms: O_19  and  C_10 
REMARK    2  A    between atoms: C_15  and  O_20 
REMARK    3  A    between atoms: C_16  and  O_21 
REMARK    4  A    between atoms: C_17  and  O_22 
ROOT
HETATM    1  C   UNK N   1      31.506  13.740   5.339  0.00  0.00     0.018 C 
HETATM    2  C   UNK N   1      29.946  17.373   8.537  0.00  0.00     0.039 C 
HETATM    3  C   UNK N   1      27.718  19.416   5.492  0.00  0.00     0.037 A 
HETATM    4  C   UNK N   1      31.429  17.400   8.121  0.00  0.00     0.010 C 
HETATM    5  C   UNK N   1      28.656  18.437   5.141  0.00  0.00     0.011 A 
HETATM    6  C   UNK N   1      30.708  16.496   4.360  0.00  0.00     0.010 C 
HETATM    7  C   UNK N   1      32.080  15.824   4.113  0.00  0.00     0.013 C 
HETATM    8  C   UNK N   1      28.203  19.056   7.840  0.00  0.00     0.044 A 
HETATM    9  C   UNK N   1      29.132  18.072   7.492  0.00  0.00    -0.049 A 
HETATM   10  C   UNK N   1      27.489  19.720   6.838  0.00  0.00     0.066 A 
HETATM   11  C   UNK N   1      29.358  17.754   6.145  0.00  0.00    -0.047 A 
HETATM   12  C   UNK N   1      30.378  16.679   5.861  0.00  0.00     0.024 C 
HETATM   13  C   UNK N   1      31.678  16.971   6.646  0.00  0.00     0.002 C 
HETATM   14  C   UNK N   1      32.597  15.715   6.601  0.00  0.00     0.032 C 
HETATM   15  C   UNK N   1      34.116  15.996   6.800  0.00  0.00     0.154 C 
HETATM   16  C   UNK N   1      34.765  15.572   5.483  0.00  0.00     0.176 C 
HETATM   17  C   UNK N   1      33.929  14.360   5.110  0.00  0.00     0.158 C 
HETATM   18  C   UNK N   1      32.503  14.896   5.272  0.00  0.00    -0.009 C 
ENDROOT
BRANCH  10  19
HETATM   19  O   UNK N   1      26.583  20.654   7.171  0.00  0.00    -0.361 OA
HETATM   20  H   UNK N   1      26.577  21.024   8.032  0.00  0.00     0.217 HD
ENDBRANCH  10  19
BRANCH  15  21
HETATM   21  O   UNK N   1      34.428  17.319   7.129  0.00  0.00    -0.392 OA
HETATM   22  H   UNK N   1      34.571  18.124   6.607  0.00  0.00     0.210 HD
ENDBRANCH  15  21
BRANCH  17  23
HETATM   23  O   UNK N   1      34.195  13.892   3.820  0.00  0.00    -0.392 OA
HETATM   24  H   UNK N   1      33.689  13.200   3.367  0.00  0.00     0.210 HD
ENDBRANCH  17  23
BRANCH  16  25
HETATM   25  O   UNK N   1      36.119  15.262   5.639  0.00  0.00    -0.390 OA
HETATM   26  H   UNK N   1      36.409  14.675   6.354  0.00  0.00     0.210 HD
ENDBRANCH  16  25
TORSDOF 4
ENDMDL
