MODEL 1
REMARK VINA RESULT:      -8.4      0.000      0.000
REMARK  8 active torsions:
REMARK  status: ('A' for Active; 'I' for Inactive)
REMARK    1  A    between atoms: C_2  and  C_3 
REMARK    2  A    between atoms: C_2  and  C_9 
REMARK    3  A    between atoms: C_2  and  N_29 
REMARK    4  A    between atoms: C_9  and  O_11 
REMARK    5  A    between atoms: C_12  and  O_11 
REMARK    6  A    between atoms: N_14  and  C_20 
REMARK    7  A    between atoms: C_20  and  C_21 
REMARK    8  A    between atoms: C_21  and  C_22 
ROOT
HETATM    1  C   UNK N   1      34.612  14.505   9.420  0.00  0.00     0.162 C 
HETATM    2  C   UNK N   1      34.408  13.584  10.642  0.00  0.00     0.270 C 
HETATM    3  N   UNK N   1      35.560  13.658  11.561  0.00  0.00    -0.064 N 
HETATM    4  C   UNK N   1      36.795  13.299  10.837  0.00  0.00     0.238 C 
HETATM    5  C   UNK N   1      37.059  14.267   9.663  0.00  0.00     0.035 C 
HETATM    6  C   UNK N   1      35.924  15.290   9.581  0.00  0.00     0.020 C 
HETATM    7  C   UNK N   1      35.880  16.043  10.921  0.00  0.00     0.035 C 
HETATM    8  C   UNK N   1      35.690  15.035  12.078  0.00  0.00     0.238 C 
ENDROOT
BRANCH   1   9
HETATM    9  O   UNK N   1      33.574  15.389   9.218  0.00  0.00    -0.312 OA
BRANCH   9  10
HETATM   10  C   UNK N   1      32.698  15.349   8.179  0.00  0.00     0.303 C 
HETATM   11  O   UNK N   1      32.180  14.292   7.844  0.00  0.00    -0.262 OA
BRANCH  10  12
HETATM   12  C   UNK N   1      32.438  16.633   7.394  0.00  0.00     0.269 C 
HETATM   13  C   UNK N   1      33.505  17.666   7.776  0.00  0.00     0.066 C 
BRANCH  12  14
HETATM   14  C   UNK N   1      31.068  17.210   7.778  0.00  0.00    -0.010 A 
HETATM   15  C   UNK N   1      29.889  16.834   7.112  0.00  0.00     0.010 A 
HETATM   16  C   UNK N   1      28.657  17.387   7.475  0.00  0.00     0.001 A 
HETATM   17  C   UNK N   1      28.586  18.320   8.512  0.00  0.00     0.000 A 
HETATM   18  C   UNK N   1      29.746  18.698   9.189  0.00  0.00     0.001 A 
HETATM   19  C   UNK N   1      30.979  18.148   8.826  0.00  0.00     0.010 A 
ENDBRANCH  12  14
BRANCH  12  20
HETATM   20  N   UNK N   1      32.523  16.305   5.940  0.00  0.00     0.112 N 
HETATM   21  C   UNK N   1      33.765  15.611   5.569  0.00  0.00     0.274 C 
HETATM   22  C   UNK N   1      33.607  14.986   4.189  0.00  0.00     0.030 C 
HETATM   23  C   UNK N   1      33.331  16.088   3.171  0.00  0.00     0.003 C 
HETATM   24  C   UNK N   1      32.165  16.970   3.619  0.00  0.00     0.030 C 
HETATM   25  C   UNK N   1      32.400  17.465   5.048  0.00  0.00     0.274 C 
ENDBRANCH  12  20
ENDBRANCH  10  12
ENDBRANCH   9  10
ENDBRANCH   1   9
BRANCH   3  26
HETATM   26  C   UNK N   1      35.398  12.699  12.655  0.00  0.00     0.242 C 
BRANCH  26  27
HETATM   27  C   UNK N   1      36.531  12.771  13.688  0.00  0.00     0.066 C 
BRANCH  27  28
HETATM   28  C   UNK N   1      36.106  12.440  15.085  0.00  0.00    -0.056 A 
HETATM   29  C   UNK N   1      36.484  11.205  15.623  0.00  0.00     0.010 A 
HETATM   30  C   UNK N   1      36.117  10.863  16.927  0.00  0.00     0.043 A 
HETATM   31  C   UNK N   1      35.371  11.756  17.700  0.00  0.00     0.116 A 
HETATM   32  C   UNK N   1      34.989  12.991  17.170  0.00  0.00     0.043 A 
HETATM   33  F   UNK N   1      35.019  11.424  18.965  0.00  0.00    -0.206 F 
HETATM   34  C   UNK N   1      35.355  13.333  15.866  0.00  0.00     0.010 A 
ENDBRANCH  27  28
ENDBRANCH  26  27
ENDBRANCH   3  26
TORSDOF 8
ENDMDL
MODEL 2
REMARK VINA RESULT:      -8.2      3.698     10.111
REMARK  8 active torsions:
REMARK  status: ('A' for Active; 'I' for Inactive)
REMARK    1  A    between atoms: C_2  and  C_3 
REMARK    2  A    between atoms: C_2  and  C_9 
REMARK    3  A    between atoms: C_2  and  N_29 
REMARK    4  A    between atoms: C_9  and  O_11 
REMARK    5  A    between atoms: C_12  and  O_11 
REMARK    6  A    between atoms: N_14  and  C_20 
REMARK    7  A    between atoms: C_20  and  C_21 
REMARK    8  A    between atoms: C_21  and  C_22 
ROOT
HETATM    1  C   UNK N   1      36.173  14.154  12.570  0.00  0.00     0.162 C 
HETATM    2  C   UNK N   1      35.461  15.284  11.797  0.00  0.00     0.270 C 
HETATM    3  N   UNK N   1      35.335  14.950  10.365  0.00  0.00    -0.064 N 
HETATM    4  C   UNK N   1      36.672  14.691   9.798  0.00  0.00     0.238 C 
HETATM    5  C   UNK N   1      37.362  13.504  10.504  0.00  0.00     0.035 C 
HETATM    6  C   UNK N   1      36.455  12.979  11.620  0.00  0.00     0.020 C 
HETATM    7  C   UNK N   1      35.129  12.545  10.974  0.00  0.00     0.035 C 
HETATM    8  C   UNK N   1      34.505  13.738  10.213  0.00  0.00     0.238 C 
ENDROOT
BRANCH   1   9
HETATM    9  O   UNK N   1      35.459  13.698  13.659  0.00  0.00    -0.312 OA
BRANCH   9  10
HETATM   10  C   UNK N   1      36.002  13.230  14.814  0.00  0.00     0.303 C 
HETATM   11  O   UNK N   1      36.941  13.813  15.339  0.00  0.00    -0.262 OA
BRANCH  10  12
HETATM   12  C   UNK N   1      35.465  11.924  15.396  0.00  0.00     0.269 C 
HETATM   13  C   UNK N   1      34.026  11.724  14.907  0.00  0.00     0.066 C 
BRANCH  12  14
HETATM   14  C   UNK N   1      35.430  12.013  16.929  0.00  0.00    -0.010 A 
HETATM   15  C   UNK N   1      35.085  13.200  17.598  0.00  0.00     0.010 A 
HETATM   16  C   UNK N   1      35.076  13.255  18.995  0.00  0.00     0.001 A 
HETATM   17  C   UNK N   1      35.407  12.122  19.743  0.00  0.00     0.000 A 
HETATM   18  C   UNK N   1      35.743  10.933  19.094  0.00  0.00     0.001 A 
HETATM   19  C   UNK N   1      35.755  10.877  17.697  0.00  0.00     0.010 A 
ENDBRANCH  12  14
BRANCH  12  20
HETATM   20  N   UNK N   1      36.341  10.815  14.916  0.00  0.00     0.112 N 
HETATM   21  C   UNK N   1      37.708  11.250  14.591  0.00  0.00     0.274 C 
HETATM   22  C   UNK N   1      38.617  10.033  14.485  0.00  0.00     0.030 C 
HETATM   23  C   UNK N   1      38.107   9.125  13.370  0.00  0.00     0.003 C 
HETATM   24  C   UNK N   1      36.623   8.808  13.556  0.00  0.00     0.030 C 
HETATM   25  C   UNK N   1      35.828  10.104  13.738  0.00  0.00     0.274 C 
ENDBRANCH  12  20
ENDBRANCH  10  12
ENDBRANCH   9  10
ENDBRANCH   1   9
BRANCH   3  26
HETATM   26  C   UNK N   1      34.758  16.078   9.631  0.00  0.00     0.242 C 
BRANCH  26  27
HETATM   27  C   UNK N   1      33.320  15.816   9.166  0.00  0.00     0.066 C 
BRANCH  27  28
HETATM   28  C   UNK N   1      33.009  16.358   7.804  0.00  0.00    -0.056 A 
HETATM   29  C   UNK N   1      31.696  16.267   7.333  0.00  0.00     0.010 A 
HETATM   30  C   UNK N   1      31.363  16.770   6.072  0.00  0.00     0.043 A 
HETATM   31  C   UNK N   1      32.344  17.368   5.278  0.00  0.00     0.116 A 
HETATM   32  C   UNK N   1      33.659  17.462   5.741  0.00  0.00     0.043 A 
HETATM   33  F   UNK N   1      32.019  17.859   4.057  0.00  0.00    -0.206 F 
HETATM   34  C   UNK N   1      33.992  16.959   7.000  0.00  0.00     0.010 A 
ENDBRANCH  27  28
ENDBRANCH  26  27
ENDBRANCH   3  26
TORSDOF 8
ENDMDL
MODEL 3
REMARK VINA RESULT:      -8.1      6.853      9.904
REMARK  8 active torsions:
REMARK  status: ('A' for Active; 'I' for Inactive)
REMARK    1  A    between atoms: C_2  and  C_3 
REMARK    2  A    between atoms: C_2  and  C_9 
REMARK    3  A    between atoms: C_2  and  N_29 
REMARK    4  A    between atoms: C_9  and  O_11 
REMARK    5  A    between atoms: C_12  and  O_11 
REMARK    6  A    between atoms: N_14  and  C_20 
REMARK    7  A    between atoms: C_20  and  C_21 
REMARK    8  A    between atoms: C_21  and  C_22 
ROOT
HETATM    1  C   UNK N   1      26.059  15.289   5.479  0.00  0.00     0.162 C 
HETATM    2  C   UNK N   1      25.064  15.194   6.655  0.00  0.00     0.270 C 
HETATM    3  N   UNK N   1      24.213  13.994   6.535  0.00  0.00    -0.064 N 
HETATM    4  C   UNK N   1      23.498  14.021   5.245  0.00  0.00     0.238 C 
HETATM    5  C   UNK N   1      24.483  14.026   4.056  0.00  0.00     0.035 C 
HETATM    6  C   UNK N   1      25.919  14.046   4.585  0.00  0.00     0.020 C 
HETATM    7  C   UNK N   1      26.110  12.794   5.456  0.00  0.00     0.035 C 
HETATM    8  C   UNK N   1      25.059  12.784   6.591  0.00  0.00     0.238 C 
ENDROOT
BRANCH   1   9
HETATM    9  O   UNK N   1      27.373  15.415   5.880  0.00  0.00    -0.312 OA
BRANCH   9  10
HETATM   10  C   UNK N   1      28.368  15.978   5.145  0.00  0.00     0.303 C 
HETATM   11  O   UNK N   1      28.962  15.322   4.299  0.00  0.00    -0.262 OA
BRANCH  10  12
HETATM   12  C   UNK N   1      28.777  17.418   5.450  0.00  0.00     0.269 C 
HETATM   13  C   UNK N   1      30.081  17.726   4.706  0.00  0.00     0.066 C 
BRANCH  12  14
HETATM   14  C   UNK N   1      29.047  17.575   6.954  0.00  0.00    -0.010 A 
HETATM   15  C   UNK N   1      28.032  17.933   7.859  0.00  0.00     0.010 A 
HETATM   16  C   UNK N   1      28.311  18.083   9.221  0.00  0.00     0.001 A 
HETATM   17  C   UNK N   1      29.606  17.871   9.698  0.00  0.00     0.000 A 
HETATM   18  C   UNK N   1      30.623  17.506   8.814  0.00  0.00     0.001 A 
HETATM   19  C   UNK N   1      30.347  17.358   7.452  0.00  0.00     0.010 A 
ENDBRANCH  12  14
BRANCH  12  20
HETATM   20  N   UNK N   1      27.679  18.314   4.979  0.00  0.00     0.112 N 
HETATM   21  C   UNK N   1      27.145  17.939   3.661  0.00  0.00     0.274 C 
HETATM   22  C   UNK N   1      25.813  18.642   3.434  0.00  0.00     0.030 C 
HETATM   23  C   UNK N   1      26.032  20.151   3.470  0.00  0.00     0.003 C 
HETATM   24  C   UNK N   1      26.774  20.568   4.740  0.00  0.00     0.030 C 
HETATM   25  C   UNK N   1      28.047  19.734   4.902  0.00  0.00     0.274 C 
ENDBRANCH  12  20
ENDBRANCH  10  12
ENDBRANCH   9  10
ENDBRANCH   1   9
BRANCH   3  26
HETATM   26  C   UNK N   1      23.205  13.980   7.596  0.00  0.00     0.242 C 
BRANCH  26  27
HETATM   27  C   UNK N   1      22.823  12.562   8.041  0.00  0.00     0.066 C 
BRANCH  27  28
HETATM   28  C   UNK N   1      22.901  12.343   9.520  0.00  0.00    -0.056 A 
HETATM   29  C   UNK N   1      24.162  12.199  10.108  0.00  0.00     0.010 A 
HETATM   30  C   UNK N   1      24.279  12.003  11.487  0.00  0.00     0.043 A 
HETATM   31  C   UNK N   1      23.133  11.954  12.285  0.00  0.00     0.116 A 
HETATM   32  C   UNK N   1      21.869  12.097  11.705  0.00  0.00     0.043 A 
HETATM   33  F   UNK N   1      23.247  11.769  13.622  0.00  0.00    -0.206 F 
HETATM   34  C   UNK N   1      21.753  12.292  10.327  0.00  0.00     0.010 A 
ENDBRANCH  27  28
ENDBRANCH  26  27
ENDBRANCH   3  26
TORSDOF 8
ENDMDL
MODEL 4
REMARK VINA RESULT:      -7.8      7.983     10.378
REMARK  8 active torsions:
REMARK  status: ('A' for Active; 'I' for Inactive)
REMARK    1  A    between atoms: C_2  and  C_3 
REMARK    2  A    between atoms: C_2  and  C_9 
REMARK    3  A    between atoms: C_2  and  N_29 
REMARK    4  A    between atoms: C_9  and  O_11 
REMARK    5  A    between atoms: C_12  and  O_11 
REMARK    6  A    between atoms: N_14  and  C_20 
REMARK    7  A    between atoms: C_20  and  C_21 
REMARK    8  A    between atoms: C_21  and  C_22 
ROOT
HETATM    1  C   UNK N   1      25.121  16.225   5.450  0.00  0.00     0.162 C 
HETATM    2  C   UNK N   1      24.394  15.377   6.515  0.00  0.00     0.270 C 
HETATM    3  N   UNK N   1      22.944  15.313   6.243  0.00  0.00    -0.064 N 
HETATM    4  C   UNK N   1      22.389  16.679   6.194  0.00  0.00     0.238 C 
HETATM    5  C   UNK N   1      23.047  17.513   5.074  0.00  0.00     0.035 C 
HETATM    6  C   UNK N   1      24.118  16.672   4.375  0.00  0.00     0.020 C 
HETATM    7  C   UNK N   1      23.426  15.423   3.803  0.00  0.00     0.035 C 
HETATM    8  C   UNK N   1      22.716  14.655   4.942  0.00  0.00     0.238 C 
ENDROOT
BRANCH   1   9
HETATM    9  O   UNK N   1      26.172  15.566   4.846  0.00  0.00    -0.312 OA
BRANCH   9  10
HETATM   10  C   UNK N   1      27.202  16.164   4.192  0.00  0.00     0.303 C 
HETATM   11  O   UNK N   1      27.297  16.079   2.974  0.00  0.00    -0.262 OA
BRANCH  10  12
HETATM   12  C   UNK N   1      28.274  16.876   5.014  0.00  0.00     0.269 C 
HETATM   13  C   UNK N   1      28.347  16.220   6.398  0.00  0.00     0.066 C 
BRANCH  12  14
HETATM   14  C   UNK N   1      27.886  18.348   5.214  0.00  0.00    -0.010 A 
HETATM   15  C   UNK N   1      27.468  19.159   4.144  0.00  0.00     0.010 A 
HETATM   16  C   UNK N   1      27.134  20.501   4.353  0.00  0.00     0.001 A 
HETATM   17  C   UNK N   1      27.208  21.049   5.636  0.00  0.00     0.000 A 
HETATM   18  C   UNK N   1      27.613  20.255   6.710  0.00  0.00     0.001 A 
HETATM   19  C   UNK N   1      27.950  18.914   6.502  0.00  0.00     0.010 A 
ENDBRANCH  12  14
BRANCH  12  20
HETATM   20  N   UNK N   1      29.574  16.729   4.294  0.00  0.00     0.112 N 
HETATM   21  C   UNK N   1      30.070  15.345   4.260  0.00  0.00     0.274 C 
HETATM   22  C   UNK N   1      31.165  15.223   3.209  0.00  0.00     0.030 C 
HETATM   23  C   UNK N   1      32.316  16.154   3.578  0.00  0.00     0.003 C 
HETATM   24  C   UNK N   1      31.814  17.577   3.825  0.00  0.00     0.030 C 
HETATM   25  C   UNK N   1      30.661  17.559   4.830  0.00  0.00     0.274 C 
ENDBRANCH  12  20
ENDBRANCH  10  12
ENDBRANCH   9  10
ENDBRANCH   1   9
BRANCH   3  26
HETATM   26  C   UNK N   1      22.258  14.599   7.321  0.00  0.00     0.242 C 
BRANCH  26  27
HETATM   27  C   UNK N   1      22.800  13.180   7.539  0.00  0.00     0.066 C 
BRANCH  27  28
HETATM   28  C   UNK N   1      22.875  12.768   8.977  0.00  0.00    -0.056 A 
HETATM   29  C   UNK N   1      24.136  12.578   9.552  0.00  0.00     0.010 A 
HETATM   30  C   UNK N   1      24.249  12.204  10.894  0.00  0.00     0.043 A 
HETATM   31  C   UNK N   1      23.100  12.020  11.667  0.00  0.00     0.116 A 
HETATM   32  C   UNK N   1      21.837  12.207  11.100  0.00  0.00     0.043 A 
HETATM   33  F   UNK N   1      23.212  11.661  12.968  0.00  0.00    -0.206 F 
HETATM   34  C   UNK N   1      21.723  12.581   9.759  0.00  0.00     0.010 A 
ENDBRANCH  27  28
ENDBRANCH  26  27
ENDBRANCH   3  26
TORSDOF 8
ENDMDL
MODEL 5
REMARK VINA RESULT:      -7.8      3.652     10.020
REMARK  8 active torsions:
REMARK  status: ('A' for Active; 'I' for Inactive)
REMARK    1  A    between atoms: C_2  and  C_3 
REMARK    2  A    between atoms: C_2  and  C_9 
REMARK    3  A    between atoms: C_2  and  N_29 
REMARK    4  A    between atoms: C_9  and  O_11 
REMARK    5  A    between atoms: C_12  and  O_11 
REMARK    6  A    between atoms: N_14  and  C_20 
REMARK    7  A    between atoms: C_20  and  C_21 
REMARK    8  A    between atoms: C_21  and  C_22 
ROOT
HETATM    1  C   UNK N   1      35.832  14.226  11.296  0.00  0.00     0.162 C 
HETATM    2  C   UNK N   1      35.209  15.575  10.877  0.00  0.00     0.270 C 
HETATM    3  N   UNK N   1      34.627  15.494   9.523  0.00  0.00    -0.064 N 
HETATM    4  C   UNK N   1      35.667  15.078   8.562  0.00  0.00     0.238 C 
HETATM    5  C   UNK N   1      36.238  13.689   8.919  0.00  0.00     0.035 C 
HETATM    6  C   UNK N   1      35.574  13.179  10.200  0.00  0.00     0.020 C 
HETATM    7  C   UNK N   1      34.060  13.106   9.941  0.00  0.00     0.035 C 
HETATM    8  C   UNK N   1      33.538  14.498   9.514  0.00  0.00     0.238 C 
ENDROOT
BRANCH   1   9
HETATM    9  O   UNK N   1      35.356  13.751  12.500  0.00  0.00    -0.312 OA
BRANCH   9  10
HETATM   10  C   UNK N   1      36.093  13.609  13.634  0.00  0.00     0.303 C 
HETATM   11  O   UNK N   1      36.630  14.580  14.151  0.00  0.00    -0.262 OA
BRANCH  10  12
HETATM   12  C   UNK N   1      36.296  12.206  14.201  0.00  0.00     0.269 C 
HETATM   13  C   UNK N   1      37.800  11.916  14.266  0.00  0.00     0.066 C 
BRANCH  12  14
HETATM   14  C   UNK N   1      35.659  11.168  13.265  0.00  0.00    -0.010 A 
HETATM   15  C   UNK N   1      36.428  10.388  12.385  0.00  0.00     0.010 A 
HETATM   16  C   UNK N   1      35.820   9.461  11.534  0.00  0.00     0.001 A 
HETATM   17  C   UNK N   1      34.433   9.297  11.554  0.00  0.00     0.000 A 
HETATM   18  C   UNK N   1      33.654  10.058  12.428  0.00  0.00     0.001 A 
HETATM   19  C   UNK N   1      34.261  10.987  13.278  0.00  0.00     0.010 A 
ENDBRANCH  12  14
BRANCH  12  20
HETATM   20  N   UNK N   1      35.695  12.174  15.568  0.00  0.00     0.112 N 
HETATM   21  C   UNK N   1      35.907  13.416  16.328  0.00  0.00     0.274 C 
HETATM   22  C   UNK N   1      34.963  13.449  17.522  0.00  0.00     0.030 C 
HETATM   23  C   UNK N   1      35.260  12.257  18.426  0.00  0.00     0.003 C 
HETATM   24  C   UNK N   1      35.252  10.950  17.632  0.00  0.00     0.030 C 
HETATM   25  C   UNK N   1      36.169  11.071  16.413  0.00  0.00     0.274 C 
ENDBRANCH  12  20
ENDBRANCH  10  12
ENDBRANCH   9  10
ENDBRANCH   1   9
BRANCH   3  26
HETATM   26  C   UNK N   1      34.141  16.809   9.102  0.00  0.00     0.242 C 
BRANCH  26  27
HETATM   27  C   UNK N   1      32.673  16.790   8.654  0.00  0.00     0.066 C 
BRANCH  27  28
HETATM   28  C   UNK N   1      32.477  17.028   7.189  0.00  0.00    -0.056 A 
HETATM   29  C   UNK N   1      33.600  17.304   6.401  0.00  0.00     0.010 A 
HETATM   30  C   UNK N   1      33.461  17.521   5.028  0.00  0.00     0.043 A 
HETATM   31  C   UNK N   1      32.197  17.461   4.436  0.00  0.00     0.116 A 
HETATM   32  C   UNK N   1      31.071  17.186   5.215  0.00  0.00     0.043 A 
HETATM   33  F   UNK N   1      32.064  17.668   3.104  0.00  0.00    -0.206 F 
HETATM   34  C   UNK N   1      31.209  16.970   6.588  0.00  0.00     0.010 A 
ENDBRANCH  27  28
ENDBRANCH  26  27
ENDBRANCH   3  26
TORSDOF 8
ENDMDL
MODEL 6
REMARK VINA RESULT:      -7.8      7.314      9.732
REMARK  8 active torsions:
REMARK  status: ('A' for Active; 'I' for Inactive)
REMARK    1  A    between atoms: C_2  and  C_3 
REMARK    2  A    between atoms: C_2  and  C_9 
REMARK    3  A    between atoms: C_2  and  N_29 
REMARK    4  A    between atoms: C_9  and  O_11 
REMARK    5  A    between atoms: C_12  and  O_11 
REMARK    6  A    between atoms: N_14  and  C_20 
REMARK    7  A    between atoms: C_20  and  C_21 
REMARK    8  A    between atoms: C_21  and  C_22 
ROOT
HETATM    1  C   UNK N   1      25.678  15.536   6.444  0.00  0.00     0.162 C 
HETATM    2  C   UNK N   1      25.309  14.247   7.209  0.00  0.00     0.270 C 
HETATM    3  N   UNK N   1      24.430  13.382   6.397  0.00  0.00    -0.064 N 
HETATM    4  C   UNK N   1      23.216  14.129   6.015  0.00  0.00     0.238 C 
HETATM    5  C   UNK N   1      23.565  15.375   5.174  0.00  0.00     0.035 C 
HETATM    6  C   UNK N   1      25.085  15.481   5.027  0.00  0.00     0.020 C 
HETATM    7  C   UNK N   1      25.576  14.195   4.342  0.00  0.00     0.035 C 
HETATM    8  C   UNK N   1      25.143  12.965   5.174  0.00  0.00     0.238 C 
ENDROOT
BRANCH   1   9
HETATM    9  O   UNK N   1      27.037  15.755   6.361  0.00  0.00    -0.312 OA
BRANCH   9  10
HETATM   10  C   UNK N   1      27.745  16.605   7.151  0.00  0.00     0.303 C 
HETATM   11  O   UNK N   1      27.548  16.639   8.359  0.00  0.00    -0.262 OA
BRANCH  10  12
HETATM   12  C   UNK N   1      28.731  17.565   6.490  0.00  0.00     0.269 C 
HETATM   13  C   UNK N   1      29.606  18.197   7.579  0.00  0.00     0.066 C 
BRANCH  12  14
HETATM   14  C   UNK N   1      27.966  18.698   5.790  0.00  0.00    -0.010 A 
HETATM   15  C   UNK N   1      27.511  18.580   4.465  0.00  0.00     0.010 A 
HETATM   16  C   UNK N   1      26.829  19.633   3.848  0.00  0.00     0.001 A 
HETATM   17  C   UNK N   1      26.588  20.817   4.549  0.00  0.00     0.000 A 
HETATM   18  C   UNK N   1      27.025  20.947   5.868  0.00  0.00     0.001 A 
HETATM   19  C   UNK N   1      27.709  19.896   6.485  0.00  0.00     0.010 A 
ENDBRANCH  12  14
BRANCH  12  20
HETATM   20  N   UNK N   1      29.567  16.777   5.536  0.00  0.00     0.112 N 
HETATM   21  C   UNK N   1      30.218  15.613   6.155  0.00  0.00     0.274 C 
HETATM   22  C   UNK N   1      30.720  14.673   5.067  0.00  0.00     0.030 C 
HETATM   23  C   UNK N   1      31.738  15.409   4.203  0.00  0.00     0.003 C 
HETATM   24  C   UNK N   1      31.172  16.738   3.699  0.00  0.00     0.030 C 
HETATM   25  C   UNK N   1      30.622  17.552   4.872  0.00  0.00     0.274 C 
ENDBRANCH  12  20
ENDBRANCH  10  12
ENDBRANCH   9  10
ENDBRANCH   1   9
BRANCH   3  26
HETATM   26  C   UNK N   1      24.002  12.220   7.178  0.00  0.00     0.242 C 
BRANCH  26  27
HETATM   27  C   UNK N   1      22.731  12.483   7.996  0.00  0.00     0.066 C 
BRANCH  27  28
HETATM   28  C   UNK N   1      22.907  12.311   9.474  0.00  0.00    -0.056 A 
HETATM   29  C   UNK N   1      21.767  12.282  10.284  0.00  0.00     0.010 A 
HETATM   30  C   UNK N   1      21.889  12.113  11.665  0.00  0.00     0.043 A 
HETATM   31  C   UNK N   1      23.153  11.970  12.243  0.00  0.00     0.116 A 
HETATM   32  C   UNK N   1      24.297  11.999  11.441  0.00  0.00     0.043 A 
HETATM   33  F   UNK N   1      23.269  11.803  13.582  0.00  0.00    -0.206 F 
HETATM   34  C   UNK N   1      24.176  12.169  10.060  0.00  0.00     0.010 A 
ENDBRANCH  27  28
ENDBRANCH  26  27
ENDBRANCH   3  26
TORSDOF 8
ENDMDL
MODEL 7
REMARK VINA RESULT:      -7.7     16.661     19.703
REMARK  8 active torsions:
REMARK  status: ('A' for Active; 'I' for Inactive)
REMARK    1  A    between atoms: C_2  and  C_3 
REMARK    2  A    between atoms: C_2  and  C_9 
REMARK    3  A    between atoms: C_2  and  N_29 
REMARK    4  A    between atoms: C_9  and  O_11 
REMARK    5  A    between atoms: C_12  and  O_11 
REMARK    6  A    between atoms: N_14  and  C_20 
REMARK    7  A    between atoms: C_20  and  C_21 
REMARK    8  A    between atoms: C_21  and  C_22 
ROOT
HETATM    1  C   UNK N   1      26.221  23.040  -6.662  0.00  0.00     0.162 C 
HETATM    2  C   UNK N   1      27.650  22.457  -6.706  0.00  0.00     0.270 C 
HETATM    3  N   UNK N   1      27.945  21.873  -8.030  0.00  0.00    -0.064 N 
HETATM    4  C   UNK N   1      26.946  20.834  -8.345  0.00  0.00     0.238 C 
HETATM    5  C   UNK N   1      25.519  21.422  -8.391  0.00  0.00     0.035 C 
HETATM    6  C   UNK N   1      25.571  22.913  -8.049  0.00  0.00     0.020 C 
HETATM    7  C   UNK N   1      26.485  23.594  -9.081  0.00  0.00     0.035 C 
HETATM    8  C   UNK N   1      27.881  22.930  -9.059  0.00  0.00     0.238 C 
ENDROOT
BRANCH   1   9
HETATM    9  O   UNK N   1      26.179  24.358  -6.258  0.00  0.00    -0.312 OA
BRANCH   9  10
HETATM   10  C   UNK N   1      26.497  24.810  -5.016  0.00  0.00     0.303 C 
HETATM   11  O   UNK N   1      25.744  24.611  -4.072  0.00  0.00    -0.262 OA
BRANCH  10  12
HETATM   12  C   UNK N   1      27.771  25.632  -4.842  0.00  0.00     0.269 C 
HETATM   13  C   UNK N   1      28.336  25.961  -6.229  0.00  0.00     0.066 C 
BRANCH  12  14
HETATM   14  C   UNK N   1      28.826  24.806  -4.091  0.00  0.00    -0.010 A 
HETATM   15  C   UNK N   1      30.201  24.942  -4.351  0.00  0.00     0.010 A 
HETATM   16  C   UNK N   1      31.138  24.166  -3.662  0.00  0.00     0.001 A 
HETATM   17  C   UNK N   1      30.714  23.247  -2.699  0.00  0.00     0.000 A 
HETATM   18  C   UNK N   1      29.353  23.107  -2.422  0.00  0.00     0.001 A 
HETATM   19  C   UNK N   1      28.415  23.880  -3.113  0.00  0.00     0.010 A 
ENDBRANCH  12  14
BRANCH  12  20
HETATM   20  N   UNK N   1      27.412  26.884  -4.111  0.00  0.00     0.112 N 
HETATM   21  C   UNK N   1      26.384  27.684  -4.794  0.00  0.00     0.274 C 
HETATM   22  C   UNK N   1      25.811  28.710  -3.825  0.00  0.00     0.030 C 
HETATM   23  C   UNK N   1      26.931  29.635  -3.359  0.00  0.00     0.003 C 
HETATM   24  C   UNK N   1      28.118  28.833  -2.824  0.00  0.00     0.030 C 
HETATM   25  C   UNK N   1      28.545  27.780  -3.849  0.00  0.00     0.274 C 
ENDBRANCH  12  20
ENDBRANCH  10  12
ENDBRANCH   9  10
ENDBRANCH   1   9
BRANCH   3  26
HETATM   26  C   UNK N   1      29.259  21.229  -8.018  0.00  0.00     0.242 C 
BRANCH  26  27
HETATM   27  C   UNK N   1      30.382  22.169  -7.558  0.00  0.00     0.066 C 
BRANCH  27  28
HETATM   28  C   UNK N   1      31.216  21.624  -6.440  0.00  0.00    -0.056 A 
HETATM   29  C   UNK N   1      32.524  22.097  -6.291  0.00  0.00     0.010 A 
HETATM   30  C   UNK N   1      33.331  21.622  -5.253  0.00  0.00     0.043 A 
HETATM   31  C   UNK N   1      32.831  20.673  -4.358  0.00  0.00     0.116 A 
HETATM   32  C   UNK N   1      31.525  20.196  -4.500  0.00  0.00     0.043 A 
HETATM   33  F   UNK N   1      33.613  20.216  -3.351  0.00  0.00    -0.206 F 
HETATM   34  C   UNK N   1      30.719  20.669  -5.538  0.00  0.00     0.010 A 
ENDBRANCH  27  28
ENDBRANCH  26  27
ENDBRANCH   3  26
TORSDOF 8
ENDMDL
MODEL 8
REMARK VINA RESULT:      -7.7     17.911     21.294
REMARK  8 active torsions:
REMARK  status: ('A' for Active; 'I' for Inactive)
REMARK    1  A    between atoms: C_2  and  C_3 
REMARK    2  A    between atoms: C_2  and  C_9 
REMARK    3  A    between atoms: C_2  and  N_29 
REMARK    4  A    between atoms: C_9  and  O_11 
REMARK    5  A    between atoms: C_12  and  O_11 
REMARK    6  A    between atoms: N_14  and  C_20 
REMARK    7  A    between atoms: C_20  and  C_21 
REMARK    8  A    between atoms: C_21  and  C_22 
ROOT
HETATM    1  C   UNK N   1      25.767  25.686  -7.895  0.00  0.00     0.162 C 
HETATM    2  C   UNK N   1      26.783  24.551  -7.642  0.00  0.00     0.270 C 
HETATM    3  N   UNK N   1      27.348  24.052  -8.911  0.00  0.00    -0.064 N 
HETATM    4  C   UNK N   1      26.257  23.591  -9.791  0.00  0.00     0.238 C 
HETATM    5  C   UNK N   1      25.281  24.740 -10.124  0.00  0.00     0.035 C 
HETATM    6  C   UNK N   1      25.723  26.011  -9.396  0.00  0.00     0.020 C 
HETATM    7  C   UNK N   1      27.149  26.343  -9.867  0.00  0.00     0.035 C 
HETATM    8  C   UNK N   1      28.082  25.141  -9.585  0.00  0.00     0.238 C 
ENDROOT
BRANCH   1   9
HETATM    9  O   UNK N   1      26.044  26.837  -7.187  0.00  0.00    -0.312 OA
BRANCH   9  10
HETATM   10  C   UNK N   1      25.564  27.132  -5.950  0.00  0.00     0.303 C 
HETATM   11  O   UNK N   1      24.358  27.144  -5.738  0.00  0.00    -0.262 OA
BRANCH  10  12
HETATM   12  C   UNK N   1      26.555  27.522  -4.856  0.00  0.00     0.269 C 
HETATM   13  C   UNK N   1      25.771  27.907  -3.596  0.00  0.00     0.066 C 
BRANCH  12  14
HETATM   14  C   UNK N   1      27.363  28.751  -5.298  0.00  0.00    -0.010 A 
HETATM   15  C   UNK N   1      28.160  28.741  -6.456  0.00  0.00     0.010 A 
HETATM   16  C   UNK N   1      28.895  29.870  -6.827  0.00  0.00     0.001 A 
HETATM   17  C   UNK N   1      28.840  31.028  -6.048  0.00  0.00     0.000 A 
HETATM   18  C   UNK N   1      28.047  31.058  -4.900  0.00  0.00     0.001 A 
HETATM   19  C   UNK N   1      27.313  29.929  -4.526  0.00  0.00     0.010 A 
ENDBRANCH  12  14
BRANCH  12  20
HETATM   20  N   UNK N   1      27.429  26.341  -4.590  0.00  0.00     0.112 N 
HETATM   21  C   UNK N   1      26.775  25.301  -3.781  0.00  0.00     0.274 C 
HETATM   22  C   UNK N   1      27.569  24.005  -3.879  0.00  0.00     0.030 C 
HETATM   23  C   UNK N   1      28.977  24.241  -3.340  0.00  0.00     0.003 C 
HETATM   24  C   UNK N   1      29.627  25.450  -4.014  0.00  0.00     0.030 C 
HETATM   25  C   UNK N   1      28.698  26.663  -3.925  0.00  0.00     0.274 C 
ENDBRANCH  12  20
ENDBRANCH  10  12
ENDBRANCH   9  10
ENDBRANCH   1   9
BRANCH   3  26
HETATM   26  C   UNK N   1      28.222  22.905  -8.659  0.00  0.00     0.242 C 
BRANCH  26  27
HETATM   27  C   UNK N   1      28.177  22.426  -7.203  0.00  0.00     0.066 C 
BRANCH  27  28
HETATM   28  C   UNK N   1      29.517  22.364  -6.537  0.00  0.00    -0.056 A 
HETATM   29  C   UNK N   1      30.470  23.335  -6.862  0.00  0.00     0.010 A 
HETATM   30  C   UNK N   1      31.729  23.319  -6.256  0.00  0.00     0.043 A 
HETATM   31  C   UNK N   1      32.040  22.330  -5.319  0.00  0.00     0.116 A 
HETATM   32  C   UNK N   1      31.094  21.356  -4.989  0.00  0.00     0.043 A 
HETATM   33  F   UNK N   1      33.259  22.317  -4.729  0.00  0.00    -0.206 F 
HETATM   34  C   UNK N   1      29.836  21.372  -5.595  0.00  0.00     0.010 A 
ENDBRANCH  27  28
ENDBRANCH  26  27
ENDBRANCH   3  26
TORSDOF 8
ENDMDL
MODEL 9
REMARK VINA RESULT:      -7.6     17.806     21.027
REMARK  8 active torsions:
REMARK  status: ('A' for Active; 'I' for Inactive)
REMARK    1  A    between atoms: C_2  and  C_3 
REMARK    2  A    between atoms: C_2  and  C_9 
REMARK    3  A    between atoms: C_2  and  N_29 
REMARK    4  A    between atoms: C_9  and  O_11 
REMARK    5  A    between atoms: C_12  and  O_11 
REMARK    6  A    between atoms: N_14  and  C_20 
REMARK    7  A    between atoms: C_20  and  C_21 
REMARK    8  A    between atoms: C_21  and  C_22 
ROOT
HETATM    1  C   UNK N   1      25.844  25.713  -7.769  0.00  0.00     0.162 C 
HETATM    2  C   UNK N   1      26.806  24.533  -7.517  0.00  0.00     0.270 C 
HETATM    3  N   UNK N   1      27.271  23.945  -8.789  0.00  0.00    -0.064 N 
HETATM    4  C   UNK N   1      26.108  23.510  -9.586  0.00  0.00     0.238 C 
HETATM    5  C   UNK N   1      25.181  24.698  -9.922  0.00  0.00     0.035 C 
HETATM    6  C   UNK N   1      25.734  25.973  -9.280  0.00  0.00     0.020 C 
HETATM    7  C   UNK N   1      27.148  26.199  -9.841  0.00  0.00     0.035 C 
HETATM    8  C   UNK N   1      28.026  24.958  -9.552  0.00  0.00     0.238 C 
ENDROOT
BRANCH   1   9
HETATM    9  O   UNK N   1      26.223  26.877  -7.133  0.00  0.00    -0.312 OA
BRANCH   9  10
HETATM   10  C   UNK N   1      26.165  27.093  -5.792  0.00  0.00     0.303 C 
HETATM   11  O   UNK N   1      25.085  27.174  -5.222  0.00  0.00    -0.262 OA
BRANCH  10  12
HETATM   12  C   UNK N   1      27.471  27.308  -5.031  0.00  0.00     0.269 C 
HETATM   13  C   UNK N   1      28.579  27.634  -6.039  0.00  0.00     0.066 C 
BRANCH  12  14
HETATM   14  C   UNK N   1      27.868  26.015  -4.302  0.00  0.00    -0.010 A 
HETATM   15  C   UNK N   1      26.908  25.146  -3.754  0.00  0.00     0.010 A 
HETATM   16  C   UNK N   1      27.299  23.983  -3.083  0.00  0.00     0.001 A 
HETATM   17  C   UNK N   1      28.654  23.671  -2.954  0.00  0.00     0.000 A 
HETATM   18  C   UNK N   1      29.620  24.519  -3.500  0.00  0.00     0.001 A 
HETATM   19  C   UNK N   1      29.231  25.683  -4.169  0.00  0.00     0.010 A 
ENDBRANCH  12  14
BRANCH  12  20
HETATM   20  N   UNK N   1      27.268  28.447  -4.087  0.00  0.00     0.112 N 
HETATM   21  C   UNK N   1      27.064  29.736  -4.763  0.00  0.00     0.274 C 
HETATM   22  C   UNK N   1      26.496  30.745  -3.775  0.00  0.00     0.030 C 
HETATM   23  C   UNK N   1      27.488  30.936  -2.631  0.00  0.00     0.003 C 
HETATM   24  C   UNK N   1      27.890  29.592  -2.023  0.00  0.00     0.030 C 
HETATM   25  C   UNK N   1      28.360  28.638  -3.124  0.00  0.00     0.274 C 
ENDBRANCH  12  20
ENDBRANCH  10  12
ENDBRANCH   9  10
ENDBRANCH   1   9
BRANCH   3  26
HETATM   26  C   UNK N   1      28.092  22.762  -8.529  0.00  0.00     0.242 C 
BRANCH  26  27
HETATM   27  C   UNK N   1      28.120  22.365  -7.047  0.00  0.00     0.066 C 
BRANCH  27  28
HETATM   28  C   UNK N   1      29.493  22.324  -6.450  0.00  0.00    -0.056 A 
HETATM   29  C   UNK N   1      30.411  23.313  -6.819  0.00  0.00     0.010 A 
HETATM   30  C   UNK N   1      31.699  23.316  -6.277  0.00  0.00     0.043 A 
HETATM   31  C   UNK N   1      32.073  22.329  -5.361  0.00  0.00     0.116 A 
HETATM   32  C   UNK N   1      31.162  21.338  -4.988  0.00  0.00     0.043 A 
HETATM   33  F   UNK N   1      33.321  22.336  -4.833  0.00  0.00    -0.206 F 
HETATM   34  C   UNK N   1      29.875  21.334  -5.531  0.00  0.00     0.010 A 
ENDBRANCH  27  28
ENDBRANCH  26  27
ENDBRANCH   3  26
TORSDOF 8
ENDMDL
