MODEL 1
REMARK VINA RESULT:      -7.4      0.000      0.000
REMARK  7 active torsions:
REMARK  status: ('A' for Active; 'I' for Inactive)
REMARK    1  A    between atoms: C_2  and  C_3 
REMARK    2  A    between atoms: C_3  and  N_4 
REMARK       I    between atoms: N_4  and  C_5 
REMARK    3  A    between atoms: C_5  and  C_7 
REMARK    4  A    between atoms: C_8  and  N_29 
REMARK    5  A    between atoms: C_13  and  C_19 
REMARK    6  A    between atoms: C_21  and  O_27 
REMARK    7  A    between atoms: C_24  and  O_25 
ROOT
HETATM    1  C   UNK N   1      34.539  16.750   9.227  0.00  0.00     0.143 A 
HETATM    2  C   UNK N   1      35.030  15.597   8.574  0.00  0.00     0.072 A 
HETATM    3  C   UNK N   1      35.432  14.494   9.347  0.00  0.00     0.022 A 
HETATM    4  C   UNK N   1      35.920  13.341   8.730  0.00  0.00     0.016 A 
HETATM    5  C   UNK N   1      36.318  12.255   9.495  0.00  0.00     0.002 A 
HETATM    6  C   UNK N   1      36.243  12.316  10.884  0.00  0.00     0.015 A 
HETATM    7  C   UNK N   1      35.765  13.456  11.571  0.00  0.00     0.006 A 
HETATM    8  C   UNK N   1      35.343  14.561  10.759  0.00  0.00     0.071 A 
HETATM    9  N   UNK N   1      34.846  15.688  11.305  0.00  0.00    -0.298 N 
ATOM     10  HN  UNK N   1      34.759  15.740  12.320  1.00  0.00     0.187 HD
HETATM   11  N   UNK N   1      34.463  16.735  10.580  0.00  0.00    -0.293 N 
ATOM     12  HN  UNK N   1      34.100  17.557  11.060  1.00  0.00     0.187 HD
ENDROOT
BRANCH   7  13
HETATM   13  C   UNK N   1      35.762  13.363  13.105  0.00  0.00     0.012 A 
HETATM   14  C   UNK N   1      36.634  14.257  13.769  0.00  0.00     0.052 A 
HETATM   15  C   UNK N   1      36.753  14.309  15.165  0.00  0.00     0.069 A 
HETATM   16  C   UNK N   1      35.994  13.450  15.942  0.00  0.00     0.039 A 
HETATM   17  C   UNK N   1      35.118  12.560  15.341  0.00  0.00     0.040 A 
HETATM   18  C   UNK N   1      34.976  12.494  13.941  0.00  0.00     0.079 A 
BRANCH  15  19
HETATM   19  O   UNK N   1      37.590  15.178  15.778  0.00  0.00    -0.356 OA
HETATM   20  C   UNK N   1      37.230  15.927  16.875  0.00  0.00     0.210 C 
ENDBRANCH  15  19
BRANCH  18  21
HETATM   21  O   UNK N   1      34.082  11.620  13.434  0.00  0.00    -0.355 OA
HETATM   22  C   UNK N   1      34.154  10.252  13.589  0.00  0.00     0.210 C 
ENDBRANCH  18  21
ENDBRANCH   7  13
BRANCH   2  23
HETATM   23  N   UNK N   1      35.123  15.543   7.163  0.00  0.00    -0.396 N 
HETATM   24  H   UNK N   1      34.450  15.046   6.644  0.00  0.00     0.156 HD
HETATM   25  H   UNK N   1      35.861  16.001   6.700  0.00  0.00     0.156 HD
ENDBRANCH   2  23
BRANCH   1  26
HETATM   26  C   UNK N   1      34.104  17.983   8.482  0.00  0.00     0.271 C 
HETATM   27  N   UNK N   1      32.859  18.120   7.945  0.00  0.00    -0.356 N 
HETATM   28  H   UNK N   1      32.657  18.965   7.482  0.00  0.00     0.162 HD
HETATM   29  O   UNK N   1      34.891  18.906   8.344  0.00  0.00    -0.266 OA
BRANCH  27  30
HETATM   30  C   UNK N   1      31.811  17.128   8.002  0.00  0.00     0.122 C 
BRANCH  30  31
HETATM   31  C   UNK N   1      30.449  17.795   7.998  0.00  0.00     0.015 C 
HETATM   32  C   UNK N   1      30.321  18.721   9.192  0.00  0.00     0.006 C 
ENDBRANCH  30  31
ENDBRANCH  27  30
ENDBRANCH   1  26
TORSDOF 7
ENDMDL
MODEL 2
REMARK VINA RESULT:      -7.1      8.609     14.019
REMARK  7 active torsions:
REMARK  status: ('A' for Active; 'I' for Inactive)
REMARK    1  A    between atoms: C_2  and  C_3 
REMARK    2  A    between atoms: C_3  and  N_4 
REMARK       I    between atoms: N_4  and  C_5 
REMARK    3  A    between atoms: C_5  and  C_7 
REMARK    4  A    between atoms: C_8  and  N_29 
REMARK    5  A    between atoms: C_13  and  C_19 
REMARK    6  A    between atoms: C_21  and  O_27 
REMARK    7  A    between atoms: C_24  and  O_25 
ROOT
HETATM    1  C   UNK N   1      27.139  18.043   5.146  0.00  0.00     0.143 A 
HETATM    2  C   UNK N   1      26.742  19.065   4.255  0.00  0.00     0.072 A 
HETATM    3  C   UNK N   1      25.373  19.248   3.991  0.00  0.00     0.022 A 
HETATM    4  C   UNK N   1      24.951  20.250   3.116  0.00  0.00     0.016 A 
HETATM    5  C   UNK N   1      23.600  20.426   2.856  0.00  0.00     0.002 A 
HETATM    6  C   UNK N   1      22.661  19.594   3.459  0.00  0.00     0.015 A 
HETATM    7  C   UNK N   1      23.023  18.556   4.349  0.00  0.00     0.006 A 
HETATM    8  C   UNK N   1      24.423  18.403   4.616  0.00  0.00     0.071 A 
HETATM    9  N   UNK N   1      24.881  17.465   5.468  0.00  0.00    -0.298 N 
ATOM     10  HN  UNK N   1      24.205  16.864   5.939  1.00  0.00     0.187 HD
HETATM   11  N   UNK N   1      26.173  17.288   5.722  0.00  0.00    -0.293 N 
ATOM     12  HN  UNK N   1      26.448  16.555   6.376  1.00  0.00     0.187 HD
ENDROOT
BRANCH   7  13
HETATM   13  C   UNK N   1      21.862  17.722   4.914  0.00  0.00     0.012 A 
HETATM   14  C   UNK N   1      21.589  17.916   6.288  0.00  0.00     0.052 A 
HETATM   15  C   UNK N   1      20.563  17.239   6.964  0.00  0.00     0.069 A 
HETATM   16  C   UNK N   1      19.776  16.335   6.270  0.00  0.00     0.039 A 
HETATM   17  C   UNK N   1      19.998  16.115   4.920  0.00  0.00     0.040 A 
HETATM   18  C   UNK N   1      21.017  16.787   4.217  0.00  0.00     0.079 A 
BRANCH  15  19
HETATM   19  O   UNK N   1      20.317  17.445   8.278  0.00  0.00    -0.356 OA
HETATM   20  C   UNK N   1      19.089  17.229   8.859  0.00  0.00     0.210 C 
ENDBRANCH  15  19
BRANCH  18  21
HETATM   21  O   UNK N   1      21.151  16.538   2.898  0.00  0.00    -0.355 OA
HETATM   22  C   UNK N   1      20.364  17.099   1.915  0.00  0.00     0.210 C 
ENDBRANCH  18  21
ENDBRANCH   7  13
BRANCH   2  23
HETATM   23  N   UNK N   1      27.700  19.899   3.628  0.00  0.00    -0.396 N 
HETATM   24  H   UNK N   1      28.021  19.684   2.723  0.00  0.00     0.156 HD
HETATM   25  H   UNK N   1      28.043  20.694   4.097  0.00  0.00     0.156 HD
ENDBRANCH   2  23
BRANCH   1  26
HETATM   26  C   UNK N   1      28.581  17.765   5.472  0.00  0.00     0.271 C 
HETATM   27  N   UNK N   1      29.148  18.107   6.664  0.00  0.00    -0.356 N 
HETATM   28  H   UNK N   1      30.097  17.877   6.795  0.00  0.00     0.162 HD
HETATM   29  O   UNK N   1      29.285  17.211   4.643  0.00  0.00    -0.266 OA
BRANCH  27  30
HETATM   30  C   UNK N   1      28.470  18.776   7.749  0.00  0.00     0.122 C 
BRANCH  30  31
HETATM   31  C   UNK N   1      28.602  17.974   9.030  0.00  0.00     0.015 C 
HETATM   32  C   UNK N   1      29.684  18.573   9.908  0.00  0.00     0.006 C 
ENDBRANCH  30  31
ENDBRANCH  27  30
ENDBRANCH   1  26
TORSDOF 7
ENDMDL
MODEL 3
REMARK VINA RESULT:      -7.1      1.709      2.060
REMARK  7 active torsions:
REMARK  status: ('A' for Active; 'I' for Inactive)
REMARK    1  A    between atoms: C_2  and  C_3 
REMARK    2  A    between atoms: C_3  and  N_4 
REMARK       I    between atoms: N_4  and  C_5 
REMARK    3  A    between atoms: C_5  and  C_7 
REMARK    4  A    between atoms: C_8  and  N_29 
REMARK    5  A    between atoms: C_13  and  C_19 
REMARK    6  A    between atoms: C_21  and  O_27 
REMARK    7  A    between atoms: C_24  and  O_25 
ROOT
HETATM    1  C   UNK N   1      33.440  14.548   8.860  0.00  0.00     0.143 A 
HETATM    2  C   UNK N   1      34.752  14.219   8.452  0.00  0.00     0.072 A 
HETATM    3  C   UNK N   1      35.690  13.824   9.423  0.00  0.00     0.022 A 
HETATM    4  C   UNK N   1      36.994  13.493   9.050  0.00  0.00     0.016 A 
HETATM    5  C   UNK N   1      37.916  13.105  10.010  0.00  0.00     0.002 A 
HETATM    6  C   UNK N   1      37.547  13.057  11.352  0.00  0.00     0.015 A 
HETATM    7  C   UNK N   1      36.246  13.387  11.796  0.00  0.00     0.006 A 
HETATM    8  C   UNK N   1      35.304  13.769  10.784  0.00  0.00     0.071 A 
HETATM    9  N   UNK N   1      34.028  14.078  11.089  0.00  0.00    -0.298 N 
ATOM     10  HN  UNK N   1      33.734  14.023  12.064  1.00  0.00     0.187 HD
HETATM   11  N   UNK N   1      33.137  14.452  10.177  0.00  0.00    -0.293 N 
ATOM     12  HN  UNK N   1      32.189  14.676  10.479  1.00  0.00     0.187 HD
ENDROOT
BRANCH   7  13
HETATM   13  C   UNK N   1      36.011  13.295  13.312  0.00  0.00     0.012 A 
HETATM   14  C   UNK N   1      36.837  14.125  14.105  0.00  0.00     0.052 A 
HETATM   15  C   UNK N   1      36.753  14.168  15.505  0.00  0.00     0.069 A 
HETATM   16  C   UNK N   1      35.828  13.367  16.153  0.00  0.00     0.039 A 
HETATM   17  C   UNK N   1      34.990  12.542  15.421  0.00  0.00     0.040 A 
HETATM   18  C   UNK N   1      35.050  12.485  14.015  0.00  0.00     0.079 A 
BRANCH  15  19
HETATM   19  O   UNK N   1      37.551  14.975  16.243  0.00  0.00    -0.356 OA
HETATM   20  C   UNK N   1      37.395  16.340  16.302  0.00  0.00     0.210 C 
ENDBRANCH  15  19
BRANCH  18  21
HETATM   21  O   UNK N   1      34.181  11.677  13.373  0.00  0.00    -0.355 OA
HETATM   22  C   UNK N   1      33.819  10.419  13.806  0.00  0.00     0.210 C 
ENDBRANCH  18  21
ENDBRANCH   7  13
BRANCH   2  23
HETATM   23  N   UNK N   1      35.132  14.287   7.090  0.00  0.00    -0.396 N 
HETATM   24  H   UNK N   1      35.148  15.155   6.626  0.00  0.00     0.156 HD
HETATM   25  H   UNK N   1      35.380  13.465   6.607  0.00  0.00     0.156 HD
ENDBRANCH   2  23
BRANCH   1  26
HETATM   26  C   UNK N   1      32.378  14.999   7.893  0.00  0.00     0.271 C 
HETATM   27  N   UNK N   1      32.060  16.311   7.706  0.00  0.00    -0.356 N 
HETATM   28  H   UNK N   1      31.358  16.516   7.046  0.00  0.00     0.162 HD
HETATM   29  O   UNK N   1      31.767  14.164   7.244  0.00  0.00    -0.266 OA
BRANCH  27  30
HETATM   30  C   UNK N   1      32.669  17.424   8.395  0.00  0.00     0.122 C 
BRANCH  30  31
HETATM   31  C   UNK N   1      33.838  17.968   7.594  0.00  0.00     0.015 C 
HETATM   32  C   UNK N   1      33.675  17.606   6.130  0.00  0.00     0.006 C 
ENDBRANCH  30  31
ENDBRANCH  27  30
ENDBRANCH   1  26
TORSDOF 7
ENDMDL
MODEL 4
REMARK VINA RESULT:      -7.1      2.489      7.745
REMARK  7 active torsions:
REMARK  status: ('A' for Active; 'I' for Inactive)
REMARK    1  A    between atoms: C_2  and  C_3 
REMARK    2  A    between atoms: C_3  and  N_4 
REMARK       I    between atoms: N_4  and  C_5 
REMARK    3  A    between atoms: C_5  and  C_7 
REMARK    4  A    between atoms: C_8  and  N_29 
REMARK    5  A    between atoms: C_13  and  C_19 
REMARK    6  A    between atoms: C_21  and  O_27 
REMARK    7  A    between atoms: C_24  and  O_25 
ROOT
HETATM    1  C   UNK N   1      35.795  14.222  11.875  0.00  0.00     0.143 A 
HETATM    2  C   UNK N   1      36.792  13.796  10.970  0.00  0.00     0.072 A 
HETATM    3  C   UNK N   1      36.595  13.996   9.592  0.00  0.00     0.022 A 
HETATM    4  C   UNK N   1      37.563  13.587   8.674  0.00  0.00     0.016 A 
HETATM    5  C   UNK N   1      37.363  13.784   7.315  0.00  0.00     0.002 A 
HETATM    6  C   UNK N   1      36.189  14.381   6.863  0.00  0.00     0.015 A 
HETATM    7  C   UNK N   1      35.167  14.811   7.740  0.00  0.00     0.006 A 
HETATM    8  C   UNK N   1      35.402  14.613   9.141  0.00  0.00     0.071 A 
HETATM    9  N   UNK N   1      34.508  15.008  10.069  0.00  0.00    -0.298 N 
ATOM     10  HN  UNK N   1      33.655  15.471   9.756  1.00  0.00     0.187 HD
HETATM   11  N   UNK N   1      34.690  14.823  11.373  0.00  0.00    -0.293 N 
ATOM     12  HN  UNK N   1      33.969  15.144  12.018  1.00  0.00     0.187 HD
ENDROOT
BRANCH   7  13
HETATM   13  C   UNK N   1      33.931  15.436   7.074  0.00  0.00     0.012 A 
HETATM   14  C   UNK N   1      32.895  14.531   6.748  0.00  0.00     0.052 A 
HETATM   15  C   UNK N   1      31.696  14.932   6.140  0.00  0.00     0.069 A 
HETATM   16  C   UNK N   1      31.506  16.270   5.835  0.00  0.00     0.039 A 
HETATM   17  C   UNK N   1      32.487  17.198   6.142  0.00  0.00     0.040 A 
HETATM   18  C   UNK N   1      33.696  16.821   6.759  0.00  0.00     0.079 A 
BRANCH  15  19
HETATM   19  O   UNK N   1      30.716  14.048   5.842  0.00  0.00    -0.356 OA
HETATM   20  C   UNK N   1      29.550  14.401   5.203  0.00  0.00     0.210 C 
ENDBRANCH  15  19
BRANCH  18  21
HETATM   21  O   UNK N   1      34.590  17.789   7.050  0.00  0.00    -0.355 OA
HETATM   22  C   UNK N   1      34.646  18.463   8.251  0.00  0.00     0.210 C 
ENDBRANCH  18  21
ENDBRANCH   7  13
BRANCH   2  23
HETATM   23  N   UNK N   1      37.977  13.173  11.430  0.00  0.00    -0.396 N 
HETATM   24  H   UNK N   1      38.756  13.720  11.682  0.00  0.00     0.156 HD
HETATM   25  H   UNK N   1      38.023  12.192  11.498  0.00  0.00     0.156 HD
ENDBRANCH   2  23
BRANCH   1  26
HETATM   26  C   UNK N   1      35.914  14.032  13.364  0.00  0.00     0.271 C 
HETATM   27  N   UNK N   1      35.362  12.972  14.018  0.00  0.00    -0.356 N 
HETATM   28  H   UNK N   1      35.497  12.922  14.993  0.00  0.00     0.162 HD
HETATM   29  O   UNK N   1      36.527  14.855  14.024  0.00  0.00    -0.266 OA
BRANCH  27  30
HETATM   30  C   UNK N   1      34.596  11.915  13.400  0.00  0.00     0.122 C 
BRANCH  30  31
HETATM   31  C   UNK N   1      33.788  11.166  14.443  0.00  0.00     0.015 C 
HETATM   32  C   UNK N   1      34.710  10.336  15.315  0.00  0.00     0.006 C 
ENDBRANCH  30  31
ENDBRANCH  27  30
ENDBRANCH   1  26
TORSDOF 7
ENDMDL
MODEL 5
REMARK VINA RESULT:      -6.9      5.691     10.202
REMARK  7 active torsions:
REMARK  status: ('A' for Active; 'I' for Inactive)
REMARK    1  A    between atoms: C_2  and  C_3 
REMARK    2  A    between atoms: C_3  and  N_4 
REMARK       I    between atoms: N_4  and  C_5 
REMARK    3  A    between atoms: C_5  and  C_7 
REMARK    4  A    between atoms: C_8  and  N_29 
REMARK    5  A    between atoms: C_13  and  C_19 
REMARK    6  A    between atoms: C_21  and  O_27 
REMARK    7  A    between atoms: C_24  and  O_25 
ROOT
HETATM    1  C   UNK N   1      35.421   9.088  19.266  0.00  0.00     0.143 A 
HETATM    2  C   UNK N   1      35.227  10.388  19.782  0.00  0.00     0.072 A 
HETATM    3  C   UNK N   1      35.303  11.488  18.908  0.00  0.00     0.022 A 
HETATM    4  C   UNK N   1      35.114  12.785  19.389  0.00  0.00     0.016 A 
HETATM    5  C   UNK N   1      35.192  13.867  18.524  0.00  0.00     0.002 A 
HETATM    6  C   UNK N   1      35.470  13.663  17.175  0.00  0.00     0.015 A 
HETATM    7  C   UNK N   1      35.679  12.376  16.627  0.00  0.00     0.006 A 
HETATM    8  C   UNK N   1      35.577  11.271  17.536  0.00  0.00     0.071 A 
HETATM    9  N   UNK N   1      35.731   9.998  17.119  0.00  0.00    -0.298 N 
ATOM     10  HN  UNK N   1      35.909   9.829  16.129  1.00  0.00     0.187 HD
HETATM   11  N   UNK N   1      35.659   8.955  17.939  0.00  0.00    -0.293 N 
ATOM     12  HN  UNK N   1      35.789   8.020  17.555  1.00  0.00     0.187 HD
ENDROOT
BRANCH   7  13
HETATM   13  C   UNK N   1      35.990  12.330  15.123  0.00  0.00     0.012 A 
HETATM   14  C   UNK N   1      35.206  13.186  14.315  0.00  0.00     0.052 A 
HETATM   15  C   UNK N   1      35.361  13.272  12.924  0.00  0.00     0.069 A 
HETATM   16  C   UNK N   1      36.316  12.488  12.298  0.00  0.00     0.039 A 
HETATM   17  C   UNK N   1      37.115  11.639  13.046  0.00  0.00     0.040 A 
HETATM   18  C   UNK N   1      36.984  11.539  14.445  0.00  0.00     0.079 A 
BRANCH  15  19
HETATM   19  O   UNK N   1      34.602  14.103  12.172  0.00  0.00    -0.356 OA
HETATM   20  C   UNK N   1      35.129  15.109  11.394  0.00  0.00     0.210 C 
ENDBRANCH  15  19
BRANCH  18  21
HETATM   21  O   UNK N   1      37.819  10.709  15.104  0.00  0.00    -0.355 OA
HETATM   22  C   UNK N   1      38.540   9.694  14.512  0.00  0.00     0.210 C 
ENDBRANCH  18  21
ENDBRANCH   7  13
BRANCH   2  23
HETATM   23  N   UNK N   1      34.962  10.596  21.157  0.00  0.00    -0.396 N 
HETATM   24  H   UNK N   1      34.338  10.003  21.633  0.00  0.00     0.156 HD
HETATM   25  H   UNK N   1      35.403  11.334  21.637  0.00  0.00     0.156 HD
ENDBRANCH   2  23
BRANCH   1  26
HETATM   26  C   UNK N   1      35.377   7.856  20.131  0.00  0.00     0.271 C 
HETATM   27  N   UNK N   1      34.268   7.071  20.240  0.00  0.00    -0.356 N 
HETATM   28  H   UNK N   1      34.331   6.279  20.821  0.00  0.00     0.162 HD
HETATM   29  O   UNK N   1      36.368   7.537  20.767  0.00  0.00    -0.266 OA
BRANCH  27  30
HETATM   30  C   UNK N   1      33.009   7.306  19.572  0.00  0.00     0.122 C 
BRANCH  30  31
HETATM   31  C   UNK N   1      32.038   8.007  20.503  0.00  0.00     0.015 C 
HETATM   32  C   UNK N   1      30.613   7.762  20.045  0.00  0.00     0.006 C 
ENDBRANCH  30  31
ENDBRANCH  27  30
ENDBRANCH   1  26
TORSDOF 7
ENDMDL
MODEL 6
REMARK VINA RESULT:      -6.8      8.253     12.661
REMARK  7 active torsions:
REMARK  status: ('A' for Active; 'I' for Inactive)
REMARK    1  A    between atoms: C_2  and  C_3 
REMARK    2  A    between atoms: C_3  and  N_4 
REMARK       I    between atoms: N_4  and  C_5 
REMARK    3  A    between atoms: C_5  and  C_7 
REMARK    4  A    between atoms: C_8  and  N_29 
REMARK    5  A    between atoms: C_13  and  C_19 
REMARK    6  A    between atoms: C_21  and  O_27 
REMARK    7  A    between atoms: C_24  and  O_25 
ROOT
HETATM    1  C   UNK N   1      22.723  17.754   4.785  0.00  0.00     0.143 A 
HETATM    2  C   UNK N   1      23.068  18.838   3.948  0.00  0.00     0.072 A 
HETATM    3  C   UNK N   1      24.412  19.247   3.880  0.00  0.00     0.022 A 
HETATM    4  C   UNK N   1      24.784  20.314   3.060  0.00  0.00     0.016 A 
HETATM    5  C   UNK N   1      26.110  20.716   2.997  0.00  0.00     0.002 A 
HETATM    6  C   UNK N   1      27.073  20.062   3.761  0.00  0.00     0.015 A 
HETATM    7  C   UNK N   1      26.761  18.980   4.616  0.00  0.00     0.006 A 
HETATM    8  C   UNK N   1      25.387  18.571   4.653  0.00  0.00     0.071 A 
HETATM    9  N   UNK N   1      24.980  17.534   5.412  0.00  0.00    -0.298 N 
ATOM     10  HN  UNK N   1      25.677  17.028   5.958  1.00  0.00     0.187 HD
HETATM   11  N   UNK N   1      23.712  17.142   5.480  0.00  0.00    -0.293 N 
ATOM     12  HN  UNK N   1      23.474  16.352   6.079  1.00  0.00     0.187 HD
ENDROOT
BRANCH   7  13
HETATM   13  C   UNK N   1      27.941  18.382   5.400  0.00  0.00     0.012 A 
HETATM   14  C   UNK N   1      27.995  18.726   6.770  0.00  0.00     0.052 A 
HETATM   15  C   UNK N   1      29.001  18.265   7.632  0.00  0.00     0.069 A 
HETATM   16  C   UNK N   1      29.995  17.439   7.132  0.00  0.00     0.039 A 
HETATM   17  C   UNK N   1      29.982  17.066   5.798  0.00  0.00     0.040 A 
HETATM   18  C   UNK N   1      28.980  17.511   4.914  0.00  0.00     0.079 A 
BRANCH  15  19
HETATM   19  O   UNK N   1      29.029  18.603   8.942  0.00  0.00    -0.356 OA
HETATM   20  C   UNK N   1      29.383  17.725   9.940  0.00  0.00     0.210 C 
ENDBRANCH  15  19
BRANCH  18  21
HETATM   21  O   UNK N   1      29.022  17.081   3.636  0.00  0.00    -0.355 OA
HETATM   22  C   UNK N   1      28.369  15.961   3.168  0.00  0.00     0.210 C 
ENDBRANCH  18  21
ENDBRANCH   7  13
BRANCH   2  23
HETATM   23  N   UNK N   1      22.085  19.513   3.186  0.00  0.00    -0.396 N 
HETATM   24  H   UNK N   1      21.294  19.026   2.861  0.00  0.00     0.156 HD
HETATM   25  H   UNK N   1      22.193  20.470   2.981  0.00  0.00     0.156 HD
ENDBRANCH   2  23
BRANCH   1  26
HETATM   26  C   UNK N   1      21.308  17.261   4.935  0.00  0.00     0.271 C 
HETATM   27  N   UNK N   1      20.722  16.419   4.038  0.00  0.00    -0.356 N 
HETATM   28  H   UNK N   1      19.795  16.140   4.219  0.00  0.00     0.162 HD
HETATM   29  O   UNK N   1      20.647  17.625   5.894  0.00  0.00    -0.266 OA
BRANCH  27  30
HETATM   30  C   UNK N   1      21.349  15.901   2.845  0.00  0.00     0.122 C 
BRANCH  30  31
HETATM   31  C   UNK N   1      20.345  15.822   1.710  0.00  0.00     0.015 C 
HETATM   32  C   UNK N   1      20.085  17.207   1.149  0.00  0.00     0.006 C 
ENDBRANCH  30  31
ENDBRANCH  27  30
ENDBRANCH   1  26
TORSDOF 7
ENDMDL
MODEL 7
REMARK VINA RESULT:      -6.8      2.859      8.089
REMARK  7 active torsions:
REMARK  status: ('A' for Active; 'I' for Inactive)
REMARK    1  A    between atoms: C_2  and  C_3 
REMARK    2  A    between atoms: C_3  and  N_4 
REMARK       I    between atoms: N_4  and  C_5 
REMARK    3  A    between atoms: C_5  and  C_7 
REMARK    4  A    between atoms: C_8  and  N_29 
REMARK    5  A    between atoms: C_13  and  C_19 
REMARK    6  A    between atoms: C_21  and  O_27 
REMARK    7  A    between atoms: C_24  and  O_25 
ROOT
HETATM    1  C   UNK N   1      34.555  14.288  10.924  0.00  0.00     0.143 A 
HETATM    2  C   UNK N   1      35.049  15.563  10.571  0.00  0.00     0.072 A 
HETATM    3  C   UNK N   1      34.416  16.280   9.540  0.00  0.00     0.022 A 
HETATM    4  C   UNK N   1      34.881  17.543   9.170  0.00  0.00     0.016 A 
HETATM    5  C   UNK N   1      34.255  18.246   8.151  0.00  0.00     0.002 A 
HETATM    6  C   UNK N   1      33.167  17.688   7.486  0.00  0.00     0.015 A 
HETATM    7  C   UNK N   1      32.652  16.411   7.806  0.00  0.00     0.006 A 
HETATM    8  C   UNK N   1      33.304  15.709   8.874  0.00  0.00     0.071 A 
HETATM    9  N   UNK N   1      32.881  14.496   9.282  0.00  0.00    -0.298 N 
ATOM     10  HN  UNK N   1      32.069  14.084   8.824  1.00  0.00     0.187 HD
HETATM   11  N   UNK N   1      33.475  13.814  10.257  0.00  0.00    -0.293 N 
ATOM     12  HN  UNK N   1      33.103  12.899  10.512  1.00  0.00     0.187 HD
ENDROOT
BRANCH   7  13
HETATM   13  C   UNK N   1      31.457  15.938   6.964  0.00  0.00     0.012 A 
HETATM   14  C   UNK N   1      30.345  16.812   6.945  0.00  0.00     0.052 A 
HETATM   15  C   UNK N   1      29.174  16.538   6.224  0.00  0.00     0.069 A 
HETATM   16  C   UNK N   1      29.084  15.363   5.497  0.00  0.00     0.039 A 
HETATM   17  C   UNK N   1      30.149  14.477   5.477  0.00  0.00     0.040 A 
HETATM   18  C   UNK N   1      31.338  14.732   6.187  0.00  0.00     0.079 A 
BRANCH  15  19
HETATM   19  O   UNK N   1      28.124  17.394   6.216  0.00  0.00    -0.356 OA
HETATM   20  C   UNK N   1      28.159  18.635   6.808  0.00  0.00     0.210 C 
ENDBRANCH  15  19
BRANCH  18  21
HETATM   21  O   UNK N   1      32.340  13.833   6.093  0.00  0.00    -0.355 OA
HETATM   22  C   UNK N   1      33.346  13.880   5.152  0.00  0.00     0.210 C 
ENDBRANCH  18  21
ENDBRANCH   7  13
BRANCH   2  23
HETATM   23  N   UNK N   1      36.167  16.122  11.236  0.00  0.00    -0.396 N 
HETATM   24  H   UNK N   1      37.034  16.185  10.774  0.00  0.00     0.156 HD
HETATM   25  H   UNK N   1      36.077  16.450  12.160  0.00  0.00     0.156 HD
ENDBRANCH   2  23
BRANCH   1  26
HETATM   26  C   UNK N   1      35.181  13.443  12.000  0.00  0.00     0.271 C 
HETATM   27  N   UNK N   1      36.242  12.620  11.769  0.00  0.00    -0.356 N 
HETATM   28  H   UNK N   1      36.595  12.110  12.535  0.00  0.00     0.162 HD
HETATM   29  O   UNK N   1      34.728  13.487  13.133  0.00  0.00    -0.266 OA
BRANCH  27  30
HETATM   30  C   UNK N   1      36.893  12.436  10.493  0.00  0.00     0.122 C 
BRANCH  30  31
HETATM   31  C   UNK N   1      38.276  13.059  10.509  0.00  0.00     0.015 C 
HETATM   32  C   UNK N   1      38.404  14.066   9.382  0.00  0.00     0.006 C 
ENDBRANCH  30  31
ENDBRANCH  27  30
ENDBRANCH   1  26
TORSDOF 7
ENDMDL
MODEL 8
REMARK VINA RESULT:      -6.8      6.254     10.606
REMARK  7 active torsions:
REMARK  status: ('A' for Active; 'I' for Inactive)
REMARK    1  A    between atoms: C_2  and  C_3 
REMARK    2  A    between atoms: C_3  and  N_4 
REMARK       I    between atoms: N_4  and  C_5 
REMARK    3  A    between atoms: C_5  and  C_7 
REMARK    4  A    between atoms: C_8  and  N_29 
REMARK    5  A    between atoms: C_13  and  C_19 
REMARK    6  A    between atoms: C_21  and  O_27 
REMARK    7  A    between atoms: C_24  and  O_25 
ROOT
HETATM    1  C   UNK N   1      32.465  17.197   6.666  0.00  0.00     0.143 A 
HETATM    2  C   UNK N   1      31.869  17.198   7.947  0.00  0.00     0.072 A 
HETATM    3  C   UNK N   1      30.475  17.348   8.051  0.00  0.00     0.022 A 
HETATM    4  C   UNK N   1      29.857  17.351   9.303  0.00  0.00     0.016 A 
HETATM    5  C   UNK N   1      28.481  17.502   9.401  0.00  0.00     0.002 A 
HETATM    6  C   UNK N   1      27.714  17.662   8.251  0.00  0.00     0.015 A 
HETATM    7  C   UNK N   1      28.278  17.675   6.955  0.00  0.00     0.006 A 
HETATM    8  C   UNK N   1      29.700  17.501   6.875  0.00  0.00     0.071 A 
HETATM    9  N   UNK N   1      30.341  17.470   5.691  0.00  0.00    -0.298 N 
ATOM     10  HN  UNK N   1      29.791  17.560   4.837  1.00  0.00     0.187 HD
HETATM   11  N   UNK N   1      31.659  17.328   5.586  0.00  0.00    -0.293 N 
ATOM     12  HN  UNK N   1      32.078  17.317   4.657  1.00  0.00     0.187 HD
ENDROOT
BRANCH   7  13
HETATM   13  C   UNK N   1      27.290  17.877   5.795  0.00  0.00     0.012 A 
HETATM   14  C   UNK N   1      26.468  16.765   5.498  0.00  0.00     0.052 A 
HETATM   15  C   UNK N   1      25.510  16.779   4.474  0.00  0.00     0.069 A 
HETATM   16  C   UNK N   1      25.352  17.922   3.708  0.00  0.00     0.039 A 
HETATM   17  C   UNK N   1      26.128  19.041   3.964  0.00  0.00     0.040 A 
HETATM   18  C   UNK N   1      27.092  19.055   4.991  0.00  0.00     0.079 A 
BRANCH  15  19
HETATM   19  O   UNK N   1      24.730  15.704   4.213  0.00  0.00    -0.356 OA
HETATM   20  C   UNK N   1      24.764  15.020   3.019  0.00  0.00     0.210 C 
ENDBRANCH  15  19
BRANCH  18  21
HETATM   21  O   UNK N   1      27.788  20.193   5.195  0.00  0.00    -0.355 OA
HETATM   22  C   UNK N   1      27.400  21.201   6.051  0.00  0.00     0.210 C 
ENDBRANCH  18  21
ENDBRANCH   7  13
BRANCH   2  23
HETATM   23  N   UNK N   1      32.653  17.053   9.117  0.00  0.00    -0.396 N 
HETATM   24  H   UNK N   1      32.504  16.287   9.717  0.00  0.00     0.156 HD
HETATM   25  H   UNK N   1      33.347  17.718   9.331  0.00  0.00     0.156 HD
ENDBRANCH   2  23
BRANCH   1  26
HETATM   26  C   UNK N   1      33.950  17.061   6.462  0.00  0.00     0.271 C 
HETATM   27  N   UNK N   1      34.515  15.982   5.851  0.00  0.00    -0.356 N 
HETATM   28  H   UNK N   1      35.495  15.980   5.751  0.00  0.00     0.162 HD
HETATM   29  O   UNK N   1      34.691  17.947   6.857  0.00  0.00    -0.266 OA
BRANCH  27  30
HETATM   30  C   UNK N   1      33.794  14.841   5.337  0.00  0.00     0.122 C 
BRANCH  30  31
HETATM   31  C   UNK N   1      34.140  14.610   3.878  0.00  0.00     0.015 C 
HETATM   32  C   UNK N   1      33.048  15.176   2.990  0.00  0.00     0.006 C 
ENDBRANCH  30  31
ENDBRANCH  27  30
ENDBRANCH   1  26
TORSDOF 7
ENDMDL
MODEL 9
REMARK VINA RESULT:      -6.8      8.453     12.685
REMARK  7 active torsions:
REMARK  status: ('A' for Active; 'I' for Inactive)
REMARK    1  A    between atoms: C_2  and  C_3 
REMARK    2  A    between atoms: C_3  and  N_4 
REMARK       I    between atoms: N_4  and  C_5 
REMARK    3  A    between atoms: C_5  and  C_7 
REMARK    4  A    between atoms: C_8  and  N_29 
REMARK    5  A    between atoms: C_13  and  C_19 
REMARK    6  A    between atoms: C_21  and  O_27 
REMARK    7  A    between atoms: C_24  and  O_25 
ROOT
HETATM    1  C   UNK N   1      22.457  17.666   4.677  0.00  0.00     0.143 A 
HETATM    2  C   UNK N   1      22.792  18.769   3.860  0.00  0.00     0.072 A 
HETATM    3  C   UNK N   1      24.126  19.212   3.824  0.00  0.00     0.022 A 
HETATM    4  C   UNK N   1      24.487  20.298   3.025  0.00  0.00     0.016 A 
HETATM    5  C   UNK N   1      25.804  20.734   2.994  0.00  0.00     0.002 A 
HETATM    6  C   UNK N   1      26.768  20.095   3.769  0.00  0.00     0.015 A 
HETATM    7  C   UNK N   1      26.466  18.995   4.605  0.00  0.00     0.006 A 
HETATM    8  C   UNK N   1      25.102  18.551   4.609  0.00  0.00     0.071 A 
HETATM    9  N   UNK N   1      24.706  17.495   5.346  0.00  0.00    -0.298 N 
ATOM     10  HN  UNK N   1      25.404  16.999   5.900  1.00  0.00     0.187 HD
HETATM   11  N   UNK N   1      23.447  17.071   5.384  0.00  0.00    -0.293 N 
ATOM     12  HN  UNK N   1      23.218  16.267   5.968  1.00  0.00     0.187 HD
ENDROOT
BRANCH   7  13
HETATM   13  C   UNK N   1      27.644  18.416   5.404  0.00  0.00     0.012 A 
HETATM   14  C   UNK N   1      27.761  18.881   6.735  0.00  0.00     0.052 A 
HETATM   15  C   UNK N   1      28.775  18.454   7.604  0.00  0.00     0.069 A 
HETATM   16  C   UNK N   1      29.714  17.541   7.154  0.00  0.00     0.039 A 
HETATM   17  C   UNK N   1      29.638  17.048   5.861  0.00  0.00     0.040 A 
HETATM   18  C   UNK N   1      28.626  17.456   4.971  0.00  0.00     0.079 A 
BRANCH  15  19
HETATM   19  O   UNK N   1      28.863  18.910   8.876  0.00  0.00    -0.356 OA
HETATM   20  C   UNK N   1      29.611  18.289   9.849  0.00  0.00     0.210 C 
ENDBRANCH  15  19
BRANCH  18  21
HETATM   21  O   UNK N   1      28.605  16.909   3.738  0.00  0.00    -0.355 OA
HETATM   22  C   UNK N   1      29.713  16.412   3.086  0.00  0.00     0.210 C 
ENDBRANCH  18  21
ENDBRANCH   7  13
BRANCH   2  23
HETATM   23  N   UNK N   1      21.807  19.430   3.086  0.00  0.00    -0.396 N 
HETATM   24  H   UNK N   1      20.873  19.455   3.396  0.00  0.00     0.156 HD
HETATM   25  H   UNK N   1      22.057  19.865   2.239  0.00  0.00     0.156 HD
ENDBRANCH   2  23
BRANCH   1  26
HETATM   26  C   UNK N   1      21.053  17.137   4.791  0.00  0.00     0.271 C 
HETATM   27  N   UNK N   1      20.391  17.052   5.980  0.00  0.00    -0.356 N 
HETATM   28  H   UNK N   1      19.470  16.701   5.961  0.00  0.00     0.162 HD
HETATM   29  O   UNK N   1      20.471  16.763   3.785  0.00  0.00    -0.266 OA
BRANCH  27  30
HETATM   30  C   UNK N   1      20.928  17.435   7.264  0.00  0.00     0.122 C 
BRANCH  30  31
HETATM   31  C   UNK N   1      20.020  16.959   8.382  0.00  0.00     0.015 C 
HETATM   32  C   UNK N   1      19.443  18.150   9.124  0.00  0.00     0.006 C 
ENDBRANCH  30  31
ENDBRANCH  27  30
ENDBRANCH   1  26
TORSDOF 7
ENDMDL
