MODEL 1
REMARK VINA RESULT:      -7.9      0.000      0.000
REMARK  9 active torsions:
REMARK  status: ('A' for Active; 'I' for Inactive)
REMARK    1  A    between atoms: C_2  and  C_5 
REMARK    2  A    between atoms: C_6  and  C_5 
REMARK    3  A    between atoms: C_7  and  C_35 
REMARK    4  A    between atoms: C_8  and  C_25 
REMARK    5  A    between atoms: C_9  and  C_11 
REMARK       I    between atoms: C_11  and  N_13 
REMARK    6  A    between atoms: N_13  and  C_14 
REMARK    7  A    between atoms: C_17  and  C_22 
REMARK    8  A    between atoms: C_19  and  O_20 
REMARK    9  A    between atoms: C_22  and  O_24 
ROOT
HETATM    1  C   UNK N   1      23.240  13.972   6.810  0.00  0.00     0.106 C 
HETATM    2  C   UNK N   1      21.814  13.633   6.264  0.00  0.00     0.109 C 
HETATM    3  C   UNK N   1      21.650  14.754   5.173  0.00  0.00     0.083 C 
HETATM    4  C   UNK N   1      22.663  15.808   5.534  0.00  0.00     0.181 C 
HETATM    5  N   UNK N   1      23.796  15.137   6.141  0.00  0.00    -0.402 N 
HETATM    6  C   UNK N   1      20.805  13.833   7.321  0.00  0.00     0.077 C 
HETATM    7  N   UNK N   1      19.985  13.943   8.131  0.00  0.00    -0.196 NA
HETATM    8  H   UNK N   1      24.775  15.421   6.106  0.00  0.00     0.154 HD
ENDROOT
BRANCH   2   9
HETATM    9  C   UNK N   1      21.551  12.281   5.638  0.00  0.00     0.006 A 
HETATM   10  C   UNK N   1      20.296  11.663   5.754  0.00  0.00     0.014 A 
HETATM   11  C   UNK N   1      20.121  10.346   5.312  0.00  0.00     0.024 A 
HETATM   12  C   UNK N   1      21.196   9.641   4.759  0.00  0.00     0.036 A 
HETATM   13  C   UNK N   1      22.436  10.258   4.610  0.00  0.00     0.066 A 
HETATM   14 Cl   UNK N   1      21.013   7.963   4.307  0.00  0.00    -0.084 Cl
HETATM   15  C   UNK N   1      22.618  11.573   5.031  0.00  0.00     0.126 A 
HETATM   16  F   UNK N   1      23.856  12.125   4.940  0.00  0.00    -0.205 F 
ENDBRANCH   2   9
BRANCH   1  17
HETATM   17  C   UNK N   1      23.694  13.887   8.301  0.00  0.00     0.035 C 
BRANCH  17  18
HETATM   18  C   UNK N   1      23.761  12.574   9.137  0.00  0.00    -0.050 C 
HETATM   19  C   UNK N   1      24.902  12.664  10.129  0.00  0.00     0.014 C 
HETATM   20  C   UNK N   1      24.058  11.432   8.194  0.00  0.00     0.014 C 
HETATM   21  C   UNK N   1      22.548  12.211   9.952  0.00  0.00     0.014 C 
ENDBRANCH  17  18
ENDBRANCH   1  17
BRANCH   3  22
HETATM   22  C   UNK N   1      21.913  14.524   3.677  0.00  0.00    -0.009 A 
HETATM   23  C   UNK N   1      23.162  14.740   3.071  0.00  0.00     0.011 A 
HETATM   24  C   UNK N   1      23.346  14.532   1.705  0.00  0.00     0.002 A 
HETATM   25  C   UNK N   1      22.272  14.140   0.908  0.00  0.00     0.027 A 
HETATM   26  C   UNK N   1      21.017  13.936   1.480  0.00  0.00     0.073 A 
HETATM   27  C   UNK N   1      20.837  14.110   2.857  0.00  0.00     0.144 A 
HETATM   28 Cl   UNK N   1      19.664  13.489   0.458  0.00  0.00    -0.081 Cl
HETATM   29  F   UNK N   1      19.609  13.899   3.398  0.00  0.00    -0.204 F 
ENDBRANCH   3  22
BRANCH   4  30
HETATM   30  C   UNK N   1      22.169  16.904   6.419  0.00  0.00     0.245 C 
HETATM   31  O   UNK N   1      21.676  16.645   7.504  0.00  0.00    -0.271 OA
HETATM   32  N   UNK N   1      22.230  18.191   6.006  0.00  0.00    -0.323 N 
HETATM   33  H   UNK N   1      22.422  18.893   6.669  0.00  0.00     0.169 HD
BRANCH  32  34
HETATM   34  C   UNK N   1      22.025  18.564   4.652  0.00  0.00     0.068 A 
HETATM   35  C   UNK N   1      20.710  18.592   4.167  0.00  0.00     0.033 A 
HETATM   36  C   UNK N   1      20.387  19.255   3.002  0.00  0.00     0.021 A 
HETATM   37  C   UNK N   1      21.373  19.928   2.293  0.00  0.00     0.040 A 
HETATM   38  C   UNK N   1      22.711  19.852   2.716  0.00  0.00     0.057 A 
HETATM   39  C   UNK N   1      23.059  19.165   3.890  0.00  0.00     0.096 A 
BRANCH  37  40
HETATM   40  C   UNK N   1      20.971  20.783   1.168  0.00  0.00     0.176 C 
HETATM   41  O   UNK N   1      20.977  20.347   0.029  0.00  0.00    -0.646 OA
BRANCH  40  42
HETATM   42  O   UNK N   1      20.667  22.079   1.385  0.00  0.00    -0.773 OA
HETATM   43  H   UNK N   1      19.783  22.380   1.309  0.00  0.00     0.167 HD
ENDBRANCH  40  42
ENDBRANCH  37  40
BRANCH  39  44
HETATM   44  O   UNK N   1      24.365  19.159   4.265  0.00  0.00    -0.354 OA
HETATM   45  C   UNK N   1      25.262  18.157   3.968  0.00  0.00     0.210 C 
ENDBRANCH  39  44
ENDBRANCH  32  34
ENDBRANCH   4  30
TORSDOF 9
ENDMDL
MODEL 2
REMARK VINA RESULT:      -7.8      1.801      2.322
REMARK  9 active torsions:
REMARK  status: ('A' for Active; 'I' for Inactive)
REMARK    1  A    between atoms: C_2  and  C_5 
REMARK    2  A    between atoms: C_6  and  C_5 
REMARK    3  A    between atoms: C_7  and  C_35 
REMARK    4  A    between atoms: C_8  and  C_25 
REMARK    5  A    between atoms: C_9  and  C_11 
REMARK       I    between atoms: C_11  and  N_13 
REMARK    6  A    between atoms: N_13  and  C_14 
REMARK    7  A    between atoms: C_17  and  C_22 
REMARK    8  A    between atoms: C_19  and  O_20 
REMARK    9  A    between atoms: C_22  and  O_24 
ROOT
HETATM    1  C   UNK N   1      22.993  13.693   6.947  0.00  0.00     0.106 C 
HETATM    2  C   UNK N   1      22.477  12.818   5.758  0.00  0.00     0.109 C 
HETATM    3  C   UNK N   1      22.237  13.928   4.668  0.00  0.00     0.083 C 
HETATM    4  C   UNK N   1      22.152  15.221   5.434  0.00  0.00     0.181 C 
HETATM    5  N   UNK N   1      23.018  15.103   6.591  0.00  0.00    -0.402 N 
HETATM    6  C   UNK N   1      21.187  12.195   6.108  0.00  0.00     0.077 C 
HETATM    7  N   UNK N   1      20.192  11.657   6.355  0.00  0.00    -0.196 NA
HETATM    8  H   UNK N   1      23.534  15.849   7.057  0.00  0.00     0.154 HD
ENDROOT
BRANCH   2   9
HETATM    9  C   UNK N   1      23.362  11.733   5.184  0.00  0.00     0.006 A 
HETATM   10  C   UNK N   1      22.810  10.611   4.549  0.00  0.00     0.014 A 
HETATM   11  C   UNK N   1      23.634   9.544   4.173  0.00  0.00     0.024 A 
HETATM   12  C   UNK N   1      25.008   9.591   4.432  0.00  0.00     0.036 A 
HETATM   13  C   UNK N   1      25.570  10.716   5.031  0.00  0.00     0.066 A 
HETATM   14 Cl   UNK N   1      26.024   8.217   4.063  0.00  0.00    -0.084 Cl
HETATM   15  C   UNK N   1      24.763  11.790   5.396  0.00  0.00     0.126 A 
HETATM   16  F   UNK N   1      25.326  12.843   6.043  0.00  0.00    -0.205 F 
ENDBRANCH   2   9
BRANCH   1  17
HETATM   17  C   UNK N   1      22.652  13.481   8.456  0.00  0.00     0.035 C 
BRANCH  17  18
HETATM   18  C   UNK N   1      23.457  12.572   9.431  0.00  0.00    -0.050 C 
HETATM   19  C   UNK N   1      23.543  11.171   8.860  0.00  0.00     0.014 C 
HETATM   20  C   UNK N   1      22.699  12.494  10.735  0.00  0.00     0.014 C 
HETATM   21  C   UNK N   1      24.877  12.970   9.733  0.00  0.00     0.014 C 
ENDBRANCH  17  18
ENDBRANCH   1  17
BRANCH   3  22
HETATM   22  C   UNK N   1      23.245  14.252   3.555  0.00  0.00    -0.009 A 
HETATM   23  C   UNK N   1      24.313  15.149   3.720  0.00  0.00     0.011 A 
HETATM   24  C   UNK N   1      25.192  15.423   2.673  0.00  0.00     0.002 A 
HETATM   25  C   UNK N   1      24.997  14.833   1.426  0.00  0.00     0.027 A 
HETATM   26  C   UNK N   1      23.934  13.953   1.229  0.00  0.00     0.073 A 
HETATM   27  C   UNK N   1      23.070  13.648   2.288  0.00  0.00     0.144 A 
HETATM   28 Cl   UNK N   1      23.673  13.255  -0.358  0.00  0.00    -0.081 Cl
HETATM   29  F   UNK N   1      22.044  12.783   2.080  0.00  0.00    -0.204 F 
ENDBRANCH   3  22
BRANCH   4  30
HETATM   30  C   UNK N   1      20.781  15.640   5.847  0.00  0.00     0.245 C 
HETATM   31  O   UNK N   1      20.044  14.857   6.422  0.00  0.00    -0.271 OA
HETATM   32  N   UNK N   1      20.331  16.882   5.551  0.00  0.00    -0.323 N 
HETATM   33  H   UNK N   1      19.746  17.340   6.197  0.00  0.00     0.169 HD
BRANCH  32  34
HETATM   34  C   UNK N   1      20.672  17.545   4.343  0.00  0.00     0.068 A 
HETATM   35  C   UNK N   1      19.724  17.562   3.310  0.00  0.00     0.033 A 
HETATM   36  C   UNK N   1      19.822  18.448   2.259  0.00  0.00     0.021 A 
HETATM   37  C   UNK N   1      20.866  19.362   2.220  0.00  0.00     0.040 A 
HETATM   38  C   UNK N   1      21.871  19.316   3.202  0.00  0.00     0.057 A 
HETATM   39  C   UNK N   1      21.795  18.406   4.268  0.00  0.00     0.096 A 
BRANCH  37  40
HETATM   40  C   UNK N   1      20.839  20.417   1.198  0.00  0.00     0.176 C 
HETATM   41  O   UNK N   1      20.890  21.592   1.523  0.00  0.00    -0.646 OA
BRANCH  40  42
HETATM   42  O   UNK N   1      20.679  20.091  -0.101  0.00  0.00    -0.773 OA
HETATM   43  H   UNK N   1      20.371  20.725  -0.717  0.00  0.00     0.167 HD
ENDBRANCH  40  42
ENDBRANCH  37  40
BRANCH  39  44
HETATM   44  O   UNK N   1      22.779  18.437   5.206  0.00  0.00    -0.354 OA
HETATM   45  C   UNK N   1      24.107  18.682   4.941  0.00  0.00     0.210 C 
ENDBRANCH  39  44
ENDBRANCH  32  34
ENDBRANCH   4  30
TORSDOF 9
ENDMDL
MODEL 3
REMARK VINA RESULT:      -7.7      5.812      8.896
REMARK  9 active torsions:
REMARK  status: ('A' for Active; 'I' for Inactive)
REMARK    1  A    between atoms: C_2  and  C_5 
REMARK    2  A    between atoms: C_6  and  C_5 
REMARK    3  A    between atoms: C_7  and  C_35 
REMARK    4  A    between atoms: C_8  and  C_25 
REMARK    5  A    between atoms: C_9  and  C_11 
REMARK       I    between atoms: C_11  and  N_13 
REMARK    6  A    between atoms: N_13  and  C_14 
REMARK    7  A    between atoms: C_17  and  C_22 
REMARK    8  A    between atoms: C_19  and  O_20 
REMARK    9  A    between atoms: C_22  and  O_24 
ROOT
HETATM    1  C   UNK N   1      26.463  14.579   2.848  0.00  0.00     0.106 C 
HETATM    2  C   UNK N   1      26.215  14.744   4.383  0.00  0.00     0.109 C 
HETATM    3  C   UNK N   1      27.524  15.510   4.805  0.00  0.00     0.083 C 
HETATM    4  C   UNK N   1      28.502  15.264   3.688  0.00  0.00     0.181 C 
HETATM    5  N   UNK N   1      27.743  15.148   2.458  0.00  0.00    -0.402 N 
HETATM    6  C   UNK N   1      26.193  13.423   5.039  0.00  0.00     0.077 C 
HETATM    7  N   UNK N   1      26.132  12.405   5.588  0.00  0.00    -0.196 NA
HETATM    8  H   UNK N   1      28.043  15.410   1.519  0.00  0.00     0.154 HD
ENDROOT
BRANCH   2   9
HETATM    9  C   UNK N   1      25.005  15.511   4.872  0.00  0.00     0.006 A 
HETATM   10  C   UNK N   1      24.430  15.235   6.121  0.00  0.00     0.014 A 
HETATM   11  C   UNK N   1      23.220  15.837   6.483  0.00  0.00     0.024 A 
HETATM   12  C   UNK N   1      22.577  16.712   5.599  0.00  0.00     0.036 A 
HETATM   13  C   UNK N   1      23.158  17.017   4.371  0.00  0.00     0.066 A 
HETATM   14 Cl   UNK N   1      21.013  17.380   6.000  0.00  0.00    -0.084 Cl
HETATM   15  C   UNK N   1      24.370  16.437   4.006  0.00  0.00     0.126 A 
HETATM   16  F   UNK N   1      24.877  16.697   2.774  0.00  0.00    -0.205 F 
ENDBRANCH   2   9
BRANCH   1  17
HETATM   17  C   UNK N   1      26.098  13.327   1.991  0.00  0.00     0.035 C 
BRANCH  17  18
HETATM   18  C   UNK N   1      24.658  12.951   1.533  0.00  0.00    -0.050 C 
HETATM   19  C   UNK N   1      24.716  11.743   0.621  0.00  0.00     0.014 C 
HETATM   20  C   UNK N   1      24.103  14.107   0.733  0.00  0.00     0.014 C 
HETATM   21  C   UNK N   1      23.662  12.598   2.605  0.00  0.00     0.014 C 
ENDBRANCH  17  18
ENDBRANCH   1  17
BRANCH   3  22
HETATM   22  C   UNK N   1      27.590  17.033   4.992  0.00  0.00    -0.009 A 
HETATM   23  C   UNK N   1      27.618  17.940   3.919  0.00  0.00     0.011 A 
HETATM   24  C   UNK N   1      27.695  19.315   4.139  0.00  0.00     0.002 A 
HETATM   25  C   UNK N   1      27.784  19.809   5.440  0.00  0.00     0.027 A 
HETATM   26  C   UNK N   1      27.776  18.930   6.522  0.00  0.00     0.073 A 
HETATM   27  C   UNK N   1      27.664  17.551   6.305  0.00  0.00     0.144 A 
HETATM   28 Cl   UNK N   1      27.937  19.562   8.149  0.00  0.00    -0.081 Cl
HETATM   29  F   UNK N   1      27.650  16.711   7.372  0.00  0.00    -0.204 F 
ENDBRANCH   3  22
BRANCH   4  30
HETATM   30  C   UNK N   1      29.399  14.084   3.861  0.00  0.00     0.245 C 
HETATM   31  O   UNK N   1      28.942  12.953   3.842  0.00  0.00    -0.271 OA
HETATM   32  N   UNK N   1      30.723  14.262   4.081  0.00  0.00    -0.323 N 
HETATM   33  H   UNK N   1      31.359  13.619   3.691  0.00  0.00     0.169 HD
BRANCH  32  34
HETATM   34  C   UNK N   1      31.226  15.341   4.854  0.00  0.00     0.068 A 
HETATM   35  C   UNK N   1      30.877  15.399   6.211  0.00  0.00     0.033 A 
HETATM   36  C   UNK N   1      31.573  16.191   7.099  0.00  0.00     0.021 A 
HETATM   37  C   UNK N   1      32.657  16.938   6.657  0.00  0.00     0.040 A 
HETATM   38  C   UNK N   1      32.979  16.957   5.289  0.00  0.00     0.057 A 
HETATM   39  C   UNK N   1      32.268  16.171   4.369  0.00  0.00     0.096 A 
BRANCH  37  40
HETATM   40  C   UNK N   1      33.496  17.617   7.653  0.00  0.00     0.176 C 
HETATM   41  O   UNK N   1      34.502  18.214   7.308  0.00  0.00    -0.646 OA
BRANCH  40  42
HETATM   42  O   UNK N   1      33.197  17.516   8.964  0.00  0.00    -0.773 OA
HETATM   43  H   UNK N   1      33.871  17.358   9.596  0.00  0.00     0.167 HD
ENDBRANCH  40  42
ENDBRANCH  37  40
BRANCH  39  44
HETATM   44  O   UNK N   1      32.652  16.205   3.066  0.00  0.00    -0.354 OA
HETATM   45  C   UNK N   1      33.702  15.486   2.539  0.00  0.00     0.210 C 
ENDBRANCH  39  44
ENDBRANCH  32  34
ENDBRANCH   4  30
TORSDOF 9
ENDMDL
MODEL 4
REMARK VINA RESULT:      -7.6     10.876     14.475
REMARK  9 active torsions:
REMARK  status: ('A' for Active; 'I' for Inactive)
REMARK    1  A    between atoms: C_2  and  C_5 
REMARK    2  A    between atoms: C_6  and  C_5 
REMARK    3  A    between atoms: C_7  and  C_35 
REMARK    4  A    between atoms: C_8  and  C_25 
REMARK    5  A    between atoms: C_9  and  C_11 
REMARK       I    between atoms: C_11  and  N_13 
REMARK    6  A    between atoms: N_13  and  C_14 
REMARK    7  A    between atoms: C_17  and  C_22 
REMARK    8  A    between atoms: C_19  and  O_20 
REMARK    9  A    between atoms: C_22  and  O_24 
ROOT
HETATM    1  C   UNK N   1      32.236  16.039   8.711  0.00  0.00     0.106 C 
HETATM    2  C   UNK N   1      33.298  15.715   7.610  0.00  0.00     0.109 C 
HETATM    3  C   UNK N   1      34.274  14.782   8.419  0.00  0.00     0.083 C 
HETATM    4  C   UNK N   1      33.982  15.066   9.868  0.00  0.00     0.181 C 
HETATM    5  N   UNK N   1      32.575  15.401   9.973  0.00  0.00    -0.402 N 
HETATM    6  C   UNK N   1      34.015  16.944   7.219  0.00  0.00     0.077 C 
HETATM    7  N   UNK N   1      34.576  17.889   6.856  0.00  0.00    -0.196 NA
HETATM    8  H   UNK N   1      31.955  15.226  10.764  0.00  0.00     0.154 HD
ENDROOT
BRANCH   2   9
HETATM    9  C   UNK N   1      32.873  15.014   6.338  0.00  0.00     0.006 A 
HETATM   10  C   UNK N   1      31.570  14.517   6.188  0.00  0.00     0.014 A 
HETATM   11  C   UNK N   1      31.245  13.730   5.076  0.00  0.00     0.024 A 
HETATM   12  C   UNK N   1      32.219  13.435   4.115  0.00  0.00     0.036 A 
HETATM   13  C   UNK N   1      33.506  13.952   4.240  0.00  0.00     0.066 A 
HETATM   14 Cl   UNK N   1      31.849  12.364   2.784  0.00  0.00    -0.084 Cl
HETATM   15  C   UNK N   1      33.836  14.749   5.333  0.00  0.00     0.126 A 
HETATM   16  F   UNK N   1      35.117  15.181   5.465  0.00  0.00    -0.205 F 
ENDBRANCH   2   9
BRANCH   1  17
HETATM   17  C   UNK N   1      31.531  17.415   8.927  0.00  0.00     0.035 C 
BRANCH  17  18
HETATM   18  C   UNK N   1      29.989  17.620   9.009  0.00  0.00    -0.050 C 
HETATM   19  C   UNK N   1      29.354  17.216   7.694  0.00  0.00     0.014 C 
HETATM   20  C   UNK N   1      29.723  19.093   9.218  0.00  0.00     0.014 C 
HETATM   21  C   UNK N   1      29.244  16.851  10.068  0.00  0.00     0.014 C 
ENDBRANCH  17  18
ENDBRANCH   1  17
BRANCH   3  22
HETATM   22  C   UNK N   1      34.228  13.248   8.352  0.00  0.00    -0.009 A 
HETATM   23  C   UNK N   1      33.178  12.485   8.890  0.00  0.00     0.011 A 
HETATM   24  C   UNK N   1      33.189  11.093   8.819  0.00  0.00     0.002 A 
HETATM   25  C   UNK N   1      34.272  10.432   8.240  0.00  0.00     0.027 A 
HETATM   26  C   UNK N   1      35.335  11.164   7.714  0.00  0.00     0.073 A 
HETATM   27  C   UNK N   1      35.311  12.564   7.753  0.00  0.00     0.144 A 
HETATM   28 Cl   UNK N   1      36.712  10.320   7.033  0.00  0.00    -0.081 Cl
HETATM   29  F   UNK N   1      36.353  13.261   7.229  0.00  0.00    -0.204 F 
ENDBRANCH   3  22
BRANCH   4  30
HETATM   30  C   UNK N   1      34.820  16.125  10.502  0.00  0.00     0.245 C 
HETATM   31  O   UNK N   1      34.934  17.219   9.976  0.00  0.00    -0.271 OA
HETATM   32  N   UNK N   1      35.493  15.865  11.647  0.00  0.00    -0.323 N 
HETATM   33  H   UNK N   1      35.586  16.581  12.316  0.00  0.00     0.169 HD
BRANCH  32  34
HETATM   34  C   UNK N   1      36.070  14.596  11.918  0.00  0.00     0.068 A 
HETATM   35  C   UNK N   1      35.530  13.836  12.965  0.00  0.00     0.033 A 
HETATM   36  C   UNK N   1      35.786  12.487  13.081  0.00  0.00     0.021 A 
HETATM   37  C   UNK N   1      36.578  11.849  12.135  0.00  0.00     0.040 A 
HETATM   38  C   UNK N   1      37.193  12.601  11.120  0.00  0.00     0.057 A 
HETATM   39  C   UNK N   1      36.958  13.980  11.000  0.00  0.00     0.096 A 
BRANCH  37  40
HETATM   40  C   UNK N   1      36.675  10.384  12.172  0.00  0.00     0.176 C 
HETATM   41  O   UNK N   1      37.156   9.821  13.141  0.00  0.00    -0.646 OA
BRANCH  40  42
HETATM   42  O   UNK N   1      36.303   9.660  11.096  0.00  0.00    -0.773 OA
HETATM   43  H   UNK N   1      36.621   9.876  10.242  0.00  0.00     0.167 HD
ENDBRANCH  40  42
ENDBRANCH  37  40
BRANCH  39  44
HETATM   44  O   UNK N   1      37.552  14.644   9.974  0.00  0.00    -0.354 OA
HETATM   45  C   UNK N   1      38.681  14.215   9.312  0.00  0.00     0.210 C 
ENDBRANCH  39  44
ENDBRANCH  32  34
ENDBRANCH   4  30
TORSDOF 9
ENDMDL
MODEL 5
REMARK VINA RESULT:      -7.6     14.187     17.628
REMARK  9 active torsions:
REMARK  status: ('A' for Active; 'I' for Inactive)
REMARK    1  A    between atoms: C_2  and  C_5 
REMARK    2  A    between atoms: C_6  and  C_5 
REMARK    3  A    between atoms: C_7  and  C_35 
REMARK    4  A    between atoms: C_8  and  C_25 
REMARK    5  A    between atoms: C_9  and  C_11 
REMARK       I    between atoms: C_11  and  N_13 
REMARK    6  A    between atoms: N_13  and  C_14 
REMARK    7  A    between atoms: C_17  and  C_22 
REMARK    8  A    between atoms: C_19  and  O_20 
REMARK    9  A    between atoms: C_22  and  O_24 
ROOT
HETATM    1  C   UNK N   1      28.160  22.417  -8.567  0.00  0.00     0.106 C 
HETATM    2  C   UNK N   1      28.698  23.884  -8.508  0.00  0.00     0.109 C 
HETATM    3  C   UNK N   1      28.283  24.284  -7.044  0.00  0.00     0.083 C 
HETATM    4  C   UNK N   1      27.214  23.297  -6.654  0.00  0.00     0.181 C 
HETATM    5  N   UNK N   1      27.510  22.044  -7.321  0.00  0.00    -0.402 N 
HETATM    6  C   UNK N   1      27.966  24.731  -9.469  0.00  0.00     0.077 C 
HETATM    7  N   UNK N   1      27.442  25.424 -10.235  0.00  0.00    -0.196 NA
HETATM    8  H   UNK N   1      27.305  21.103  -6.988  0.00  0.00     0.154 HD
ENDROOT
BRANCH   2   9
HETATM    9  C   UNK N   1      30.175  24.152  -8.702  0.00  0.00     0.006 A 
HETATM   10  C   UNK N   1      31.094  23.097  -8.807  0.00  0.00     0.014 A 
HETATM   11  C   UNK N   1      32.467  23.365  -8.819  0.00  0.00     0.024 A 
HETATM   12  C   UNK N   1      32.928  24.682  -8.723  0.00  0.00     0.036 A 
HETATM   13  C   UNK N   1      32.023  25.738  -8.653  0.00  0.00     0.066 A 
HETATM   14 Cl   UNK N   1      34.642  25.013  -8.629  0.00  0.00    -0.084 Cl
HETATM   15  C   UNK N   1      30.653  25.485  -8.655  0.00  0.00     0.126 A 
HETATM   16  F   UNK N   1      29.795  26.528  -8.513  0.00  0.00    -0.205 F 
ENDBRANCH   2   9
BRANCH   1  17
HETATM   17  C   UNK N   1      27.487  21.736  -9.800  0.00  0.00     0.035 C 
BRANCH  17  18
HETATM   18  C   UNK N   1      28.253  21.174 -11.034  0.00  0.00    -0.050 C 
HETATM   19  C   UNK N   1      27.270  20.523 -11.986  0.00  0.00     0.014 C 
HETATM   20  C   UNK N   1      29.203  20.105 -10.549  0.00  0.00     0.014 C 
HETATM   21  C   UNK N   1      29.032  22.154 -11.870  0.00  0.00     0.014 C 
ENDBRANCH  17  18
ENDBRANCH   1  17
BRANCH   3  22
HETATM   22  C   UNK N   1      29.246  24.238  -5.849  0.00  0.00    -0.009 A 
HETATM   23  C   UNK N   1      29.751  23.042  -5.312  0.00  0.00     0.011 A 
HETATM   24  C   UNK N   1      30.611  23.051  -4.214  0.00  0.00     0.002 A 
HETATM   25  C   UNK N   1      30.954  24.258  -3.607  0.00  0.00     0.027 A 
HETATM   26  C   UNK N   1      30.454  25.458  -4.109  0.00  0.00     0.073 A 
HETATM   27  C   UNK N   1      29.617  25.455  -5.232  0.00  0.00     0.144 A 
HETATM   28 Cl   UNK N   1      30.855  26.965  -3.306  0.00  0.00    -0.081 Cl
HETATM   29  F   UNK N   1      29.145  26.635  -5.711  0.00  0.00    -0.204 F 
ENDBRANCH   3  22
BRANCH   4  30
HETATM   30  C   UNK N   1      25.810  23.720  -6.933  0.00  0.00     0.245 C 
HETATM   31  O   UNK N   1      25.236  23.328  -7.935  0.00  0.00    -0.271 OA
HETATM   32  N   UNK N   1      25.177  24.573  -6.094  0.00  0.00    -0.323 N 
HETATM   33  H   UNK N   1      24.212  24.456  -5.937  0.00  0.00     0.169 HD
BRANCH  32  34
HETATM   34  C   UNK N   1      25.855  25.631  -5.434  0.00  0.00     0.068 A 
HETATM   35  C   UNK N   1      25.891  26.885  -6.061  0.00  0.00     0.033 A 
HETATM   36  C   UNK N   1      26.216  28.029  -5.364  0.00  0.00     0.021 A 
HETATM   37  C   UNK N   1      26.498  27.955  -4.007  0.00  0.00     0.040 A 
HETATM   38  C   UNK N   1      26.544  26.703  -3.371  0.00  0.00     0.057 A 
HETATM   39  C   UNK N   1      26.234  25.526  -4.072  0.00  0.00     0.096 A 
BRANCH  37  40
HETATM   40  C   UNK N   1      26.649  29.206  -3.251  0.00  0.00     0.176 C 
HETATM   41  O   UNK N   1      27.300  29.229  -2.219  0.00  0.00    -0.646 OA
BRANCH  40  42
HETATM   42  O   UNK N   1      26.003  30.318  -3.657  0.00  0.00    -0.773 OA
HETATM   43  H   UNK N   1      26.431  31.151  -3.640  0.00  0.00     0.167 HD
ENDBRANCH  40  42
ENDBRANCH  37  40
BRANCH  39  44
HETATM   44  O   UNK N   1      26.261  24.350  -3.391  0.00  0.00    -0.354 OA
HETATM   45  C   UNK N   1      27.349  23.870  -2.697  0.00  0.00     0.210 C 
ENDBRANCH  39  44
ENDBRANCH  32  34
ENDBRANCH   4  30
TORSDOF 9
ENDMDL
MODEL 6
REMARK VINA RESULT:      -7.5     13.109     15.780
REMARK  9 active torsions:
REMARK  status: ('A' for Active; 'I' for Inactive)
REMARK    1  A    between atoms: C_2  and  C_5 
REMARK    2  A    between atoms: C_6  and  C_5 
REMARK    3  A    between atoms: C_7  and  C_35 
REMARK    4  A    between atoms: C_8  and  C_25 
REMARK    5  A    between atoms: C_9  and  C_11 
REMARK       I    between atoms: C_11  and  N_13 
REMARK    6  A    between atoms: N_13  and  C_14 
REMARK    7  A    between atoms: C_17  and  C_22 
REMARK    8  A    between atoms: C_19  and  O_20 
REMARK    9  A    between atoms: C_22  and  O_24 
ROOT
HETATM    1  C   UNK N   1      36.809  10.823  14.261  0.00  0.00     0.106 C 
HETATM    2  C   UNK N   1      35.569  10.639  13.326  0.00  0.00     0.109 C 
HETATM    3  C   UNK N   1      35.930  11.644  12.170  0.00  0.00     0.083 C 
HETATM    4  C   UNK N   1      36.960  12.570  12.758  0.00  0.00     0.181 C 
HETATM    5  N   UNK N   1      37.731  11.810  13.723  0.00  0.00    -0.402 N 
HETATM    6  C   UNK N   1      34.346  11.104  14.008  0.00  0.00     0.077 C 
HETATM    7  N   UNK N   1      33.358  11.423  14.520  0.00  0.00    -0.196 NA
HETATM    8  H   UNK N   1      38.712  11.941  13.972  0.00  0.00     0.154 HD
ENDROOT
BRANCH   2   9
HETATM    9  C   UNK N   1      35.268   9.279  12.734  0.00  0.00     0.006 A 
HETATM   10  C   UNK N   1      36.122   8.189  12.956  0.00  0.00     0.014 A 
HETATM   11  C   UNK N   1      35.916   6.988  12.268  0.00  0.00     0.024 A 
HETATM   12  C   UNK N   1      34.862   6.871  11.355  0.00  0.00     0.036 A 
HETATM   13  C   UNK N   1      33.990   7.938  11.154  0.00  0.00     0.066 A 
HETATM   14 Cl   UNK N   1      34.667   5.412  10.414  0.00  0.00    -0.084 Cl
HETATM   15  C   UNK N   1      34.175   9.133  11.844  0.00  0.00     0.126 A 
HETATM   16  F   UNK N   1      33.352  10.179  11.575  0.00  0.00    -0.205 F 
ENDBRANCH   2   9
BRANCH   1  17
HETATM   17  C   UNK N   1      36.786  10.838  15.821  0.00  0.00     0.035 C 
BRANCH  17  18
HETATM   18  C   UNK N   1      36.555   9.587  16.720  0.00  0.00    -0.050 C 
HETATM   19  C   UNK N   1      36.636   9.990  18.178  0.00  0.00     0.014 C 
HETATM   20  C   UNK N   1      37.669   8.603  16.450  0.00  0.00     0.014 C 
HETATM   21  C   UNK N   1      35.242   8.865  16.576  0.00  0.00     0.014 C 
ENDBRANCH  17  18
ENDBRANCH   1  17
BRANCH   3  22
HETATM   22  C   UNK N   1      36.572  11.211  10.843  0.00  0.00    -0.009 A 
HETATM   23  C   UNK N   1      37.860  10.655  10.756  0.00  0.00     0.011 A 
HETATM   24  C   UNK N   1      38.407  10.293   9.526  0.00  0.00     0.002 A 
HETATM   25  C   UNK N   1      37.691  10.516   8.351  0.00  0.00     0.027 A 
HETATM   26  C   UNK N   1      36.418  11.083   8.407  0.00  0.00     0.073 A 
HETATM   27  C   UNK N   1      35.852  11.415   9.644  0.00  0.00     0.144 A 
HETATM   28 Cl   UNK N   1      35.548  11.402   6.919  0.00  0.00    -0.081 Cl
HETATM   29  F   UNK N   1      34.608  11.960   9.679  0.00  0.00    -0.204 F 
ENDBRANCH   3  22
BRANCH   4  30
HETATM   30  C   UNK N   1      36.429  13.818  13.380  0.00  0.00     0.245 C 
HETATM   31  O   UNK N   1      36.194  13.860  14.576  0.00  0.00    -0.271 OA
HETATM   32  N   UNK N   1      36.167  14.902  12.612  0.00  0.00    -0.323 N 
HETATM   33  H   UNK N   1      36.334  15.798  12.984  0.00  0.00     0.169 HD
BRANCH  32  34
HETATM   34  C   UNK N   1      35.659  14.791  11.291  0.00  0.00     0.068 A 
HETATM   35  C   UNK N   1      34.270  14.858  11.111  0.00  0.00     0.033 A 
HETATM   36  C   UNK N   1      33.716  15.101   9.873  0.00  0.00     0.021 A 
HETATM   37  C   UNK N   1      34.541  15.304   8.774  0.00  0.00     0.040 A 
HETATM   38  C   UNK N   1      35.932  15.167   8.912  0.00  0.00     0.057 A 
HETATM   39  C   UNK N   1      36.511  14.901  10.164  0.00  0.00     0.096 A 
BRANCH  37  40
HETATM   40  C   UNK N   1      33.934  15.750   7.513  0.00  0.00     0.176 C 
HETATM   41  O   UNK N   1      32.813  15.383   7.203  0.00  0.00    -0.646 OA
BRANCH  40  42
HETATM   42  O   UNK N   1      34.649  16.508   6.656  0.00  0.00    -0.773 OA
HETATM   43  H   UNK N   1      35.491  16.226   6.358  0.00  0.00     0.167 HD
ENDBRANCH  40  42
ENDBRANCH  37  40
BRANCH  39  44
HETATM   44  O   UNK N   1      37.865  14.816  10.238  0.00  0.00    -0.354 OA
HETATM   45  C   UNK N   1      38.650  14.057   9.400  0.00  0.00     0.210 C 
ENDBRANCH  39  44
ENDBRANCH  32  34
ENDBRANCH   4  30
TORSDOF 9
ENDMDL
MODEL 7
REMARK VINA RESULT:      -7.4      3.894      7.913
REMARK  9 active torsions:
REMARK  status: ('A' for Active; 'I' for Inactive)
REMARK    1  A    between atoms: C_2  and  C_5 
REMARK    2  A    between atoms: C_6  and  C_5 
REMARK    3  A    between atoms: C_7  and  C_35 
REMARK    4  A    between atoms: C_8  and  C_25 
REMARK    5  A    between atoms: C_9  and  C_11 
REMARK       I    between atoms: C_11  and  N_13 
REMARK    6  A    between atoms: N_13  and  C_14 
REMARK    7  A    between atoms: C_17  and  C_22 
REMARK    8  A    between atoms: C_19  and  O_20 
REMARK    9  A    between atoms: C_22  and  O_24 
ROOT
HETATM    1  C   UNK N   1      20.149  14.026   3.023  0.00  0.00     0.106 C 
HETATM    2  C   UNK N   1      20.362  15.085   4.154  0.00  0.00     0.109 C 
HETATM    3  C   UNK N   1      21.490  14.382   4.997  0.00  0.00     0.083 C 
HETATM    4  C   UNK N   1      21.434  12.931   4.599  0.00  0.00     0.181 C 
HETATM    5  N   UNK N   1      21.016  12.873   3.212  0.00  0.00    -0.402 N 
HETATM    6  C   UNK N   1      19.144  15.202   4.976  0.00  0.00     0.077 C 
HETATM    7  N   UNK N   1      18.196  15.352   5.625  0.00  0.00    -0.196 NA
HETATM    8  H   UNK N   1      21.274  12.173   2.517  0.00  0.00     0.154 HD
ENDROOT
BRANCH   2   9
HETATM    9  C   UNK N   1      20.803  16.488   3.796  0.00  0.00     0.006 A 
HETATM   10  C   UNK N   1      21.036  17.448   4.793  0.00  0.00     0.014 A 
HETATM   11  C   UNK N   1      21.282  18.779   4.438  0.00  0.00     0.024 A 
HETATM   12  C   UNK N   1      21.291  19.158   3.091  0.00  0.00     0.036 A 
HETATM   13  C   UNK N   1      21.093  18.205   2.094  0.00  0.00     0.066 A 
HETATM   14 Cl   UNK N   1      21.488  20.837   2.646  0.00  0.00    -0.084 Cl
HETATM   15  C   UNK N   1      20.864  16.875   2.434  0.00  0.00     0.126 A 
HETATM   16  F   UNK N   1      20.603  15.981   1.445  0.00  0.00    -0.205 F 
ENDBRANCH   2   9
BRANCH   1  17
HETATM   17  C   UNK N   1      18.780  13.626   2.389  0.00  0.00     0.035 C 
BRANCH  17  18
HETATM   18  C   UNK N   1      18.551  13.340   0.875  0.00  0.00    -0.050 C 
HETATM   19  C   UNK N   1      17.448  12.313   0.716  0.00  0.00     0.014 C 
HETATM   20  C   UNK N   1      19.820  12.745   0.312  0.00  0.00     0.014 C 
HETATM   21  C   UNK N   1      18.148  14.501   0.006  0.00  0.00     0.014 C 
ENDBRANCH  17  18
ENDBRANCH   1  17
BRANCH   3  22
HETATM   22  C   UNK N   1      22.983  14.720   4.860  0.00  0.00    -0.009 A 
HETATM   23  C   UNK N   1      23.667  14.703   3.634  0.00  0.00     0.011 A 
HETATM   24  C   UNK N   1      25.028  15.001   3.564  0.00  0.00     0.002 A 
HETATM   25  C   UNK N   1      25.741  15.285   4.727  0.00  0.00     0.027 A 
HETATM   26  C   UNK N   1      25.090  15.290   5.960  0.00  0.00     0.073 A 
HETATM   27  C   UNK N   1      23.717  15.026   6.030  0.00  0.00     0.144 A 
HETATM   28 Cl   UNK N   1      26.008  15.602   7.420  0.00  0.00    -0.081 Cl
HETATM   29  F   UNK N   1      23.098  15.043   7.239  0.00  0.00    -0.204 F 
ENDBRANCH   3  22
BRANCH   4  30
HETATM   30  C   UNK N   1      20.565  12.062   5.445  0.00  0.00     0.245 C 
HETATM   31  O   UNK N   1      19.375  11.955   5.200  0.00  0.00    -0.271 OA
HETATM   32  N   UNK N   1      21.084  11.415   6.514  0.00  0.00    -0.323 N 
HETATM   33  H   UNK N   1      20.748  10.517   6.735  0.00  0.00     0.169 HD
BRANCH  32  34
HETATM   34  C   UNK N   1      22.097  11.986   7.328  0.00  0.00     0.068 A 
HETATM   35  C   UNK N   1      21.706  12.647   8.501  0.00  0.00     0.033 A 
HETATM   36  C   UNK N   1      22.608  12.927   9.505  0.00  0.00     0.021 A 
HETATM   37  C   UNK N   1      23.933  12.534   9.372  0.00  0.00     0.040 A 
HETATM   38  C   UNK N   1      24.368  11.939   8.176  0.00  0.00     0.057 A 
HETATM   39  C   UNK N   1      23.465  11.665   7.137  0.00  0.00     0.096 A 
BRANCH  37  40
HETATM   40  C   UNK N   1      24.826  12.669  10.531  0.00  0.00     0.176 C 
HETATM   41  O   UNK N   1      24.687  11.947  11.505  0.00  0.00    -0.646 OA
BRANCH  40  42
HETATM   42  O   UNK N   1      25.755  13.647  10.553  0.00  0.00    -0.773 OA
HETATM   43  H   UNK N   1      25.697  14.372   9.963  0.00  0.00     0.167 HD
ENDBRANCH  40  42
ENDBRANCH  37  40
BRANCH  39  44
HETATM   44  O   UNK N   1      23.940  11.054   6.020  0.00  0.00    -0.354 OA
HETATM   45  C   UNK N   1      24.415   9.762   5.974  0.00  0.00     0.210 C 
ENDBRANCH  39  44
ENDBRANCH  32  34
ENDBRANCH   4  30
TORSDOF 9
ENDMDL
MODEL 8
REMARK VINA RESULT:      -7.4     14.980     17.652
REMARK  9 active torsions:
REMARK  status: ('A' for Active; 'I' for Inactive)
REMARK    1  A    between atoms: C_2  and  C_5 
REMARK    2  A    between atoms: C_6  and  C_5 
REMARK    3  A    between atoms: C_7  and  C_35 
REMARK    4  A    between atoms: C_8  and  C_25 
REMARK    5  A    between atoms: C_9  and  C_11 
REMARK       I    between atoms: C_11  and  N_13 
REMARK    6  A    between atoms: N_13  and  C_14 
REMARK    7  A    between atoms: C_17  and  C_22 
REMARK    8  A    between atoms: C_19  and  O_20 
REMARK    9  A    between atoms: C_22  and  O_24 
ROOT
HETATM    1  C   UNK N   1      27.604  25.365  -5.271  0.00  0.00     0.106 C 
HETATM    2  C   UNK N   1      28.729  25.532  -6.344  0.00  0.00     0.109 C 
HETATM    3  C   UNK N   1      29.419  24.120  -6.258  0.00  0.00     0.083 C 
HETATM    4  C   UNK N   1      28.994  23.554  -4.929  0.00  0.00     0.181 C 
HETATM    5  N   UNK N   1      27.663  24.054  -4.646  0.00  0.00    -0.402 N 
HETATM    6  C   UNK N   1      29.688  26.568  -5.918  0.00  0.00     0.077 C 
HETATM    7  N   UNK N   1      30.444  27.400  -5.639  0.00  0.00    -0.196 NA
HETATM    8  H   UNK N   1      26.925  23.586  -4.120  0.00  0.00     0.154 HD
ENDROOT
BRANCH   2   9
HETATM    9  C   UNK N   1      28.359  25.822  -7.783  0.00  0.00     0.006 A 
HETATM   10  C   UNK N   1      29.253  26.483  -8.639  0.00  0.00     0.014 A 
HETATM   11  C   UNK N   1      28.832  26.888  -9.912  0.00  0.00     0.024 A 
HETATM   12  C   UNK N   1      27.521  26.639 -10.332  0.00  0.00     0.036 A 
HETATM   13  C   UNK N   1      26.638  25.954  -9.501  0.00  0.00     0.066 A 
HETATM   14 Cl   UNK N   1      26.959  27.238 -11.874  0.00  0.00    -0.084 Cl
HETATM   15  C   UNK N   1      27.049  25.533  -8.239  0.00  0.00     0.126 A 
HETATM   16  F   UNK N   1      26.146  24.931  -7.423  0.00  0.00    -0.205 F 
ENDBRANCH   2   9
BRANCH   1  17
HETATM   17  C   UNK N   1      27.120  26.464  -4.273  0.00  0.00     0.035 C 
BRANCH  17  18
HETATM   18  C   UNK N   1      26.329  27.744  -4.674  0.00  0.00    -0.050 C 
HETATM   19  C   UNK N   1      25.938  28.509  -3.426  0.00  0.00     0.014 C 
HETATM   20  C   UNK N   1      25.059  27.313  -5.369  0.00  0.00     0.014 C 
HETATM   21  C   UNK N   1      27.032  28.744  -5.554  0.00  0.00     0.014 C 
ENDBRANCH  17  18
ENDBRANCH   1  17
BRANCH   3  22
HETATM   22  C   UNK N   1      29.122  22.972  -7.233  0.00  0.00    -0.009 A 
HETATM   23  C   UNK N   1      28.066  22.062  -7.054  0.00  0.00     0.011 A 
HETATM   24  C   UNK N   1      27.847  21.025  -7.959  0.00  0.00     0.002 A 
HETATM   25  C   UNK N   1      28.704  20.853  -9.044  0.00  0.00     0.027 A 
HETATM   26  C   UNK N   1      29.771  21.730  -9.236  0.00  0.00     0.073 A 
HETATM   27  C   UNK N   1      29.973  22.794  -8.348  0.00  0.00     0.144 A 
HETATM   28 Cl   UNK N   1      30.870  21.473 -10.578  0.00  0.00    -0.081 Cl
HETATM   29  F   UNK N   1      31.013  23.643  -8.556  0.00  0.00    -0.204 F 
ENDBRANCH   3  22
BRANCH   4  30
HETATM   30  C   UNK N   1      29.911  23.830  -3.785  0.00  0.00     0.245 C 
HETATM   31  O   UNK N   1      29.893  24.914  -3.227  0.00  0.00    -0.271 OA
HETATM   32  N   UNK N   1      30.798  22.890  -3.382  0.00  0.00    -0.323 N 
HETATM   33  H   UNK N   1      30.999  22.808  -2.421  0.00  0.00     0.169 HD
BRANCH  32  34
HETATM   34  C   UNK N   1      31.448  22.019  -4.295  0.00  0.00     0.068 A 
HETATM   35  C   UNK N   1      30.813  20.813  -4.622  0.00  0.00     0.033 A 
HETATM   36  C   UNK N   1      31.186  20.081  -5.729  0.00  0.00     0.021 A 
HETATM   37  C   UNK N   1      32.200  20.545  -6.556  0.00  0.00     0.040 A 
HETATM   38  C   UNK N   1      32.904  21.710  -6.208  0.00  0.00     0.057 A 
HETATM   39  C   UNK N   1      32.548  22.457  -5.074  0.00  0.00     0.096 A 
BRANCH  37  40
HETATM   40  C   UNK N   1      32.444  19.850  -7.826  0.00  0.00     0.176 C 
HETATM   41  O   UNK N   1      33.372  20.185  -8.544  0.00  0.00    -0.646 OA
BRANCH  40  42
HETATM   42  O   UNK N   1      31.594  18.888  -8.241  0.00  0.00    -0.773 OA
HETATM   43  H   UNK N   1      31.047  19.026  -8.989  0.00  0.00     0.167 HD
ENDBRANCH  40  42
ENDBRANCH  37  40
BRANCH  39  44
HETATM   44  O   UNK N   1      33.244  23.595  -4.813  0.00  0.00    -0.354 OA
HETATM   45  C   UNK N   1      33.077  24.787  -5.480  0.00  0.00     0.210 C 
ENDBRANCH  39  44
ENDBRANCH  32  34
ENDBRANCH   4  30
TORSDOF 9
ENDMDL
MODEL 9
REMARK VINA RESULT:      -7.3     14.792     17.276
REMARK  9 active torsions:
REMARK  status: ('A' for Active; 'I' for Inactive)
REMARK    1  A    between atoms: C_2  and  C_5 
REMARK    2  A    between atoms: C_6  and  C_5 
REMARK    3  A    between atoms: C_7  and  C_35 
REMARK    4  A    between atoms: C_8  and  C_25 
REMARK    5  A    between atoms: C_9  and  C_11 
REMARK       I    between atoms: C_11  and  N_13 
REMARK    6  A    between atoms: N_13  and  C_14 
REMARK    7  A    between atoms: C_17  and  C_22 
REMARK    8  A    between atoms: C_19  and  O_20 
REMARK    9  A    between atoms: C_22  and  O_24 
ROOT
HETATM    1  C   UNK N   1      29.290  21.487  -8.106  0.00  0.00     0.106 C 
HETATM    2  C   UNK N   1      30.299  22.565  -7.592  0.00  0.00     0.109 C 
HETATM    3  C   UNK N   1      29.343  23.806  -7.444  0.00  0.00     0.083 C 
HETATM    4  C   UNK N   1      28.141  23.481  -8.291  0.00  0.00     0.181 C 
HETATM    5  N   UNK N   1      27.955  22.043  -8.254  0.00  0.00    -0.402 N 
HETATM    6  C   UNK N   1      31.309  22.851  -8.628  0.00  0.00     0.077 C 
HETATM    7  N   UNK N   1      32.142  23.080  -9.399  0.00  0.00    -0.196 NA
HETATM    8  H   UNK N   1      27.075  21.531  -8.318  0.00  0.00     0.154 HD
ENDROOT
BRANCH   2   9
HETATM    9  C   UNK N   1      31.038  22.343  -6.290  0.00  0.00     0.006 A 
HETATM   10  C   UNK N   1      32.247  23.004  -6.023  0.00  0.00     0.014 A 
HETATM   11  C   UNK N   1      32.996  22.663  -4.891  0.00  0.00     0.024 A 
HETATM   12  C   UNK N   1      32.545  21.660  -4.026  0.00  0.00     0.036 A 
HETATM   13  C   UNK N   1      31.331  21.022  -4.265  0.00  0.00     0.066 A 
HETATM   14 Cl   UNK N   1      33.529  21.154  -2.672  0.00  0.00    -0.084 Cl
HETATM   15  C   UNK N   1      30.569  21.364  -5.379  0.00  0.00     0.126 A 
HETATM   16  F   UNK N   1      29.424  20.676  -5.627  0.00  0.00    -0.205 F 
ENDBRANCH   2   9
BRANCH   1  17
HETATM   17  C   UNK N   1      29.586  20.394  -9.181  0.00  0.00     0.035 C 
BRANCH  17  18
HETATM   18  C   UNK N   1      30.182  18.987  -8.879  0.00  0.00    -0.050 C 
HETATM   19  C   UNK N   1      29.340  18.298  -7.825  0.00  0.00     0.014 C 
HETATM   20  C   UNK N   1      31.569  19.177  -8.311  0.00  0.00     0.014 C 
HETATM   21  C   UNK N   1      30.270  18.013 -10.024  0.00  0.00     0.014 C 
ENDBRANCH  17  18
ENDBRANCH   1  17
BRANCH   3  22
HETATM   22  C   UNK N   1      28.717  24.238  -6.109  0.00  0.00    -0.009 A 
HETATM   23  C   UNK N   1      27.566  23.640  -5.569  0.00  0.00     0.011 A 
HETATM   24  C   UNK N   1      27.026  24.078  -4.360  0.00  0.00     0.002 A 
HETATM   25  C   UNK N   1      27.605  25.152  -3.686  0.00  0.00     0.027 A 
HETATM   26  C   UNK N   1      28.737  25.775  -4.209  0.00  0.00     0.073 A 
HETATM   27  C   UNK N   1      29.303  25.314  -5.404  0.00  0.00     0.144 A 
HETATM   28 Cl   UNK N   1      29.427  27.154  -3.375  0.00  0.00    -0.081 Cl
HETATM   29  F   UNK N   1      30.410  25.929  -5.895  0.00  0.00    -0.204 F 
ENDBRANCH   3  22
BRANCH   4  30
HETATM   30  C   UNK N   1      28.193  23.966  -9.701  0.00  0.00     0.245 C 
HETATM   31  O   UNK N   1      28.886  23.393 -10.525  0.00  0.00    -0.271 OA
HETATM   32  N   UNK N   1      27.501  25.070 -10.067  0.00  0.00    -0.323 N 
HETATM   33  H   UNK N   1      27.098  25.101 -10.965  0.00  0.00     0.169 HD
BRANCH  32  34
HETATM   34  C   UNK N   1      27.334  26.183  -9.202  0.00  0.00     0.068 A 
HETATM   35  C   UNK N   1      26.242  26.178  -8.323  0.00  0.00     0.033 A 
HETATM   36  C   UNK N   1      26.189  27.024  -7.237  0.00  0.00     0.021 A 
HETATM   37  C   UNK N   1      27.243  27.893  -6.985  0.00  0.00     0.040 A 
HETATM   38  C   UNK N   1      28.314  27.972  -7.892  0.00  0.00     0.057 A 
HETATM   39  C   UNK N   1      28.372  27.130  -9.013  0.00  0.00     0.096 A 
BRANCH  37  40
HETATM   40  C   UNK N   1      27.251  28.640  -5.720  0.00  0.00     0.176 C 
HETATM   41  O   UNK N   1      26.424  28.400  -4.856  0.00  0.00    -0.646 OA
BRANCH  40  42
HETATM   42  O   UNK N   1      28.127  29.651  -5.543  0.00  0.00    -0.773 OA
HETATM   43  H   UNK N   1      28.469  30.120  -6.279  0.00  0.00     0.167 HD
ENDBRANCH  40  42
ENDBRANCH  37  40
BRANCH  39  44
HETATM   44  O   UNK N   1      29.452  27.229  -9.832  0.00  0.00    -0.354 OA
HETATM   45  C   UNK N   1      30.707  26.744  -9.538  0.00  0.00     0.210 C 
ENDBRANCH  39  44
ENDBRANCH  32  34
ENDBRANCH   4  30
TORSDOF 9
ENDMDL
