MODEL 1
REMARK VINA RESULT:      -6.3      0.000      0.000
REMARK  12 active torsions:
REMARK  status: ('A' for Active; 'I' for Inactive)
REMARK    1  A    between atoms: C_1  and  O_2 
REMARK    2  A    between atoms: C_5  and  O_2 
REMARK    3  A    between atoms: C_4  and  O_8 
REMARK    4  A    between atoms: C_6  and  C_12 
REMARK    5  A    between atoms: C_7  and  O_13 
REMARK    6  A    between atoms: C_10  and  O_16 
REMARK    7  A    between atoms: C_11  and  O_17 
REMARK    8  A    between atoms: C_12  and  O_18 
REMARK    9  A    between atoms: C_14  and  C_20 
REMARK   10  A    between atoms: C_15  and  O_21 
REMARK   11  A    between atoms: C_19  and  O_22 
REMARK   12  A    between atoms: C_20  and  O_23 
ROOT
HETATM    1  O   UNK N   1      31.931  17.520   8.976  0.00  0.00    -0.326 OA
ENDROOT
BRANCH   1   2
HETATM    2  C   UNK N   1      32.405  16.285   8.517  0.00  0.00     0.294 C 
HETATM    3  O   UNK N   1      33.561  16.437   7.712  0.00  0.00    -0.348 OA
HETATM    4  C   UNK N   1      34.670  16.942   8.454  0.00  0.00     0.179 C 
HETATM    5  C   UNK N   1      34.744  16.487   9.926  0.00  0.00     0.180 C 
HETATM    6  C   UNK N   1      34.071  15.135  10.045  0.00  0.00     0.183 C 
HETATM    7  C   UNK N   1      32.598  15.286   9.670  0.00  0.00     0.204 C 
BRANCH   4   8
HETATM    8  C   UNK N   1      34.792  18.453   8.302  0.00  0.00     0.198 C 
BRANCH   8   9
HETATM    9  O   UNK N   1      35.746  18.957   9.185  0.00  0.00    -0.398 OA
HETATM   10  H   UNK N   1      36.700  18.986   9.008  0.00  0.00     0.209 HD
ENDBRANCH   8   9
ENDBRANCH   4   8
BRANCH   5  11
HETATM   11  O   UNK N   1      36.080  16.408  10.327  0.00  0.00    -0.390 OA
HETATM   12  H   UNK N   1      36.433  15.587  10.705  0.00  0.00     0.210 HD
ENDBRANCH   5  11
BRANCH   6  13
HETATM   13  O   UNK N   1      34.176  14.633  11.343  0.00  0.00    -0.390 OA
HETATM   14  H   UNK N   1      34.125  13.742  11.724  0.00  0.00     0.210 HD
ENDBRANCH   6  13
BRANCH   7  15
HETATM   15  O   UNK N   1      32.079  14.040   9.323  0.00  0.00    -0.388 OA
HETATM   16  H   UNK N   1      31.388  13.473   9.702  0.00  0.00     0.210 HD
ENDBRANCH   7  15
ENDBRANCH   1   2
BRANCH   1  17
HETATM   17  C   UNK N   1      30.697  17.673   8.336  0.00  0.00     0.294 C 
HETATM   18  O   UNK N   1      30.455  16.567   7.504  0.00  0.00    -0.348 OA
HETATM   19  C   UNK N   1      29.415  16.955   6.647  0.00  0.00     0.179 C 
HETATM   20  C   UNK N   1      28.103  16.973   7.447  0.00  0.00     0.180 C 
HETATM   21  C   UNK N   1      28.252  18.008   8.569  0.00  0.00     0.183 C 
HETATM   22  C   UNK N   1      29.555  17.799   9.349  0.00  0.00     0.204 C 
BRANCH  19  23
HETATM   23  C   UNK N   1      29.369  16.006   5.459  0.00  0.00     0.198 C 
BRANCH  23  24
HETATM   24  O   UNK N   1      28.735  16.623   4.383  0.00  0.00    -0.398 OA
HETATM   25  H   UNK N   1      29.021  16.975   3.525  0.00  0.00     0.209 HD
ENDBRANCH  23  24
ENDBRANCH  19  23
BRANCH  20  26
HETATM   26  O   UNK N   1      27.026  17.326   6.633  0.00  0.00    -0.390 OA
HETATM   27  H   UNK N   1      26.209  16.813   6.531  0.00  0.00     0.210 HD
ENDBRANCH  20  26
BRANCH  21  28
HETATM   28  O   UNK N   1      27.157  17.956   9.431  0.00  0.00    -0.390 OA
HETATM   29  H   UNK N   1      27.223  17.837  10.392  0.00  0.00     0.210 HD
ENDBRANCH  21  28
BRANCH  22  30
HETATM   30  O   UNK N   1      29.776  18.893  10.189  0.00  0.00    -0.388 OA
HETATM   31  H   UNK N   1      30.316  18.932  10.995  0.00  0.00     0.210 HD
ENDBRANCH  22  30
ENDBRANCH   1  17
TORSDOF 12
ENDMDL
MODEL 2
REMARK VINA RESULT:      -6.3      1.748      2.869
REMARK  12 active torsions:
REMARK  status: ('A' for Active; 'I' for Inactive)
REMARK    1  A    between atoms: C_1  and  O_2 
REMARK    2  A    between atoms: C_5  and  O_2 
REMARK    3  A    between atoms: C_4  and  O_8 
REMARK    4  A    between atoms: C_6  and  C_12 
REMARK    5  A    between atoms: C_7  and  O_13 
REMARK    6  A    between atoms: C_10  and  O_16 
REMARK    7  A    between atoms: C_11  and  O_17 
REMARK    8  A    between atoms: C_12  and  O_18 
REMARK    9  A    between atoms: C_14  and  C_20 
REMARK   10  A    between atoms: C_15  and  O_21 
REMARK   11  A    between atoms: C_19  and  O_22 
REMARK   12  A    between atoms: C_20  and  O_23 
ROOT
HETATM    1  O   UNK N   1      31.533  16.354   7.501  0.00  0.00    -0.326 OA
ENDROOT
BRANCH   1   2
HETATM    2  C   UNK N   1      32.675  17.163   7.537  0.00  0.00     0.294 C 
HETATM    3  O   UNK N   1      33.313  17.110   8.800  0.00  0.00    -0.348 OA
HETATM    4  C   UNK N   1      33.839  15.814   9.082  0.00  0.00     0.179 C 
HETATM    5  C   UNK N   1      34.362  15.031   7.860  0.00  0.00     0.180 C 
HETATM    6  C   UNK N   1      34.824  16.026   6.815  0.00  0.00     0.183 C 
HETATM    7  C   UNK N   1      33.624  16.858   6.366  0.00  0.00     0.204 C 
BRANCH   4   8
HETATM    8  C   UNK N   1      32.870  14.998   9.928  0.00  0.00     0.198 C 
BRANCH   8   9
HETATM    9  O   UNK N   1      33.331  14.898  11.240  0.00  0.00    -0.398 OA
HETATM   10  H   UNK N   1      34.180  14.505  11.497  0.00  0.00     0.209 HD
ENDBRANCH   8   9
ENDBRANCH   4   8
BRANCH   5  11
HETATM   11  O   UNK N   1      35.417  14.202   8.249  0.00  0.00    -0.390 OA
HETATM   12  H   UNK N   1      35.254  13.427   8.810  0.00  0.00     0.210 HD
ENDBRANCH   5  11
BRANCH   6  13
HETATM   13  O   UNK N   1      35.383  15.377   5.713  0.00  0.00    -0.390 OA
HETATM   14  H   UNK N   1      35.033  15.085   4.856  0.00  0.00     0.210 HD
ENDBRANCH   6  13
BRANCH   7  15
HETATM   15  O   UNK N   1      34.073  18.042   5.785  0.00  0.00    -0.388 OA
HETATM   16  H   UNK N   1      34.785  18.667   6.000  0.00  0.00     0.210 HD
ENDBRANCH   7  15
ENDBRANCH   1   2
BRANCH   1  17
HETATM   17  C   UNK N   1      30.478  17.255   7.330  0.00  0.00     0.294 C 
HETATM   18  O   UNK N   1      29.722  16.891   6.203  0.00  0.00    -0.348 OA
HETATM   19  C   UNK N   1      28.937  18.011   5.892  0.00  0.00     0.179 C 
HETATM   20  C   UNK N   1      27.813  18.124   6.935  0.00  0.00     0.180 C 
HETATM   21  C   UNK N   1      28.467  18.325   8.308  0.00  0.00     0.183 C 
HETATM   22  C   UNK N   1      29.565  17.285   8.559  0.00  0.00     0.204 C 
BRANCH  19  23
HETATM   23  C   UNK N   1      28.411  17.872   4.472  0.00  0.00     0.198 C 
BRANCH  23  24
HETATM   24  O   UNK N   1      28.165  19.131   3.931  0.00  0.00    -0.398 OA
HETATM   25  H   UNK N   1      28.685  19.780   3.432  0.00  0.00     0.209 HD
ENDBRANCH  23  24
ENDBRANCH  19  23
BRANCH  20  26
HETATM   26  O   UNK N   1      26.981  19.210   6.657  0.00  0.00    -0.390 OA
HETATM   27  H   UNK N   1      27.261  20.139   6.637  0.00  0.00     0.210 HD
ENDBRANCH  20  26
BRANCH  21  28
HETATM   28  O   UNK N   1      27.507  18.272   9.319  0.00  0.00    -0.390 OA
HETATM   29  H   UNK N   1      27.652  18.582  10.227  0.00  0.00     0.210 HD
ENDBRANCH  21  28
BRANCH  22  30
HETATM   30  O   UNK N   1      30.297  17.644   9.694  0.00  0.00    -0.388 OA
HETATM   31  H   UNK N   1      31.077  17.205  10.069  0.00  0.00     0.210 HD
ENDBRANCH  22  30
ENDBRANCH   1  17
TORSDOF 12
ENDMDL
MODEL 3
REMARK VINA RESULT:      -6.1      6.544     11.468
REMARK  12 active torsions:
REMARK  status: ('A' for Active; 'I' for Inactive)
REMARK    1  A    between atoms: C_1  and  O_2 
REMARK    2  A    between atoms: C_5  and  O_2 
REMARK    3  A    between atoms: C_4  and  O_8 
REMARK    4  A    between atoms: C_6  and  C_12 
REMARK    5  A    between atoms: C_7  and  O_13 
REMARK    6  A    between atoms: C_10  and  O_16 
REMARK    7  A    between atoms: C_11  and  O_17 
REMARK    8  A    between atoms: C_12  and  O_18 
REMARK    9  A    between atoms: C_14  and  C_20 
REMARK   10  A    between atoms: C_15  and  O_21 
REMARK   11  A    between atoms: C_19  and  O_22 
REMARK   12  A    between atoms: C_20  and  O_23 
ROOT
HETATM    1  O   UNK N   1      22.817  18.633   3.444  0.00  0.00    -0.326 OA
ENDROOT
BRANCH   1   2
HETATM    2  C   UNK N   1      21.872  18.605   4.477  0.00  0.00     0.294 C 
HETATM    3  O   UNK N   1      21.035  19.747   4.449  0.00  0.00    -0.348 OA
HETATM    4  C   UNK N   1      20.219  19.787   3.279  0.00  0.00     0.179 C 
HETATM    5  C   UNK N   1      19.760  18.415   2.745  0.00  0.00     0.180 C 
HETATM    6  C   UNK N   1      19.688  17.446   3.908  0.00  0.00     0.183 C 
HETATM    7  C   UNK N   1      21.089  17.282   4.495  0.00  0.00     0.204 C 
BRANCH   4   8
HETATM    8  C   UNK N   1      20.850  20.654   2.197  0.00  0.00     0.198 C 
BRANCH   8   9
HETATM    9  O   UNK N   1      21.770  21.540   2.756  0.00  0.00    -0.398 OA
HETATM   10  H   UNK N   1      22.272  21.373   3.569  0.00  0.00     0.209 HD
ENDBRANCH   8   9
ENDBRANCH   4   8
BRANCH   5  11
HETATM   11  O   UNK N   1      18.510  18.542   2.135  0.00  0.00    -0.390 OA
HETATM   12  H   UNK N   1      17.705  18.249   2.593  0.00  0.00     0.210 HD
ENDBRANCH   5  11
BRANCH   6  13
HETATM   13  O   UNK N   1      19.201  16.204   3.501  0.00  0.00    -0.390 OA
HETATM   14  H   UNK N   1      19.549  15.299   3.544  0.00  0.00     0.210 HD
ENDBRANCH   6  13
BRANCH   7  15
HETATM   15  O   UNK N   1      20.991  16.795   5.798  0.00  0.00    -0.388 OA
HETATM   16  H   UNK N   1      20.286  16.804   6.465  0.00  0.00     0.210 HD
ENDBRANCH   7  15
ENDBRANCH   1   2
BRANCH   1  17
HETATM   17  C   UNK N   1      24.048  18.655   4.106  0.00  0.00     0.294 C 
HETATM   18  O   UNK N   1      24.532  17.343   4.252  0.00  0.00    -0.348 OA
HETATM   19  C   UNK N   1      25.548  17.416   5.215  0.00  0.00     0.179 C 
HETATM   20  C   UNK N   1      26.779  18.079   4.577  0.00  0.00     0.180 C 
HETATM   21  C   UNK N   1      26.380  19.497   4.150  0.00  0.00     0.183 C 
HETATM   22  C   UNK N   1      25.079  19.487   3.338  0.00  0.00     0.204 C 
BRANCH  19  23
HETATM   23  C   UNK N   1      25.836  16.018   5.741  0.00  0.00     0.198 C 
BRANCH  23  24
HETATM   24  O   UNK N   1      26.268  16.087   7.063  0.00  0.00    -0.398 OA
HETATM   25  H   UNK N   1      26.496  15.439   7.747  0.00  0.00     0.209 HD
ENDBRANCH  23  24
ENDBRANCH  19  23
BRANCH  20  26
HETATM   26  O   UNK N   1      27.836  18.151   5.487  0.00  0.00    -0.390 OA
HETATM   27  H   UNK N   1      28.507  17.464   5.621  0.00  0.00     0.210 HD
ENDBRANCH  20  26
BRANCH  21  28
HETATM   28  O   UNK N   1      27.406  20.093   3.417  0.00  0.00    -0.390 OA
HETATM   29  H   UNK N   1      27.815  19.699   2.630  0.00  0.00     0.210 HD
ENDBRANCH  21  28
BRANCH  22  30
HETATM   30  O   UNK N   1      24.619  20.797   3.180  0.00  0.00    -0.388 OA
HETATM   31  H   UNK N   1      24.816  21.573   3.728  0.00  0.00     0.210 HD
ENDBRANCH  22  30
ENDBRANCH   1  17
TORSDOF 12
ENDMDL
MODEL 4
REMARK VINA RESULT:      -6.0      2.463      4.045
REMARK  12 active torsions:
REMARK  status: ('A' for Active; 'I' for Inactive)
REMARK    1  A    between atoms: C_1  and  O_2 
REMARK    2  A    between atoms: C_5  and  O_2 
REMARK    3  A    between atoms: C_4  and  O_8 
REMARK    4  A    between atoms: C_6  and  C_12 
REMARK    5  A    between atoms: C_7  and  O_13 
REMARK    6  A    between atoms: C_10  and  O_16 
REMARK    7  A    between atoms: C_11  and  O_17 
REMARK    8  A    between atoms: C_12  and  O_18 
REMARK    9  A    between atoms: C_14  and  C_20 
REMARK   10  A    between atoms: C_15  and  O_21 
REMARK   11  A    between atoms: C_19  and  O_22 
REMARK   12  A    between atoms: C_20  and  O_23 
ROOT
HETATM    1  O   UNK N   1      31.800  16.412   6.578  0.00  0.00    -0.326 OA
ENDROOT
BRANCH   1   2
HETATM    2  C   UNK N   1      32.425  17.180   5.588  0.00  0.00     0.294 C 
HETATM    3  O   UNK N   1      33.810  17.334   5.845  0.00  0.00    -0.348 OA
HETATM    4  C   UNK N   1      34.512  16.095   5.769  0.00  0.00     0.179 C 
HETATM    5  C   UNK N   1      33.973  15.091   4.729  0.00  0.00     0.180 C 
HETATM    6  C   UNK N   1      33.315  15.868   3.608  0.00  0.00     0.183 C 
HETATM    7  C   UNK N   1      32.128  16.642   4.179  0.00  0.00     0.204 C 
BRANCH   4   8
HETATM    8  C   UNK N   1      34.681  15.473   7.149  0.00  0.00     0.198 C 
BRANCH   8   9
HETATM    9  O   UNK N   1      34.511  16.436   8.143  0.00  0.00    -0.398 OA
HETATM   10  H   UNK N   1      33.894  17.182   8.087  0.00  0.00     0.209 HD
ENDBRANCH   8   9
ENDBRANCH   4   8
BRANCH   5  11
HETATM   11  O   UNK N   1      35.024  14.313   4.237  0.00  0.00    -0.390 OA
HETATM   12  H   UNK N   1      35.923  14.423   4.585  0.00  0.00     0.210 HD
ENDBRANCH   5  11
BRANCH   6  13
HETATM   13  O   UNK N   1      32.875  15.016   2.594  0.00  0.00    -0.390 OA
HETATM   14  H   UNK N   1      32.259  15.117   1.851  0.00  0.00     0.210 HD
ENDBRANCH   6  13
BRANCH   7  15
HETATM   15  O   UNK N   1      31.801  17.690   3.319  0.00  0.00    -0.388 OA
HETATM   16  H   UNK N   1      32.296  18.447   2.968  0.00  0.00     0.210 HD
ENDBRANCH   7  15
ENDBRANCH   1   2
BRANCH   1  17
HETATM   17  C   UNK N   1      30.790  17.244   7.071  0.00  0.00     0.294 C 
HETATM   18  O   UNK N   1      29.532  16.701   6.756  0.00  0.00    -0.348 OA
HETATM   19  C   UNK N   1      28.610  17.739   6.949  0.00  0.00     0.179 C 
HETATM   20  C   UNK N   1      28.429  17.956   8.461  0.00  0.00     0.180 C 
HETATM   21  C   UNK N   1      29.789  18.368   9.040  0.00  0.00     0.183 C 
HETATM   22  C   UNK N   1      30.898  17.411   8.589  0.00  0.00     0.204 C 
BRANCH  19  23
HETATM   23  C   UNK N   1      27.309  17.386   6.245  0.00  0.00     0.198 C 
BRANCH  23  24
HETATM   24  O   UNK N   1      26.540  16.554   7.055  0.00  0.00    -0.398 OA
HETATM   25  H   UNK N   1      26.325  16.521   8.001  0.00  0.00     0.209 HD
ENDBRANCH  23  24
ENDBRANCH  19  23
BRANCH  20  26
HETATM   26  O   UNK N   1      27.496  18.963   8.712  0.00  0.00    -0.390 OA
HETATM   27  H   UNK N   1      26.827  19.276   8.083  0.00  0.00     0.210 HD
ENDBRANCH  20  26
BRANCH  21  28
HETATM   28  O   UNK N   1      29.730  18.421  10.433  0.00  0.00    -0.390 OA
HETATM   29  H   UNK N   1      30.456  18.727  10.999  0.00  0.00     0.210 HD
ENDBRANCH  21  28
BRANCH  22  30
HETATM   30  O   UNK N   1      32.143  17.949   8.927  0.00  0.00    -0.388 OA
HETATM   31  H   UNK N   1      32.470  18.849   8.770  0.00  0.00     0.210 HD
ENDBRANCH  22  30
ENDBRANCH   1  17
TORSDOF 12
ENDMDL
MODEL 5
REMARK VINA RESULT:      -5.9      1.542      2.278
REMARK  12 active torsions:
REMARK  status: ('A' for Active; 'I' for Inactive)
REMARK    1  A    between atoms: C_1  and  O_2 
REMARK    2  A    between atoms: C_5  and  O_2 
REMARK    3  A    between atoms: C_4  and  O_8 
REMARK    4  A    between atoms: C_6  and  C_12 
REMARK    5  A    between atoms: C_7  and  O_13 
REMARK    6  A    between atoms: C_10  and  O_16 
REMARK    7  A    between atoms: C_11  and  O_17 
REMARK    8  A    between atoms: C_12  and  O_18 
REMARK    9  A    between atoms: C_14  and  C_20 
REMARK   10  A    between atoms: C_15  and  O_21 
REMARK   11  A    between atoms: C_19  and  O_22 
REMARK   12  A    between atoms: C_20  and  O_23 
ROOT
HETATM    1  O   UNK N   1      31.664  17.128   8.058  0.00  0.00    -0.326 OA
ENDROOT
BRANCH   1   2
HETATM    2  C   UNK N   1      32.429  15.965   7.902  0.00  0.00     0.294 C 
HETATM    3  O   UNK N   1      33.711  16.251   7.372  0.00  0.00    -0.348 OA
HETATM    4  C   UNK N   1      34.502  17.028   8.269  0.00  0.00     0.179 C 
HETATM    5  C   UNK N   1      34.274  16.746   9.768  0.00  0.00     0.180 C 
HETATM    6  C   UNK N   1      33.816  15.310   9.922  0.00  0.00     0.183 C 
HETATM    7  C   UNK N   1      32.481  15.141   9.199  0.00  0.00     0.204 C 
BRANCH   4   8
HETATM    8  C   UNK N   1      34.417  18.512   7.935  0.00  0.00     0.198 C 
BRANCH   8   9
HETATM    9  O   UNK N   1      35.396  19.225   8.626  0.00  0.00    -0.398 OA
HETATM   10  H   UNK N   1      35.280  19.602   9.513  0.00  0.00     0.209 HD
ENDBRANCH   8   9
ENDBRANCH   4   8
BRANCH   5  11
HETATM   11  O   UNK N   1      35.460  16.961  10.473  0.00  0.00    -0.390 OA
HETATM   12  H   UNK N   1      36.276  16.500  10.219  0.00  0.00     0.210 HD
ENDBRANCH   5  11
BRANCH   6  13
HETATM   13  O   UNK N   1      33.668  14.969  11.267  0.00  0.00    -0.390 OA
HETATM   14  H   UNK N   1      34.004  14.243  11.817  0.00  0.00     0.210 HD
ENDBRANCH   6  13
BRANCH   7  15
HETATM   15  O   UNK N   1      32.270  13.791   8.925  0.00  0.00    -0.388 OA
HETATM   16  H   UNK N   1      31.474  13.250   8.796  0.00  0.00     0.210 HD
ENDBRANCH   7  15
ENDBRANCH   1   2
BRANCH   1  17
HETATM   17  C   UNK N   1      31.031  17.290   6.822  0.00  0.00     0.294 C 
HETATM   18  O   UNK N   1      31.697  16.531   5.845  0.00  0.00    -0.348 OA
HETATM   19  C   UNK N   1      31.246  17.019   4.610  0.00  0.00     0.179 C 
HETATM   20  C   UNK N   1      29.807  16.528   4.386  0.00  0.00     0.180 C 
HETATM   21  C   UNK N   1      28.936  17.103   5.510  0.00  0.00     0.183 C 
HETATM   22  C   UNK N   1      29.565  16.852   6.885  0.00  0.00     0.204 C 
BRANCH  19  23
HETATM   23  C   UNK N   1      32.201  16.564   3.517  0.00  0.00     0.198 C 
BRANCH  23  24
HETATM   24  O   UNK N   1      31.929  17.247   2.334  0.00  0.00    -0.398 OA
HETATM   25  H   UNK N   1      31.528  18.100   2.109  0.00  0.00     0.209 HD
ENDBRANCH  23  24
ENDBRANCH  19  23
BRANCH  20  26
HETATM   26  O   UNK N   1      29.317  16.963   3.153  0.00  0.00    -0.390 OA
HETATM   27  H   UNK N   1      29.862  17.267   2.411  0.00  0.00     0.210 HD
ENDBRANCH  20  26
BRANCH  21  28
HETATM   28  O   UNK N   1      27.651  16.562   5.457  0.00  0.00    -0.390 OA
HETATM   29  H   UNK N   1      27.403  15.794   4.919  0.00  0.00     0.210 HD
ENDBRANCH  21  28
BRANCH  22  30
HETATM   30  O   UNK N   1      28.882  17.594   7.853  0.00  0.00    -0.388 OA
HETATM   31  H   UNK N   1      28.711  17.360   8.779  0.00  0.00     0.210 HD
ENDBRANCH  22  30
ENDBRANCH   1  17
TORSDOF 12
ENDMDL
MODEL 6
REMARK VINA RESULT:      -5.9      0.709      6.350
REMARK  12 active torsions:
REMARK  status: ('A' for Active; 'I' for Inactive)
REMARK    1  A    between atoms: C_1  and  O_2 
REMARK    2  A    between atoms: C_5  and  O_2 
REMARK    3  A    between atoms: C_4  and  O_8 
REMARK    4  A    between atoms: C_6  and  C_12 
REMARK    5  A    between atoms: C_7  and  O_13 
REMARK    6  A    between atoms: C_10  and  O_16 
REMARK    7  A    between atoms: C_11  and  O_17 
REMARK    8  A    between atoms: C_12  and  O_18 
REMARK    9  A    between atoms: C_14  and  C_20 
REMARK   10  A    between atoms: C_15  and  O_21 
REMARK   11  A    between atoms: C_19  and  O_22 
REMARK   12  A    between atoms: C_20  and  O_23 
ROOT
HETATM    1  O   UNK N   1      31.019  16.003   7.801  0.00  0.00    -0.326 OA
ENDROOT
BRANCH   1   2
HETATM    2  C   UNK N   1      30.712  17.366   7.889  0.00  0.00     0.294 C 
HETATM    3  O   UNK N   1      30.315  17.893   6.636  0.00  0.00    -0.348 OA
HETATM    4  C   UNK N   1      29.090  17.326   6.177  0.00  0.00     0.179 C 
HETATM    5  C   UNK N   1      28.072  16.968   7.280  0.00  0.00     0.180 C 
HETATM    6  C   UNK N   1      28.297  17.893   8.459  0.00  0.00     0.183 C 
HETATM    7  C   UNK N   1      29.701  17.650   9.012  0.00  0.00     0.204 C 
BRANCH   4   8
HETATM    8  C   UNK N   1      29.342  16.170   5.218  0.00  0.00     0.198 C 
BRANCH   8   9
HETATM    9  O   UNK N   1      28.841  14.980   5.745  0.00  0.00    -0.398 OA
HETATM   10  H   UNK N   1      28.682  14.819   6.688  0.00  0.00     0.209 HD
ENDBRANCH   8   9
ENDBRANCH   4   8
BRANCH   5  11
HETATM   11  O   UNK N   1      26.773  17.109   6.786  0.00  0.00    -0.390 OA
HETATM   12  H   UNK N   1      26.069  17.471   7.348  0.00  0.00     0.210 HD
ENDBRANCH   5  11
BRANCH   6  13
HETATM   13  O   UNK N   1      27.353  17.670   9.462  0.00  0.00    -0.390 OA
HETATM   14  H   UNK N   1      26.489  17.229   9.485  0.00  0.00     0.210 HD
ENDBRANCH   6  13
BRANCH   7  15
HETATM   15  O   UNK N   1      30.103  18.756   9.758  0.00  0.00    -0.388 OA
HETATM   16  H   UNK N   1      30.675  19.518   9.572  0.00  0.00     0.210 HD
ENDBRANCH   7  15
ENDBRANCH   1   2
BRANCH   1  17
HETATM   17  C   UNK N   1      32.336  15.917   8.262  0.00  0.00     0.294 C 
HETATM   18  O   UNK N   1      32.862  17.208   8.437  0.00  0.00    -0.348 OA
HETATM   19  C   UNK N   1      34.251  17.044   8.540  0.00  0.00     0.179 C 
HETATM   20  C   UNK N   1      34.571  16.443   9.918  0.00  0.00     0.180 C 
HETATM   21  C   UNK N   1      33.888  15.071  10.001  0.00  0.00     0.183 C 
HETATM   22  C   UNK N   1      32.413  15.159   9.591  0.00  0.00     0.204 C 
BRANCH  19  23
HETATM   23  C   UNK N   1      34.929  18.386   8.310  0.00  0.00     0.198 C 
BRANCH  23  24
HETATM   24  O   UNK N   1      35.681  18.736   9.429  0.00  0.00    -0.398 OA
HETATM   25  H   UNK N   1      36.545  19.151   9.575  0.00  0.00     0.209 HD
ENDBRANCH  23  24
ENDBRANCH  19  23
BRANCH  20  26
HETATM   26  O   UNK N   1      35.948  16.284  10.086  0.00  0.00    -0.390 OA
HETATM   27  H   UNK N   1      36.376  15.517  10.498  0.00  0.00     0.210 HD
ENDBRANCH  20  26
BRANCH  21  28
HETATM   28  O   UNK N   1      34.004  14.545  11.287  0.00  0.00    -0.390 OA
HETATM   29  H   UNK N   1      34.091  15.082  12.091  0.00  0.00     0.210 HD
ENDBRANCH  21  28
BRANCH  22  30
HETATM   30  O   UNK N   1      31.894  13.871   9.441  0.00  0.00    -0.388 OA
HETATM   31  H   UNK N   1      31.968  13.119  10.050  0.00  0.00     0.210 HD
ENDBRANCH  22  30
ENDBRANCH   1  17
TORSDOF 12
ENDMDL
MODEL 7
REMARK VINA RESULT:      -5.8      3.401      8.331
REMARK  12 active torsions:
REMARK  status: ('A' for Active; 'I' for Inactive)
REMARK    1  A    between atoms: C_1  and  O_2 
REMARK    2  A    between atoms: C_5  and  O_2 
REMARK    3  A    between atoms: C_4  and  O_8 
REMARK    4  A    between atoms: C_6  and  C_12 
REMARK    5  A    between atoms: C_7  and  O_13 
REMARK    6  A    between atoms: C_10  and  O_16 
REMARK    7  A    between atoms: C_11  and  O_17 
REMARK    8  A    between atoms: C_12  and  O_18 
REMARK    9  A    between atoms: C_14  and  C_20 
REMARK   10  A    between atoms: C_15  and  O_21 
REMARK   11  A    between atoms: C_19  and  O_22 
REMARK   12  A    between atoms: C_20  and  O_23 
ROOT
HETATM    1  O   UNK N   1      34.528  14.154  10.857  0.00  0.00    -0.326 OA
ENDROOT
BRANCH   1   2
HETATM    2  C   UNK N   1      35.127  15.041   9.953  0.00  0.00     0.294 C 
HETATM    3  O   UNK N   1      35.200  14.487   8.651  0.00  0.00    -0.348 OA
HETATM    4  C   UNK N   1      33.910  14.282   8.080  0.00  0.00     0.179 C 
HETATM    5  C   UNK N   1      32.838  15.319   8.475  0.00  0.00     0.180 C 
HETATM    6  C   UNK N   1      33.532  16.630   8.786  0.00  0.00     0.183 C 
HETATM    7  C   UNK N   1      34.456  16.424   9.985  0.00  0.00     0.204 C 
BRANCH   4   8
HETATM    8  C   UNK N   1      33.438  12.848   8.285  0.00  0.00     0.198 C 
BRANCH   8   9
HETATM    9  O   UNK N   1      32.384  12.806   9.197  0.00  0.00    -0.398 OA
HETATM   10  H   UNK N   1      31.447  12.743   8.953  0.00  0.00     0.209 HD
ENDBRANCH   8   9
ENDBRANCH   4   8
BRANCH   5  11
HETATM   11  O   UNK N   1      31.930  15.481   7.427  0.00  0.00    -0.390 OA
HETATM   12  H   UNK N   1      32.178  15.981   6.633  0.00  0.00     0.210 HD
ENDBRANCH   5  11
BRANCH   6  13
HETATM   13  O   UNK N   1      32.606  17.634   9.075  0.00  0.00    -0.390 OA
HETATM   14  H   UNK N   1      31.832  17.989   8.609  0.00  0.00     0.210 HD
ENDBRANCH   6  13
BRANCH   7  15
HETATM   15  O   UNK N   1      35.420  17.430  10.004  0.00  0.00    -0.388 OA
HETATM   16  H   UNK N   1      35.380  18.396  10.092  0.00  0.00     0.210 HD
ENDBRANCH   7  15
ENDBRANCH   1   2
BRANCH   1  17
HETATM   17  C   UNK N   1      35.593  13.678  11.627  0.00  0.00     0.294 C 
HETATM   18  O   UNK N   1      35.304  13.848  12.992  0.00  0.00    -0.348 OA
HETATM   19  C   UNK N   1      36.526  13.695  13.663  0.00  0.00     0.179 C 
HETATM   20  C   UNK N   1      36.903  12.205  13.659  0.00  0.00     0.180 C 
HETATM   21  C   UNK N   1      37.066  11.767  12.197  0.00  0.00     0.183 C 
HETATM   22  C   UNK N   1      35.861  12.196  11.351  0.00  0.00     0.204 C 
BRANCH  19  23
HETATM   23  C   UNK N   1      36.398  14.267  15.066  0.00  0.00     0.198 C 
BRANCH  23  24
HETATM   24  O   UNK N   1      37.654  14.628  15.549  0.00  0.00    -0.398 OA
HETATM   25  H   UNK N   1      38.568  14.502  15.251  0.00  0.00     0.209 HD
ENDBRANCH  23  24
ENDBRANCH  19  23
BRANCH  20  26
HETATM   26  O   UNK N   1      38.102  11.992  14.341  0.00  0.00    -0.390 OA
HETATM   27  H   UNK N   1      38.474  12.580  15.017  0.00  0.00     0.210 HD
ENDBRANCH  20  26
BRANCH  21  28
HETATM   28  O   UNK N   1      37.248  10.386  12.119  0.00  0.00    -0.390 OA
HETATM   29  H   UNK N   1      36.894   9.751  12.762  0.00  0.00     0.210 HD
ENDBRANCH  21  28
BRANCH  22  30
HETATM   30  O   UNK N   1      36.150  12.003   9.998  0.00  0.00    -0.388 OA
HETATM   31  H   UNK N   1      36.869  12.394   9.476  0.00  0.00     0.210 HD
ENDBRANCH  22  30
ENDBRANCH   1  17
TORSDOF 12
ENDMDL
MODEL 8
REMARK VINA RESULT:      -5.8      6.076      9.219
REMARK  12 active torsions:
REMARK  status: ('A' for Active; 'I' for Inactive)
REMARK    1  A    between atoms: C_1  and  O_2 
REMARK    2  A    between atoms: C_5  and  O_2 
REMARK    3  A    between atoms: C_4  and  O_8 
REMARK    4  A    between atoms: C_6  and  C_12 
REMARK    5  A    between atoms: C_7  and  O_13 
REMARK    6  A    between atoms: C_10  and  O_16 
REMARK    7  A    between atoms: C_11  and  O_17 
REMARK    8  A    between atoms: C_12  and  O_18 
REMARK    9  A    between atoms: C_14  and  C_20 
REMARK   10  A    between atoms: C_15  and  O_21 
REMARK   11  A    between atoms: C_19  and  O_22 
REMARK   12  A    between atoms: C_20  and  O_23 
ROOT
HETATM    1  O   UNK N   1      24.462  19.152   4.360  0.00  0.00    -0.326 OA
ENDROOT
BRANCH   1   2
HETATM    2  C   UNK N   1      25.457  18.695   3.487  0.00  0.00     0.294 C 
HETATM    3  O   UNK N   1      26.543  19.601   3.414  0.00  0.00    -0.348 OA
HETATM    4  C   UNK N   1      27.240  19.706   4.654  0.00  0.00     0.179 C 
HETATM    5  C   UNK N   1      27.301  18.412   5.491  0.00  0.00     0.180 C 
HETATM    6  C   UNK N   1      27.232  17.227   4.549  0.00  0.00     0.183 C 
HETATM    7  C   UNK N   1      25.889  17.258   3.820  0.00  0.00     0.204 C 
BRANCH   4   8
HETATM    8  C   UNK N   1      26.751  20.902   5.461  0.00  0.00     0.198 C 
BRANCH   8   9
HETATM    9  O   UNK N   1      26.121  20.476   6.630  0.00  0.00    -0.398 OA
HETATM   10  H   UNK N   1      25.488  21.007   7.140  0.00  0.00     0.209 HD
ENDBRANCH   8   9
ENDBRANCH   4   8
BRANCH   5  11
HETATM   11  O   UNK N   1      28.487  18.384   6.229  0.00  0.00    -0.390 OA
HETATM   12  H   UNK N   1      29.052  19.171   6.284  0.00  0.00     0.210 HD
ENDBRANCH   5  11
BRANCH   6  13
HETATM   13  O   UNK N   1      27.362  16.023   5.242  0.00  0.00    -0.390 OA
HETATM   14  H   UNK N   1      26.760  15.495   5.790  0.00  0.00     0.210 HD
ENDBRANCH   6  13
BRANCH   7  15
HETATM   15  O   UNK N   1      25.976  16.496   2.657  0.00  0.00    -0.388 OA
HETATM   16  H   UNK N   1      26.377  16.646   1.785  0.00  0.00     0.210 HD
ENDBRANCH   7  15
ENDBRANCH   1   2
BRANCH   1  17
HETATM   17  C   UNK N   1      23.292  19.114   3.598  0.00  0.00     0.294 C 
HETATM   18  O   UNK N   1      22.237  18.602   4.373  0.00  0.00    -0.348 OA
HETATM   19  C   UNK N   1      21.226  18.259   3.464  0.00  0.00     0.179 C 
HETATM   20  C   UNK N   1      20.570  19.552   2.953  0.00  0.00     0.180 C 
HETATM   21  C   UNK N   1      21.649  20.370   2.231  0.00  0.00     0.183 C 
HETATM   22  C   UNK N   1      22.910  20.507   3.090  0.00  0.00     0.204 C 
BRANCH  19  23
HETATM   23  C   UNK N   1      20.238  17.327   4.148  0.00  0.00     0.198 C 
BRANCH  23  24
HETATM   24  O   UNK N   1      19.455  16.682   3.194  0.00  0.00    -0.398 OA
HETATM   25  H   UNK N   1      19.557  15.893   2.638  0.00  0.00     0.209 HD
ENDBRANCH  23  24
ENDBRANCH  19  23
BRANCH  20  26
HETATM   26  O   UNK N   1      19.533  19.267   2.062  0.00  0.00    -0.390 OA
HETATM   27  H   UNK N   1      19.622  18.745   1.250  0.00  0.00     0.210 HD
ENDBRANCH  20  26
BRANCH  21  28
HETATM   28  O   UNK N   1      21.157  21.629   1.885  0.00  0.00    -0.390 OA
HETATM   29  H   UNK N   1      20.762  21.844   1.025  0.00  0.00     0.210 HD
ENDBRANCH  21  28
BRANCH  22  30
HETATM   30  O   UNK N   1      23.946  21.037   2.316  0.00  0.00    -0.388 OA
HETATM   31  H   UNK N   1      24.433  21.866   2.451  0.00  0.00     0.210 HD
ENDBRANCH  22  30
ENDBRANCH   1  17
TORSDOF 12
ENDMDL
MODEL 9
REMARK VINA RESULT:      -5.8      2.208      4.152
REMARK  12 active torsions:
REMARK  status: ('A' for Active; 'I' for Inactive)
REMARK    1  A    between atoms: C_1  and  O_2 
REMARK    2  A    between atoms: C_5  and  O_2 
REMARK    3  A    between atoms: C_4  and  O_8 
REMARK    4  A    between atoms: C_6  and  C_12 
REMARK    5  A    between atoms: C_7  and  O_13 
REMARK    6  A    between atoms: C_10  and  O_16 
REMARK    7  A    between atoms: C_11  and  O_17 
REMARK    8  A    between atoms: C_12  and  O_18 
REMARK    9  A    between atoms: C_14  and  C_20 
REMARK   10  A    between atoms: C_15  and  O_21 
REMARK   11  A    between atoms: C_19  and  O_22 
REMARK   12  A    between atoms: C_20  and  O_23 
ROOT
HETATM    1  O   UNK N   1      31.007  16.409   5.771  0.00  0.00    -0.326 OA
ENDROOT
BRANCH   1   2
HETATM    2  C   UNK N   1      31.487  16.309   7.082  0.00  0.00     0.294 C 
HETATM    3  O   UNK N   1      32.068  15.041   7.330  0.00  0.00    -0.348 OA
HETATM    4  C   UNK N   1      33.242  14.825   6.550  0.00  0.00     0.179 C 
HETATM    5  C   UNK N   1      34.093  16.082   6.274  0.00  0.00     0.180 C 
HETATM    6  C   UNK N   1      33.887  17.061   7.413  0.00  0.00     0.183 C 
HETATM    7  C   UNK N   1      32.418  17.480   7.438  0.00  0.00     0.204 C 
BRANCH   4   8
HETATM    8  C   UNK N   1      32.926  14.045   5.280  0.00  0.00     0.198 C 
BRANCH   8   9
HETATM    9  O   UNK N   1      33.123  14.843   4.154  0.00  0.00    -0.398 OA
HETATM   10  H   UNK N   1      33.751  15.581   4.105  0.00  0.00     0.209 HD
ENDBRANCH   8   9
ENDBRANCH   4   8
BRANCH   5  11
HETATM   11  O   UNK N   1      35.440  15.725   6.172  0.00  0.00    -0.390 OA
HETATM   12  H   UNK N   1      35.833  15.528   5.307  0.00  0.00     0.210 HD
ENDBRANCH   5  11
BRANCH   6  13
HETATM   13  O   UNK N   1      34.694  18.189   7.261  0.00  0.00    -0.390 OA
HETATM   14  H   UNK N   1      35.314  18.655   7.844  0.00  0.00     0.210 HD
ENDBRANCH   6  13
BRANCH   7  15
HETATM   15  O   UNK N   1      32.102  17.984   8.699  0.00  0.00    -0.388 OA
HETATM   16  H   UNK N   1      31.286  18.010   9.225  0.00  0.00     0.210 HD
ENDBRANCH   7  15
ENDBRANCH   1   2
BRANCH   1  17
HETATM   17  C   UNK N   1      29.773  17.053   5.905  0.00  0.00     0.294 C 
HETATM   18  O   UNK N   1      29.770  17.833   7.073  0.00  0.00    -0.348 OA
HETATM   19  C   UNK N   1      28.425  18.140   7.324  0.00  0.00     0.179 C 
HETATM   20  C   UNK N   1      27.966  19.194   6.304  0.00  0.00     0.180 C 
HETATM   21  C   UNK N   1      28.097  18.580   4.905  0.00  0.00     0.183 C 
HETATM   22  C   UNK N   1      29.480  17.951   4.700  0.00  0.00     0.204 C 
BRANCH  19  23
HETATM   23  C   UNK N   1      28.282  18.610   8.763  0.00  0.00     0.198 C 
BRANCH  23  24
HETATM   24  O   UNK N   1      27.404  17.775   9.451  0.00  0.00    -0.398 OA
HETATM   25  H   UNK N   1      26.666  17.197   9.201  0.00  0.00     0.209 HD
ENDBRANCH  23  24
ENDBRANCH  19  23
BRANCH  20  26
HETATM   26  O   UNK N   1      26.637  19.558   6.527  0.00  0.00    -0.390 OA
HETATM   27  H   UNK N   1      26.002  19.805   5.837  0.00  0.00     0.210 HD
ENDBRANCH  20  26
BRANCH  21  28
HETATM   28  O   UNK N   1      27.850  19.542   3.924  0.00  0.00    -0.390 OA
HETATM   29  H   UNK N   1      27.650  19.338   2.997  0.00  0.00     0.210 HD
ENDBRANCH  21  28
BRANCH  22  30
HETATM   30  O   UNK N   1      29.479  17.196   3.525  0.00  0.00    -0.388 OA
HETATM   31  H   UNK N   1      30.215  17.036   2.913  0.00  0.00     0.210 HD
ENDBRANCH  22  30
ENDBRANCH   1  17
TORSDOF 12
ENDMDL
