MODEL 1
REMARK VINA RESULT:      -5.2      0.000      0.000
REMARK  6 active torsions:
REMARK  status: ('A' for Active; 'I' for Inactive)
REMARK    1  A    between atoms: C_6  and  C_7 
REMARK    2  A    between atoms: C_7  and  C_8 
REMARK    3  A    between atoms: C_7  and  C_12 
REMARK    4  A    between atoms: C_8  and  C_9 
REMARK    5  A    between atoms: C_9  and  O_11 
REMARK    6  A    between atoms: C_12  and  N_13 
ROOT
HETATM    1  C   UNK N   1      32.388  16.987   8.698  0.00  0.00     0.045 C 
ENDROOT
BRANCH   1   2
HETATM    2  C   UNK N   1      31.087  17.388   8.034  0.00  0.00    -0.052 A 
HETATM    3  C   UNK N   1      30.850  17.025   6.699  0.00  0.00     0.009 A 
HETATM    4  C   UNK N   1      29.663  17.405   6.061  0.00  0.00     0.024 A 
HETATM    5  C   UNK N   1      28.711  18.164   6.748  0.00  0.00     0.034 A 
HETATM    6  C   UNK N   1      28.941  18.538   8.074  0.00  0.00     0.024 A 
HETATM    7 Cl   UNK N   1      27.232  18.650   5.948  0.00  0.00    -0.084 Cl
HETATM    8  C   UNK N   1      30.120  18.151   8.714  0.00  0.00     0.009 A 
ENDBRANCH   1   2
BRANCH   1   9
HETATM    9  C   UNK N   1      33.582  17.418   7.843  0.00  0.00     0.120 C 
BRANCH   9  10
HETATM   10  C   UNK N   1      34.657  18.076   8.656  0.00  0.00     0.140 C 
HETATM   11  O   UNK N   1      35.073  19.175   8.331  0.00  0.00    -0.650 OA
BRANCH  10  12
HETATM   12  O   UNK N   1      35.193  17.449   9.719  0.00  0.00    -0.776 OA
HETATM   13  H   UNK N   1      36.027  17.030   9.648  0.00  0.00     0.167 HD
ENDBRANCH  10  12
ENDBRANCH   9  10
ENDBRANCH   1   9
BRANCH   1  14
HETATM   14  C   UNK N   1      32.441  15.482   8.989  0.00  0.00     0.120 C 
BRANCH  14  15
HETATM   15  N   UNK N   1      32.940  15.218  10.324  0.00  0.00    -0.429 N 
HETATM   16  H   UNK N   1      32.958  15.896  11.086  0.00  0.00     0.149 HD
HETATM   17  H   UNK N   1      33.301  14.283  10.517  0.00  0.00     0.149 HD
ENDBRANCH  14  15
ENDBRANCH   1  14
TORSDOF 6
ENDMDL
MODEL 2
REMARK VINA RESULT:      -5.2     11.467     12.661
REMARK  6 active torsions:
REMARK  status: ('A' for Active; 'I' for Inactive)
REMARK    1  A    between atoms: C_6  and  C_7 
REMARK    2  A    between atoms: C_7  and  C_8 
REMARK    3  A    between atoms: C_7  and  C_12 
REMARK    4  A    between atoms: C_8  and  C_9 
REMARK    5  A    between atoms: C_9  and  O_11 
REMARK    6  A    between atoms: C_12  and  N_13 
ROOT
HETATM    1  C   UNK N   1      20.667  18.290   2.559  0.00  0.00     0.045 C 
ENDROOT
BRANCH   1   2
HETATM    2  C   UNK N   1      20.647  17.821   4.000  0.00  0.00    -0.052 A 
HETATM    3  C   UNK N   1      21.406  18.505   4.962  0.00  0.00     0.009 A 
HETATM    4  C   UNK N   1      21.418  18.073   6.294  0.00  0.00     0.024 A 
HETATM    5  C   UNK N   1      20.683  16.945   6.670  0.00  0.00     0.034 A 
HETATM    6  C   UNK N   1      19.932  16.251   5.719  0.00  0.00     0.024 A 
HETATM    7 Cl   UNK N   1      20.706  16.397   8.333  0.00  0.00    -0.084 Cl
HETATM    8  C   UNK N   1      19.912  16.687   4.393  0.00  0.00     0.009 A 
ENDBRANCH   1   2
BRANCH   1   9
HETATM    9  C   UNK N   1      20.075  19.697   2.446  0.00  0.00     0.120 C 
BRANCH   9  10
HETATM   10  C   UNK N   1      21.045  20.676   1.857  0.00  0.00     0.140 C 
HETATM   11  O   UNK N   1      21.315  20.620   0.669  0.00  0.00    -0.650 OA
BRANCH  10  12
HETATM   12  O   UNK N   1      21.650  21.595   2.633  0.00  0.00    -0.776 OA
HETATM   13  H   UNK N   1      21.692  21.473   3.561  0.00  0.00     0.167 HD
ENDBRANCH  10  12
ENDBRANCH   9  10
ENDBRANCH   1   9
BRANCH   1  14
HETATM   14  C   UNK N   1      19.935  17.313   1.631  0.00  0.00     0.120 C 
BRANCH  14  15
HETATM   15  N   UNK N   1      20.084  17.694   0.239  0.00  0.00    -0.429 N 
HETATM   16  H   UNK N   1      20.669  17.207  -0.440  0.00  0.00     0.149 HD
HETATM   17  H   UNK N   1      19.563  18.509  -0.085  0.00  0.00     0.149 HD
ENDBRANCH  14  15
ENDBRANCH   1  14
TORSDOF 6
ENDMDL
MODEL 3
REMARK VINA RESULT:      -5.0      9.409     11.251
REMARK  6 active torsions:
REMARK  status: ('A' for Active; 'I' for Inactive)
REMARK    1  A    between atoms: C_6  and  C_7 
REMARK    2  A    between atoms: C_7  and  C_8 
REMARK    3  A    between atoms: C_7  and  C_12 
REMARK    4  A    between atoms: C_8  and  C_9 
REMARK    5  A    between atoms: C_9  and  O_11 
REMARK    6  A    between atoms: C_12  and  N_13 
ROOT
HETATM    1  C   UNK N   1      22.251  19.339   3.148  0.00  0.00     0.045 C 
ENDROOT
BRANCH   1   2
HETATM    2  C   UNK N   1      23.715  19.521   3.493  0.00  0.00    -0.052 A 
HETATM    3  C   UNK N   1      24.275  18.788   4.551  0.00  0.00     0.009 A 
HETATM    4  C   UNK N   1      25.620  18.959   4.898  0.00  0.00     0.024 A 
HETATM    5  C   UNK N   1      26.412  19.875   4.201  0.00  0.00     0.034 A 
HETATM    6  C   UNK N   1      25.864  20.617   3.153  0.00  0.00     0.024 A 
HETATM    7 Cl   UNK N   1      28.091  20.098   4.642  0.00  0.00    -0.084 Cl
HETATM    8  C   UNK N   1      24.524  20.440   2.799  0.00  0.00     0.009 A 
ENDBRANCH   1   2
BRANCH   1   9
HETATM    9  C   UNK N   1      21.717  20.570   2.410  0.00  0.00     0.120 C 
BRANCH   9  10
HETATM   10  C   UNK N   1      20.972  20.206   1.162  0.00  0.00     0.140 C 
HETATM   11  O   UNK N   1      21.132  20.866   0.149  0.00  0.00    -0.650 OA
BRANCH  10  12
HETATM   12  O   UNK N   1      20.101  19.180   1.156  0.00  0.00    -0.776 OA
HETATM   13  H   UNK N   1      19.728  18.875   1.960  0.00  0.00     0.167 HD
ENDBRANCH  10  12
ENDBRANCH   9  10
ENDBRANCH   1   9
BRANCH   1  14
HETATM   14  C   UNK N   1      21.405  19.039   4.392  0.00  0.00     0.120 C 
BRANCH  14  15
HETATM   15  N   UNK N   1      20.457  17.971   4.141  0.00  0.00    -0.429 N 
HETATM   16  H   UNK N   1      20.568  17.245   3.433  0.00  0.00     0.149 HD
HETATM   17  H   UNK N   1      19.615  17.943   4.717  0.00  0.00     0.149 HD
ENDBRANCH  14  15
ENDBRANCH   1  14
TORSDOF 6
ENDMDL
MODEL 4
REMARK VINA RESULT:      -5.0      6.690      8.499
REMARK  6 active torsions:
REMARK  status: ('A' for Active; 'I' for Inactive)
REMARK    1  A    between atoms: C_6  and  C_7 
REMARK    2  A    between atoms: C_7  and  C_8 
REMARK    3  A    between atoms: C_7  and  C_12 
REMARK    4  A    between atoms: C_8  and  C_9 
REMARK    5  A    between atoms: C_9  and  O_11 
REMARK    6  A    between atoms: C_12  and  N_13 
ROOT
HETATM    1  C   UNK N   1      35.709  13.828  11.794  0.00  0.00     0.045 C 
ENDROOT
BRANCH   1   2
HETATM    2  C   UNK N   1      35.592  13.474  13.263  0.00  0.00    -0.052 A 
HETATM    3  C   UNK N   1      36.426  14.108  14.198  0.00  0.00     0.009 A 
HETATM    4  C   UNK N   1      36.348  13.779  15.556  0.00  0.00     0.024 A 
HETATM    5  C   UNK N   1      35.447  12.801  15.988  0.00  0.00     0.034 A 
HETATM    6  C   UNK N   1      34.620  12.157  15.067  0.00  0.00     0.024 A 
HETATM    7 Cl   UNK N   1      35.357  12.380  17.685  0.00  0.00    -0.084 Cl
HETATM    8  C   UNK N   1      34.690  12.493  13.713  0.00  0.00     0.009 A 
ENDBRANCH   1   2
BRANCH   1   9
HETATM    9  C   UNK N   1      34.993  15.149  11.503  0.00  0.00     0.120 C 
BRANCH   9  10
HETATM   10  C   UNK N   1      35.914  16.178  10.919  0.00  0.00     0.140 C 
HETATM   11  O   UNK N   1      35.467  17.254  10.559  0.00  0.00    -0.650 OA
BRANCH  10  12
HETATM   12  O   UNK N   1      37.223  15.914  10.754  0.00  0.00    -0.776 OA
HETATM   13  H   UNK N   1      37.493  15.173  10.249  0.00  0.00     0.167 HD
ENDBRANCH  10  12
ENDBRANCH   9  10
ENDBRANCH   1   9
BRANCH   1  14
HETATM   14  C   UNK N   1      35.176  12.708  10.894  0.00  0.00     0.120 C 
BRANCH  14  15
HETATM   15  N   UNK N   1      34.001  13.134  10.158  0.00  0.00    -0.429 N 
HETATM   16  H   UNK N   1      33.287  12.509   9.783  0.00  0.00     0.149 HD
HETATM   17  H   UNK N   1      33.879  14.135  10.003  0.00  0.00     0.149 HD
ENDBRANCH  14  15
ENDBRANCH   1  14
TORSDOF 6
ENDMDL
MODEL 5
REMARK VINA RESULT:      -5.0      9.493     11.421
REMARK  6 active torsions:
REMARK  status: ('A' for Active; 'I' for Inactive)
REMARK    1  A    between atoms: C_6  and  C_7 
REMARK    2  A    between atoms: C_7  and  C_8 
REMARK    3  A    between atoms: C_7  and  C_12 
REMARK    4  A    between atoms: C_8  and  C_9 
REMARK    5  A    between atoms: C_9  and  O_11 
REMARK    6  A    between atoms: C_12  and  N_13 
ROOT
HETATM    1  C   UNK N   1      35.692  13.188  15.241  0.00  0.00     0.045 C 
ENDROOT
BRANCH   1   2
HETATM    2  C   UNK N   1      35.557  12.535  16.601  0.00  0.00    -0.052 A 
HETATM    3  C   UNK N   1      35.232  13.321  17.718  0.00  0.00     0.009 A 
HETATM    4  C   UNK N   1      35.124  12.740  18.987  0.00  0.00     0.024 A 
HETATM    5  C   UNK N   1      35.356  11.371  19.152  0.00  0.00     0.034 A 
HETATM    6  C   UNK N   1      35.689  10.581  18.049  0.00  0.00     0.024 A 
HETATM    7 Cl   UNK N   1      35.233  10.645  20.739  0.00  0.00    -0.084 Cl
HETATM    8  C   UNK N   1      35.787  11.159  16.781  0.00  0.00     0.009 A 
ENDBRANCH   1   2
BRANCH   1   9
HETATM    9  C   UNK N   1      35.899  12.128  14.156  0.00  0.00     0.120 C 
BRANCH   9  10
HETATM   10  C   UNK N   1      34.866  12.213  13.073  0.00  0.00     0.140 C 
HETATM   11  O   UNK N   1      34.448  11.192  12.554  0.00  0.00    -0.650 OA
BRANCH  10  12
HETATM   12  O   UNK N   1      34.421  13.408  12.641  0.00  0.00    -0.776 OA
HETATM   13  H   UNK N   1      35.019  14.119  12.523  0.00  0.00     0.167 HD
ENDBRANCH  10  12
ENDBRANCH   9  10
ENDBRANCH   1   9
BRANCH   1  14
HETATM   14  C   UNK N   1      36.822  14.224  15.215  0.00  0.00     0.120 C 
BRANCH  14  15
HETATM   15  N   UNK N   1      36.808  14.992  13.984  0.00  0.00    -0.429 N 
HETATM   16  H   UNK N   1      37.041  15.983  13.912  0.00  0.00     0.149 HD
HETATM   17  H   UNK N   1      36.546  14.505  13.127  0.00  0.00     0.149 HD
ENDBRANCH  14  15
ENDBRANCH   1  14
TORSDOF 6
ENDMDL
MODEL 6
REMARK VINA RESULT:      -4.8      2.388      2.921
REMARK  6 active torsions:
REMARK  status: ('A' for Active; 'I' for Inactive)
REMARK    1  A    between atoms: C_6  and  C_7 
REMARK    2  A    between atoms: C_7  and  C_8 
REMARK    3  A    between atoms: C_7  and  C_12 
REMARK    4  A    between atoms: C_8  and  C_9 
REMARK    5  A    between atoms: C_9  and  O_11 
REMARK    6  A    between atoms: C_12  and  N_13 
ROOT
HETATM    1  C   UNK N   1      32.724  16.782   8.529  0.00  0.00     0.045 C 
ENDROOT
BRANCH   1   2
HETATM    2  C   UNK N   1      32.496  16.908   7.036  0.00  0.00    -0.052 A 
HETATM    3  C   UNK N   1      31.288  16.461   6.479  0.00  0.00     0.009 A 
HETATM    4  C   UNK N   1      31.068  16.548   5.100  0.00  0.00     0.024 A 
HETATM    5  C   UNK N   1      32.061  17.069   4.264  0.00  0.00     0.034 A 
HETATM    6  C   UNK N   1      33.270  17.508   4.806  0.00  0.00     0.024 A 
HETATM    7 Cl   UNK N   1      31.791  17.168   2.538  0.00  0.00    -0.084 Cl
HETATM    8  C   UNK N   1      33.486  17.430   6.184  0.00  0.00     0.009 A 
ENDBRANCH   1   2
BRANCH   1   9
HETATM    9  C   UNK N   1      34.149  16.303   8.815  0.00  0.00     0.120 C 
BRANCH   9  10
HETATM   10  C   UNK N   1      34.874  17.209   9.764  0.00  0.00     0.140 C 
HETATM   11  O   UNK N   1      35.404  18.224   9.345  0.00  0.00    -0.650 OA
BRANCH  10  12
HETATM   12  O   UNK N   1      34.977  16.895  11.069  0.00  0.00    -0.776 OA
HETATM   13  H   UNK N   1      34.770  16.030  11.363  0.00  0.00     0.167 HD
ENDBRANCH  10  12
ENDBRANCH   9  10
ENDBRANCH   1   9
BRANCH   1  14
HETATM   14  C   UNK N   1      31.694  15.856   9.187  0.00  0.00     0.120 C 
BRANCH  14  15
HETATM   15  N   UNK N   1      32.295  15.057  10.238  0.00  0.00    -0.429 N 
HETATM   16  H   UNK N   1      31.840  14.277  10.712  0.00  0.00     0.149 HD
HETATM   17  H   UNK N   1      33.246  15.293  10.524  0.00  0.00     0.149 HD
ENDBRANCH  14  15
ENDBRANCH   1  14
TORSDOF 6
ENDMDL
MODEL 7
REMARK VINA RESULT:      -4.7      1.700      2.200
REMARK  6 active torsions:
REMARK  status: ('A' for Active; 'I' for Inactive)
REMARK    1  A    between atoms: C_6  and  C_7 
REMARK    2  A    between atoms: C_7  and  C_8 
REMARK    3  A    between atoms: C_7  and  C_12 
REMARK    4  A    between atoms: C_8  and  C_9 
REMARK    5  A    between atoms: C_9  and  O_11 
REMARK    6  A    between atoms: C_12  and  N_13 
ROOT
HETATM    1  C   UNK N   1      32.938  16.637   7.186  0.00  0.00     0.045 C 
ENDROOT
BRANCH   1   2
HETATM    2  C   UNK N   1      31.544  17.086   6.799  0.00  0.00    -0.052 A 
HETATM    3  C   UNK N   1      30.617  17.411   7.802  0.00  0.00     0.009 A 
HETATM    4  C   UNK N   1      29.317  17.807   7.465  0.00  0.00     0.024 A 
HETATM    5  C   UNK N   1      28.930  17.867   6.123  0.00  0.00     0.034 A 
HETATM    6  C   UNK N   1      29.840  17.536   5.117  0.00  0.00     0.024 A 
HETATM    7 Cl   UNK N   1      27.302  18.351   5.700  0.00  0.00    -0.084 Cl
HETATM    8  C   UNK N   1      31.140  17.150   5.453  0.00  0.00     0.009 A 
ENDBRANCH   1   2
BRANCH   1   9
HETATM    9  C   UNK N   1      33.928  17.798   7.066  0.00  0.00     0.120 C 
BRANCH   9  10
HETATM   10  C   UNK N   1      34.496  18.201   8.393  0.00  0.00     0.140 C 
HETATM   11  O   UNK N   1      35.249  19.158   8.463  0.00  0.00    -0.650 OA
BRANCH  10  12
HETATM   12  O   UNK N   1      34.212  17.496   9.504  0.00  0.00    -0.776 OA
HETATM   13  H   UNK N   1      34.068  17.937  10.318  0.00  0.00     0.167 HD
ENDBRANCH  10  12
ENDBRANCH   9  10
ENDBRANCH   1   9
BRANCH   1  14
HETATM   14  C   UNK N   1      33.402  15.435   6.354  0.00  0.00     0.120 C 
BRANCH  14  15
HETATM   15  N   UNK N   1      34.564  15.764   5.551  0.00  0.00    -0.429 N 
HETATM   16  H   UNK N   1      34.669  15.548   4.560  0.00  0.00     0.149 HD
HETATM   17  H   UNK N   1      35.334  16.249   6.013  0.00  0.00     0.149 HD
ENDBRANCH  14  15
ENDBRANCH   1  14
TORSDOF 6
ENDMDL
MODEL 8
REMARK VINA RESULT:      -4.7     10.059     11.979
REMARK  6 active torsions:
REMARK  status: ('A' for Active; 'I' for Inactive)
REMARK    1  A    between atoms: C_6  and  C_7 
REMARK    2  A    between atoms: C_7  and  C_8 
REMARK    3  A    between atoms: C_7  and  C_12 
REMARK    4  A    between atoms: C_8  and  C_9 
REMARK    5  A    between atoms: C_9  and  O_11 
REMARK    6  A    between atoms: C_12  and  N_13 
ROOT
HETATM    1  C   UNK N   1      20.746  18.578   3.610  0.00  0.00     0.045 C 
ENDROOT
BRANCH   1   2
HETATM    2  C   UNK N   1      22.183  19.057   3.639  0.00  0.00    -0.052 A 
HETATM    3  C   UNK N   1      22.549  20.199   2.910  0.00  0.00     0.009 A 
HETATM    4  C   UNK N   1      23.875  20.645   2.907  0.00  0.00     0.024 A 
HETATM    5  C   UNK N   1      24.851  19.943   3.622  0.00  0.00     0.034 A 
HETATM    6  C   UNK N   1      24.501  18.800   4.344  0.00  0.00     0.024 A 
HETATM    7 Cl   UNK N   1      26.513  20.493   3.610  0.00  0.00    -0.084 Cl
HETATM    8  C   UNK N   1      23.175  18.361   4.354  0.00  0.00     0.009 A 
ENDBRANCH   1   2
BRANCH   1   9
HETATM    9  C   UNK N   1      20.678  17.116   3.160  0.00  0.00     0.120 C 
BRANCH   9  10
HETATM   10  C   UNK N   1      20.000  16.242   4.172  0.00  0.00     0.140 C 
HETATM   11  O   UNK N   1      20.618  15.329   4.693  0.00  0.00    -0.650 OA
BRANCH  10  12
HETATM   12  O   UNK N   1      18.704  16.430   4.484  0.00  0.00    -0.776 OA
HETATM   13  H   UNK N   1      18.109  15.707   4.479  0.00  0.00     0.167 HD
ENDBRANCH  10  12
ENDBRANCH   9  10
ENDBRANCH   1   9
BRANCH   1  14
HETATM   14  C   UNK N   1      19.868  19.465   2.719  0.00  0.00     0.120 C 
BRANCH  14  15
HETATM   15  N   UNK N   1      18.654  18.778   2.321  0.00  0.00    -0.429 N 
HETATM   16  H   UNK N   1      18.557  17.766   2.232  0.00  0.00     0.149 HD
HETATM   17  H   UNK N   1      17.834  19.350   2.116  0.00  0.00     0.149 HD
ENDBRANCH  14  15
ENDBRANCH   1  14
TORSDOF 6
ENDMDL
MODEL 9
REMARK VINA RESULT:      -4.6      2.664      3.891
REMARK  6 active torsions:
REMARK  status: ('A' for Active; 'I' for Inactive)
REMARK    1  A    between atoms: C_6  and  C_7 
REMARK    2  A    between atoms: C_7  and  C_8 
REMARK    3  A    between atoms: C_7  and  C_12 
REMARK    4  A    between atoms: C_8  and  C_9 
REMARK    5  A    between atoms: C_9  and  O_11 
REMARK    6  A    between atoms: C_12  and  N_13 
ROOT
HETATM    1  C   UNK N   1      29.088  18.278   7.831  0.00  0.00     0.045 C 
ENDROOT
BRANCH   1   2
HETATM    2  C   UNK N   1      28.384  18.863   6.625  0.00  0.00    -0.052 A 
HETATM    3  C   UNK N   1      27.582  20.005   6.776  0.00  0.00     0.009 A 
HETATM    4  C   UNK N   1      26.905  20.548   5.678  0.00  0.00     0.024 A 
HETATM    5  C   UNK N   1      27.013  19.944   4.421  0.00  0.00     0.034 A 
HETATM    6  C   UNK N   1      27.800  18.802   4.260  0.00  0.00     0.024 A 
HETATM    7 Cl   UNK N   1      26.158  20.614   3.049  0.00  0.00    -0.084 Cl
HETATM    8  C   UNK N   1      28.483  18.266   5.354  0.00  0.00     0.009 A 
ENDBRANCH   1   2
BRANCH   1   9
HETATM    9  C   UNK N   1      30.007  17.128   7.410  0.00  0.00     0.120 C 
BRANCH   9  10
HETATM   10  C   UNK N   1      31.440  17.385   7.766  0.00  0.00     0.140 C 
HETATM   11  O   UNK N   1      32.286  17.406   6.889  0.00  0.00    -0.650 OA
BRANCH  10  12
HETATM   12  O   UNK N   1      31.809  17.556   9.049  0.00  0.00    -0.776 OA
HETATM   13  H   UNK N   1      32.506  18.144   9.264  0.00  0.00     0.167 HD
ENDBRANCH  10  12
ENDBRANCH   9  10
ENDBRANCH   1   9
BRANCH   1  14
HETATM   14  C   UNK N   1      28.094  17.817   8.905  0.00  0.00     0.120 C 
BRANCH  14  15
HETATM   15  N   UNK N   1      28.773  17.178  10.015  0.00  0.00    -0.429 N 
HETATM   16  H   UNK N   1      29.678  17.464  10.389  0.00  0.00     0.149 HD
HETATM   17  H   UNK N   1      28.311  16.383  10.456  0.00  0.00     0.149 HD
ENDBRANCH  14  15
ENDBRANCH   1  14
TORSDOF 6
ENDMDL
