REMARK  4 active torsions:
REMARK  status: ('A' for Active; 'I' for Inactive)
REMARK    1  A    between atoms: O_19  and  C_10 
REMARK    2  A    between atoms: C_15  and  O_20 
REMARK    3  A    between atoms: C_16  and  O_21 
REMARK    4  A    between atoms: C_17  and  O_22 
ROOT
HETATM    1  C   UNK N   1       1.841   2.586   1.507  0.00  0.00     0.018 C 
HETATM    2  C   UNK N   1       5.388  -1.055   1.358  0.00  0.00     0.039 C 
HETATM    3  C   UNK N   1       7.998   1.271  -1.129  0.00  0.00     0.037 A 
HETATM    4  C   UNK N   1       4.094  -1.309   0.561  0.00  0.00     0.010 C 
HETATM    5  C   UNK N   1       6.658   1.646  -0.969  0.00  0.00     0.011 A 
HETATM    6  C   UNK N   1       3.829   2.384  -0.773  0.00  0.00     0.010 C 
HETATM    7  C   UNK N   1       2.289   2.365  -0.928  0.00  0.00     0.013 C 
HETATM    8  C   UNK N   1       7.659  -0.615   0.356  0.00  0.00     0.044 A 
HETATM    9  C   UNK N   1       6.325  -0.237   0.524  0.00  0.00    -0.049 A 
HETATM   10  C   UNK N   1       8.498   0.146  -0.463  0.00  0.00     0.066 A 
HETATM   11  C   UNK N   1       5.820   0.896  -0.131  0.00  0.00    -0.047 A 
HETATM   12  C   UNK N   1       4.369   1.232   0.108  0.00  0.00     0.024 C 
HETATM   13  C   UNK N   1       3.500  -0.031  -0.099  0.00  0.00     0.002 C 
HETATM   14  C   UNK N   1       2.067   0.238   0.448  0.00  0.00     0.032 C 
HETATM   15  C   UNK N   1       0.942  -0.638  -0.178  0.00  0.00     0.154 C 
HETATM   16  C   UNK N   1       0.027   0.358  -0.890  0.00  0.00     0.176 C 
HETATM   17  C   UNK N   1       0.073   1.544   0.058  0.00  0.00     0.158 C 
HETATM   18  C   UNK N   1       1.580   1.714   0.279  0.00  0.00    -0.009 C 
ENDROOT
BRANCH  10  19
HETATM   19  O   UNK N   1       9.785  -0.206  -0.613  0.00  0.00    -0.361 OA
HETATM   20  H   UNK N   1      10.022  -1.107  -0.718  0.00  0.00     0.217 HD
ENDBRANCH  10  19
BRANCH  15  21
HETATM   21  O   UNK N   1       1.393  -1.638  -1.045  0.00  0.00    -0.392 OA
HETATM   22  H   UNK N   1       0.948  -2.255  -1.646  0.00  0.00     0.210 HD
ENDBRANCH  15  21
BRANCH  17  23
HETATM   23  O   UNK N   1      -0.536   2.686  -0.469  0.00  0.00    -0.392 OA
HETATM   24  H   UNK N   1      -0.061   3.448  -0.835  0.00  0.00     0.210 HD
ENDBRANCH  17  23
BRANCH  16  25
HETATM   25  O   UNK N   1      -1.267  -0.143  -1.058  0.00  0.00    -0.390 OA
HETATM   26  H   UNK N   1      -2.017   0.461  -1.174  0.00  0.00     0.210 HD
ENDBRANCH  16  25
TORSDOF 4
