MODEL 1
REMARK VINA RESULT:      -7.0      0.000      0.000
REMARK  5 active torsions:
REMARK  status: ('A' for Active; 'I' for Inactive)
REMARK    1  A    between atoms: C_2  and  N_3 
REMARK       I    between atoms: N_3  and  C_4 
REMARK    2  A    between atoms: C_6  and  C_4 
REMARK    3  A    between atoms: C_8  and  C_11 
REMARK    4  A    between atoms: C_14  and  C_17 
REMARK    5  A    between atoms: C_17  and  N_18 
ROOT
HETATM    1  C   UNK N   1      34.887  15.432   9.289  0.00  0.00    -0.016 A 
HETATM    2  C   UNK N   1      34.852  16.821   9.083  0.00  0.00     0.053 A 
HETATM    3  C   UNK N   1      33.763  17.406   8.409  0.00  0.00     0.125 A 
HETATM    4  C   UNK N   1      32.714  16.595   7.932  0.00  0.00     0.009 A 
HETATM    5  C   UNK N   1      32.772  15.217   8.122  0.00  0.00     0.012 A 
HETATM    6  C   UNK N   1      33.832  14.648   8.798  0.00  0.00     0.011 A 
HETATM    7  F   UNK N   1      33.732  18.749   8.223  0.00  0.00    -0.205 F 
ENDROOT
BRANCH   1   8
HETATM    8  C   UNK N   1      36.007  14.750  10.059  0.00  0.00     0.132 C 
HETATM    9  C   UNK N   1      35.495  13.565  10.884  0.00  0.00     0.062 C 
HETATM   10  C   UNK N   1      35.364  14.546  12.037  0.00  0.00     0.084 C 
HETATM   11  C   UNK N   1      36.302  15.514  11.347  0.00  0.00     0.062 C 
HETATM   12  F   UNK N   1      37.147  14.485   9.318  0.00  0.00    -0.238 F 
BRANCH  10  13
HETATM   13  C   UNK N   1      35.636  14.138  13.439  0.00  0.00     0.222 C 
HETATM   14  N   UNK N   1      36.688  14.712  14.065  0.00  0.00    -0.361 N 
HETATM   15  H   UNK N   1      37.204  15.395  13.578  0.00  0.00     0.162 HD
HETATM   16  O   UNK N   1      34.953  13.288  13.995  0.00  0.00    -0.273 OA
BRANCH  14  17
HETATM   17  C   UNK N   1      37.092  14.378  15.403  0.00  0.00     0.118 C 
HETATM   18  C   UNK N   1      37.399  15.662  16.151  0.00  0.00     0.026 C 
ENDBRANCH  14  17
ENDBRANCH  10  13
ENDBRANCH   1   8
BRANCH   4  19
HETATM   19  C   UNK N   1      31.521  17.172   7.225  0.00  0.00     0.314 C 
BRANCH  19  20
HETATM   20  N   UNK N   1      30.326  17.030   8.057  0.00  0.00     0.092 N 
HETATM   21  C   UNK N   1      30.276  18.120   9.012  0.00  0.00     0.273 C 
HETATM   22  C   UNK N   1      28.808  18.369   9.305  0.00  0.00     0.032 C 
HETATM   23  C   UNK N   1      28.065  17.783   8.127  0.00  0.00     0.032 C 
HETATM   24  C   UNK N   1      29.149  17.242   7.224  0.00  0.00     0.273 C 
ENDBRANCH  19  20
ENDBRANCH   4  19
TORSDOF 5
ENDMDL
MODEL 2
REMARK VINA RESULT:      -6.8      2.447      3.886
REMARK  5 active torsions:
REMARK  status: ('A' for Active; 'I' for Inactive)
REMARK    1  A    between atoms: C_2  and  N_3 
REMARK       I    between atoms: N_3  and  C_4 
REMARK    2  A    between atoms: C_6  and  C_4 
REMARK    3  A    between atoms: C_8  and  C_11 
REMARK    4  A    between atoms: C_14  and  C_17 
REMARK    5  A    between atoms: C_17  and  N_18 
ROOT
HETATM    1  C   UNK N   1      32.457  17.276   7.511  0.00  0.00    -0.016 A 
HETATM    2  C   UNK N   1      31.786  17.954   8.543  0.00  0.00     0.053 A 
HETATM    3  C   UNK N   1      30.399  18.176   8.453  0.00  0.00     0.125 A 
HETATM    4  C   UNK N   1      29.686  17.728   7.323  0.00  0.00     0.009 A 
HETATM    5  C   UNK N   1      30.366  17.079   6.298  0.00  0.00     0.012 A 
HETATM    6  C   UNK N   1      31.723  16.846   6.395  0.00  0.00     0.011 A 
HETATM    7  F   UNK N   1      29.757  18.823   9.458  0.00  0.00    -0.205 F 
ENDROOT
BRANCH   1   8
HETATM    8  C   UNK N   1      33.942  16.957   7.577  0.00  0.00     0.132 C 
HETATM    9  C   UNK N   1      34.207  15.610   8.260  0.00  0.00     0.062 C 
HETATM   10  C   UNK N   1      34.369  16.402   9.546  0.00  0.00     0.084 C 
HETATM   11  C   UNK N   1      34.584  17.678   8.759  0.00  0.00     0.062 C 
HETATM   12  F   UNK N   1      34.633  17.146   6.391  0.00  0.00    -0.238 F 
BRANCH  10  13
HETATM   13  C   UNK N   1      35.356  16.007  10.583  0.00  0.00     0.222 C 
HETATM   14  N   UNK N   1      34.956  15.119  11.522  0.00  0.00    -0.361 N 
HETATM   15  H   UNK N   1      34.045  14.752  11.457  0.00  0.00     0.162 HD
HETATM   16  O   UNK N   1      36.479  16.494  10.607  0.00  0.00    -0.273 OA
BRANCH  14  17
HETATM   17  C   UNK N   1      35.791  14.685  12.608  0.00  0.00     0.118 C 
HETATM   18  C   UNK N   1      35.387  13.275  12.995  0.00  0.00     0.026 C 
ENDBRANCH  14  17
ENDBRANCH  10  13
ENDBRANCH   1   8
BRANCH   4  19
HETATM   19  C   UNK N   1      28.203  17.923   7.190  0.00  0.00     0.314 C 
BRANCH  19  20
HETATM   20  N   UNK N   1      27.918  18.966   6.205  0.00  0.00     0.092 N 
HETATM   21  C   UNK N   1      26.768  18.574   5.413  0.00  0.00     0.273 C 
HETATM   22  C   UNK N   1      26.088  19.859   4.978  0.00  0.00     0.032 C 
HETATM   23  C   UNK N   1      26.555  20.907   5.962  0.00  0.00     0.032 C 
HETATM   24  C   UNK N   1      27.467  20.161   6.907  0.00  0.00     0.273 C 
ENDBRANCH  19  20
ENDBRANCH   4  19
TORSDOF 5
ENDMDL
MODEL 3
REMARK VINA RESULT:      -6.8      4.411      7.107
REMARK  5 active torsions:
REMARK  status: ('A' for Active; 'I' for Inactive)
REMARK    1  A    between atoms: C_2  and  N_3 
REMARK       I    between atoms: N_3  and  C_4 
REMARK    2  A    between atoms: C_6  and  C_4 
REMARK    3  A    between atoms: C_8  and  C_11 
REMARK    4  A    between atoms: C_14  and  C_17 
REMARK    5  A    between atoms: C_17  and  N_18 
ROOT
HETATM    1  C   UNK N   1      28.913  18.255   7.104  0.00  0.00    -0.016 A 
HETATM    2  C   UNK N   1      28.175  19.434   7.303  0.00  0.00     0.053 A 
HETATM    3  C   UNK N   1      27.426  19.982   6.245  0.00  0.00     0.125 A 
HETATM    4  C   UNK N   1      27.425  19.353   4.984  0.00  0.00     0.009 A 
HETATM    5  C   UNK N   1      28.178  18.198   4.794  0.00  0.00     0.012 A 
HETATM    6  C   UNK N   1      28.898  17.653   5.837  0.00  0.00     0.011 A 
HETATM    7  F   UNK N   1      26.709  21.116   6.447  0.00  0.00    -0.205 F 
ENDROOT
BRANCH   1   8
HETATM    8  C   UNK N   1      29.695  17.585   8.224  0.00  0.00     0.132 C 
HETATM    9  C   UNK N   1      30.700  18.544   8.870  0.00  0.00     0.062 C 
HETATM   10  C   UNK N   1      31.718  17.986   7.890  0.00  0.00     0.084 C 
HETATM   11  C   UNK N   1      30.849  16.770   7.646  0.00  0.00     0.062 C 
HETATM   12  F   UNK N   1      28.925  16.866   9.123  0.00  0.00    -0.238 F 
BRANCH  10  13
HETATM   13  C   UNK N   1      33.142  17.802   8.269  0.00  0.00     0.222 C 
HETATM   14  N   UNK N   1      33.413  16.965   9.298  0.00  0.00    -0.361 N 
HETATM   15  H   UNK N   1      32.662  16.494   9.724  0.00  0.00     0.162 HD
HETATM   16  O   UNK N   1      34.034  18.411   7.695  0.00  0.00    -0.273 OA
BRANCH  14  17
HETATM   17  C   UNK N   1      34.739  16.730   9.799  0.00  0.00     0.118 C 
HETATM   18  C   UNK N   1      35.178  15.342   9.375  0.00  0.00     0.026 C 
ENDBRANCH  14  17
ENDBRANCH  10  13
ENDBRANCH   1   8
BRANCH   4  19
HETATM   19  C   UNK N   1      26.626  19.886   3.829  0.00  0.00     0.314 C 
BRANCH  19  20
HETATM   20  N   UNK N   1      25.212  19.974   4.194  0.00  0.00     0.092 N 
HETATM   21  C   UNK N   1      24.470  20.556   3.091  0.00  0.00     0.273 C 
HETATM   22  C   UNK N   1      23.066  19.985   3.169  0.00  0.00     0.032 C 
HETATM   23  C   UNK N   1      23.200  18.713   3.975  0.00  0.00     0.032 C 
HETATM   24  C   UNK N   1      24.672  18.625   4.303  0.00  0.00     0.273 C 
ENDBRANCH  19  20
ENDBRANCH   4  19
TORSDOF 5
ENDMDL
MODEL 4
REMARK VINA RESULT:      -6.7      4.229      9.430
REMARK  5 active torsions:
REMARK  status: ('A' for Active; 'I' for Inactive)
REMARK    1  A    between atoms: C_2  and  N_3 
REMARK       I    between atoms: N_3  and  C_4 
REMARK    2  A    between atoms: C_6  and  C_4 
REMARK    3  A    between atoms: C_8  and  C_11 
REMARK    4  A    between atoms: C_14  and  C_17 
REMARK    5  A    between atoms: C_17  and  N_18 
ROOT
HETATM    1  C   UNK N   1      30.461  17.233   6.557  0.00  0.00    -0.016 A 
HETATM    2  C   UNK N   1      31.630  17.294   5.781  0.00  0.00     0.053 A 
HETATM    3  C   UNK N   1      32.886  17.420   6.406  0.00  0.00     0.125 A 
HETATM    4  C   UNK N   1      32.967  17.496   7.811  0.00  0.00     0.009 A 
HETATM    5  C   UNK N   1      31.799  17.458   8.567  0.00  0.00     0.012 A 
HETATM    6  C   UNK N   1      30.571  17.317   7.953  0.00  0.00     0.011 A 
HETATM    7  F   UNK N   1      34.010  17.468   5.650  0.00  0.00    -0.205 F 
ENDROOT
BRANCH   1   8
HETATM    8  C   UNK N   1      29.084  17.041   5.942  0.00  0.00     0.132 C 
HETATM    9  C   UNK N   1      28.856  17.974   4.748  0.00  0.00     0.062 C 
HETATM   10  C   UNK N   1      28.225  18.935   5.741  0.00  0.00     0.084 C 
HETATM   11  C   UNK N   1      28.037  17.813   6.740  0.00  0.00     0.062 C 
HETATM   12  F   UNK N   1      28.725  15.722   5.718  0.00  0.00    -0.238 F 
BRANCH  10  13
HETATM   13  C   UNK N   1      27.066  19.786   5.370  0.00  0.00     0.222 C 
HETATM   14  N   UNK N   1      26.169  19.274   4.497  0.00  0.00    -0.361 N 
HETATM   15  H   UNK N   1      26.305  18.355   4.174  0.00  0.00     0.162 HD
HETATM   16  O   UNK N   1      26.946  20.921   5.812  0.00  0.00    -0.273 OA
BRANCH  14  17
HETATM   17  C   UNK N   1      25.027  20.003   4.016  0.00  0.00     0.118 C 
HETATM   18  C   UNK N   1      25.305  20.457   2.596  0.00  0.00     0.026 C 
ENDBRANCH  14  17
ENDBRANCH  10  13
ENDBRANCH   1   8
BRANCH   4  19
HETATM   19  C   UNK N   1      34.282  17.610   8.527  0.00  0.00     0.314 C 
BRANCH  19  20
HETATM   20  N   UNK N   1      34.451  16.489   9.451  0.00  0.00     0.092 N 
HETATM   21  C   UNK N   1      35.162  15.418   8.779  0.00  0.00     0.273 C 
HETATM   22  C   UNK N   1      35.927  14.669   9.854  0.00  0.00     0.032 C 
HETATM   23  C   UNK N   1      36.051  15.644  11.004  0.00  0.00     0.032 C 
HETATM   24  C   UNK N   1      35.358  16.895  10.517  0.00  0.00     0.273 C 
ENDBRANCH  19  20
ENDBRANCH   4  19
TORSDOF 5
ENDMDL
MODEL 5
REMARK VINA RESULT:      -6.6      2.620      4.156
REMARK  5 active torsions:
REMARK  status: ('A' for Active; 'I' for Inactive)
REMARK    1  A    between atoms: C_2  and  N_3 
REMARK       I    between atoms: N_3  and  C_4 
REMARK    2  A    between atoms: C_6  and  C_4 
REMARK    3  A    between atoms: C_8  and  C_11 
REMARK    4  A    between atoms: C_14  and  C_17 
REMARK    5  A    between atoms: C_17  and  N_18 
ROOT
HETATM    1  C   UNK N   1      32.295  17.224   7.563  0.00  0.00    -0.016 A 
HETATM    2  C   UNK N   1      31.708  16.831   6.349  0.00  0.00     0.053 A 
HETATM    3  C   UNK N   1      30.337  17.060   6.123  0.00  0.00     0.125 A 
HETATM    4  C   UNK N   1      29.553  17.673   7.120  0.00  0.00     0.009 A 
HETATM    5  C   UNK N   1      30.142  18.036   8.328  0.00  0.00     0.012 A 
HETATM    6  C   UNK N   1      31.490  17.827   8.540  0.00  0.00     0.011 A 
HETATM    7  F   UNK N   1      29.780  16.686   4.944  0.00  0.00    -0.205 F 
ENDROOT
BRANCH   1   8
HETATM    8  C   UNK N   1      33.781  17.055   7.842  0.00  0.00     0.132 C 
HETATM    9  C   UNK N   1      34.250  15.619   7.584  0.00  0.00     0.062 C 
HETATM   10  C   UNK N   1      33.994  15.371   9.061  0.00  0.00     0.084 C 
HETATM   11  C   UNK N   1      34.018  16.860   9.337  0.00  0.00     0.062 C 
HETATM   12  F   UNK N   1      34.592  18.033   7.291  0.00  0.00    -0.238 F 
BRANCH  10  13
HETATM   13  C   UNK N   1      34.860  14.466   9.858  0.00  0.00     0.222 C 
HETATM   14  N   UNK N   1      34.340  13.941  10.992  0.00  0.00    -0.361 N 
HETATM   15  H   UNK N   1      33.406  14.155  11.218  0.00  0.00     0.162 HD
HETATM   16  O   UNK N   1      36.012  14.231   9.521  0.00  0.00    -0.273 OA
BRANCH  14  17
HETATM   17  C   UNK N   1      35.079  13.088  11.881  0.00  0.00     0.118 C 
HETATM   18  C   UNK N   1      35.568  13.918  13.053  0.00  0.00     0.026 C 
ENDBRANCH  14  17
ENDBRANCH  10  13
ENDBRANCH   1   8
BRANCH   4  19
HETATM   19  C   UNK N   1      28.092  17.958   6.921  0.00  0.00     0.314 C 
BRANCH  19  20
HETATM   20  N   UNK N   1      27.920  19.135   6.070  0.00  0.00     0.092 N 
HETATM   21  C   UNK N   1      26.822  18.904   5.151  0.00  0.00     0.273 C 
HETATM   22  C   UNK N   1      26.222  20.264   4.847  0.00  0.00     0.032 C 
HETATM   23  C   UNK N   1      26.647  21.149   5.996  0.00  0.00     0.032 C 
HETATM   24  C   UNK N   1      27.457  20.244   6.894  0.00  0.00     0.273 C 
ENDBRANCH  19  20
ENDBRANCH   4  19
TORSDOF 5
ENDMDL
MODEL 6
REMARK VINA RESULT:      -6.5      1.362      1.836
REMARK  5 active torsions:
REMARK  status: ('A' for Active; 'I' for Inactive)
REMARK    1  A    between atoms: C_2  and  N_3 
REMARK       I    between atoms: N_3  and  C_4 
REMARK    2  A    between atoms: C_6  and  C_4 
REMARK    3  A    between atoms: C_8  and  C_11 
REMARK    4  A    between atoms: C_14  and  C_17 
REMARK    5  A    between atoms: C_17  and  N_18 
ROOT
HETATM    1  C   UNK N   1      34.826  15.444   9.592  0.00  0.00    -0.016 A 
HETATM    2  C   UNK N   1      33.869  14.642   8.949  0.00  0.00     0.053 A 
HETATM    3  C   UNK N   1      32.823  15.241   8.220  0.00  0.00     0.125 A 
HETATM    4  C   UNK N   1      32.732  16.646   8.147  0.00  0.00     0.009 A 
HETATM    5  C   UNK N   1      33.674  17.428   8.809  0.00  0.00     0.012 A 
HETATM    6  C   UNK N   1      34.708  16.839   9.507  0.00  0.00     0.011 A 
HETATM    7  F   UNK N   1      31.908  14.460   7.594  0.00  0.00    -0.205 F 
ENDROOT
BRANCH   1   8
HETATM    8  C   UNK N   1      36.009  14.854  10.345  0.00  0.00     0.132 C 
HETATM    9  C   UNK N   1      35.710  13.442  10.862  0.00  0.00     0.062 C 
HETATM   10  C   UNK N   1      35.280  14.111  12.157  0.00  0.00     0.084 C 
HETATM   11  C   UNK N   1      36.030  15.371  11.781  0.00  0.00     0.062 C 
HETATM   12  F   UNK N   1      37.231  14.986   9.707  0.00  0.00    -0.238 F 
BRANCH  10  13
HETATM   13  C   UNK N   1      35.529  13.479  13.478  0.00  0.00     0.222 C 
HETATM   14  N   UNK N   1      36.808  13.169  13.792  0.00  0.00    -0.361 N 
HETATM   15  H   UNK N   1      37.516  13.405  13.150  0.00  0.00     0.162 HD
HETATM   16  O   UNK N   1      34.607  13.216  14.238  0.00  0.00    -0.273 OA
BRANCH  14  17
HETATM   17  C   UNK N   1      37.186  12.514  15.014  0.00  0.00     0.118 C 
HETATM   18  C   UNK N   1      37.463  11.053  14.714  0.00  0.00     0.026 C 
ENDBRANCH  14  17
ENDBRANCH  10  13
ENDBRANCH   1   8
BRANCH   4  19
HETATM   19  C   UNK N   1      31.649  17.333   7.367  0.00  0.00     0.314 C 
BRANCH  19  20
HETATM   20  N   UNK N   1      30.361  17.167   8.040  0.00  0.00     0.092 N 
HETATM   21  C   UNK N   1      30.108  18.323   8.879  0.00  0.00     0.273 C 
HETATM   22  C   UNK N   1      28.601  18.482   8.949  0.00  0.00     0.032 C 
HETATM   23  C   UNK N   1      28.069  17.750   7.738  0.00  0.00     0.032 C 
HETATM   24  C   UNK N   1      29.301  17.223   7.041  0.00  0.00     0.273 C 
ENDBRANCH  19  20
ENDBRANCH   4  19
TORSDOF 5
ENDMDL
MODEL 7
REMARK VINA RESULT:      -6.5      3.159      8.132
REMARK  5 active torsions:
REMARK  status: ('A' for Active; 'I' for Inactive)
REMARK    1  A    between atoms: C_2  and  N_3 
REMARK       I    between atoms: N_3  and  C_4 
REMARK    2  A    between atoms: C_6  and  C_4 
REMARK    3  A    between atoms: C_8  and  C_11 
REMARK    4  A    between atoms: C_14  and  C_17 
REMARK    5  A    between atoms: C_17  and  N_18 
ROOT
HETATM    1  C   UNK N   1      35.881  12.577  11.793  0.00  0.00    -0.016 A 
HETATM    2  C   UNK N   1      34.699  12.077  12.364  0.00  0.00     0.053 A 
HETATM    3  C   UNK N   1      34.706  11.593  13.686  0.00  0.00     0.125 A 
HETATM    4  C   UNK N   1      35.902  11.601  14.432  0.00  0.00     0.009 A 
HETATM    5  C   UNK N   1      37.071  12.078  13.847  0.00  0.00     0.012 A 
HETATM    6  C   UNK N   1      37.058  12.568  12.556  0.00  0.00     0.011 A 
HETATM    7  F   UNK N   1      33.558  11.120  14.234  0.00  0.00    -0.205 F 
ENDROOT
BRANCH   1   8
HETATM    8  C   UNK N   1      35.923  13.164  10.391  0.00  0.00     0.132 C 
HETATM    9  C   UNK N   1      36.766  14.443  10.333  0.00  0.00     0.062 C 
HETATM   10  C   UNK N   1      35.465  15.196  10.557  0.00  0.00     0.084 C 
HETATM   11  C   UNK N   1      34.665  13.986  10.125  0.00  0.00     0.062 C 
HETATM   12  F   UNK N   1      36.193  12.252   9.385  0.00  0.00    -0.238 F 
BRANCH  10  13
HETATM   13  C   UNK N   1      35.207  16.510   9.915  0.00  0.00     0.222 C 
HETATM   14  N   UNK N   1      34.605  16.507   8.704  0.00  0.00    -0.361 N 
HETATM   15  H   UNK N   1      34.337  15.642   8.319  0.00  0.00     0.162 HD
HETATM   16  O   UNK N   1      35.558  17.555  10.447  0.00  0.00    -0.273 OA
BRANCH  14  17
HETATM   17  C   UNK N   1      34.337  17.701   7.950  0.00  0.00     0.118 C 
HETATM   18  C   UNK N   1      32.858  18.019   8.055  0.00  0.00     0.026 C 
ENDBRANCH  14  17
ENDBRANCH  10  13
ENDBRANCH   1   8
BRANCH   4  19
HETATM   19  C   UNK N   1      35.957  11.116  15.852  0.00  0.00     0.314 C 
BRANCH  19  20
HETATM   20  N   UNK N   1      35.139  11.974  16.710  0.00  0.00     0.092 N 
HETATM   21  C   UNK N   1      35.364  11.615  18.097  0.00  0.00     0.273 C 
HETATM   22  C   UNK N   1      35.139  12.877  18.909  0.00  0.00     0.032 C 
HETATM   23  C   UNK N   1      35.315  14.015  17.930  0.00  0.00     0.032 C 
HETATM   24  C   UNK N   1      35.639  13.339  16.618  0.00  0.00     0.273 C 
ENDBRANCH  19  20
ENDBRANCH   4  19
TORSDOF 5
ENDMDL
MODEL 8
REMARK VINA RESULT:      -6.4      5.679     10.800
REMARK  5 active torsions:
REMARK  status: ('A' for Active; 'I' for Inactive)
REMARK    1  A    between atoms: C_2  and  N_3 
REMARK       I    between atoms: N_3  and  C_4 
REMARK    2  A    between atoms: C_6  and  C_4 
REMARK    3  A    between atoms: C_8  and  C_11 
REMARK    4  A    between atoms: C_14  and  C_17 
REMARK    5  A    between atoms: C_17  and  N_18 
ROOT
HETATM    1  C   UNK N   1      27.986  18.693   5.424  0.00  0.00    -0.016 A 
HETATM    2  C   UNK N   1      28.027  19.004   6.793  0.00  0.00     0.053 A 
HETATM    3  C   UNK N   1      28.993  18.402   7.622  0.00  0.00     0.125 A 
HETATM    4  C   UNK N   1      29.910  17.480   7.079  0.00  0.00     0.009 A 
HETATM    5  C   UNK N   1      29.843  17.163   5.725  0.00  0.00     0.012 A 
HETATM    6  C   UNK N   1      28.907  17.767   4.911  0.00  0.00     0.011 A 
HETATM    7  F   UNK N   1      29.033  18.714   8.941  0.00  0.00    -0.205 F 
ENDROOT
BRANCH   1   8
HETATM    8  C   UNK N   1      27.003  19.353   4.468  0.00  0.00     0.132 C 
HETATM    9  C   UNK N   1      25.817  19.978   5.211  0.00  0.00     0.062 C 
HETATM   10  C   UNK N   1      25.095  18.663   4.968  0.00  0.00     0.084 C 
HETATM   11  C   UNK N   1      26.070  18.307   3.866  0.00  0.00     0.062 C 
HETATM   12  F   UNK N   1      27.581  20.173   3.513  0.00  0.00    -0.238 F 
BRANCH  10  13
HETATM   13  C   UNK N   1      23.636  18.616   4.697  0.00  0.00     0.222 C 
HETATM   14  N   UNK N   1      22.835  18.121   5.669  0.00  0.00    -0.361 N 
HETATM   15  H   UNK N   1      23.249  17.847   6.519  0.00  0.00     0.162 HD
HETATM   16  O   UNK N   1      23.179  18.980   3.622  0.00  0.00    -0.273 OA
BRANCH  14  17
HETATM   17  C   UNK N   1      21.413  17.975   5.525  0.00  0.00     0.118 C 
HETATM   18  C   UNK N   1      21.018  16.590   6.000  0.00  0.00     0.026 C 
ENDBRANCH  14  17
ENDBRANCH  10  13
ENDBRANCH   1   8
BRANCH   4  19
HETATM   19  C   UNK N   1      30.971  16.827   7.917  0.00  0.00     0.314 C 
BRANCH  19  20
HETATM   20  N   UNK N   1      32.294  17.098   7.355  0.00  0.00     0.092 N 
HETATM   21  C   UNK N   1      32.927  18.159   8.115  0.00  0.00     0.273 C 
HETATM   22  C   UNK N   1      34.423  17.918   8.027  0.00  0.00     0.032 C 
HETATM   23  C   UNK N   1      34.568  16.455   7.674  0.00  0.00     0.032 C 
HETATM   24  C   UNK N   1      33.150  15.942   7.591  0.00  0.00     0.273 C 
ENDBRANCH  19  20
ENDBRANCH   4  19
TORSDOF 5
ENDMDL
MODEL 9
REMARK VINA RESULT:      -6.3      3.337      8.338
REMARK  5 active torsions:
REMARK  status: ('A' for Active; 'I' for Inactive)
REMARK    1  A    between atoms: C_2  and  N_3 
REMARK       I    between atoms: N_3  and  C_4 
REMARK    2  A    between atoms: C_6  and  C_4 
REMARK    3  A    between atoms: C_8  and  C_11 
REMARK    4  A    between atoms: C_14  and  C_17 
REMARK    5  A    between atoms: C_17  and  N_18 
ROOT
HETATM    1  C   UNK N   1      35.833  14.060  11.882  0.00  0.00    -0.016 A 
HETATM    2  C   UNK N   1      36.140  14.450  13.196  0.00  0.00     0.053 A 
HETATM    3  C   UNK N   1      35.762  13.634  14.279  0.00  0.00     0.125 A 
HETATM    4  C   UNK N   1      35.066  12.431  14.044  0.00  0.00     0.009 A 
HETATM    5  C   UNK N   1      34.749  12.068  12.738  0.00  0.00     0.012 A 
HETATM    6  C   UNK N   1      35.135  12.861  11.677  0.00  0.00     0.011 A 
HETATM    7  F   UNK N   1      36.070  14.013  15.544  0.00  0.00    -0.205 F 
ENDROOT
BRANCH   1   8
HETATM    8  C   UNK N   1      36.265  14.871  10.670  0.00  0.00     0.132 C 
HETATM    9  C   UNK N   1      35.837  16.338  10.783  0.00  0.00     0.062 C 
HETATM   10  C   UNK N   1      34.593  15.935  10.009  0.00  0.00     0.084 C 
HETATM   11  C   UNK N   1      35.276  14.674   9.524  0.00  0.00     0.062 C 
HETATM   12  F   UNK N   1      37.582  14.684  10.282  0.00  0.00    -0.238 F 
BRANCH  10  13
HETATM   13  C   UNK N   1      33.959  16.849   9.025  0.00  0.00     0.222 C 
HETATM   14  N   UNK N   1      32.645  17.127   9.185  0.00  0.00    -0.361 N 
HETATM   15  H   UNK N   1      32.178  16.741   9.960  0.00  0.00     0.162 HD
HETATM   16  O   UNK N   1      34.595  17.305   8.084  0.00  0.00    -0.273 OA
BRANCH  14  17
HETATM   17  C   UNK N   1      31.896  17.957   8.282  0.00  0.00     0.118 C 
HETATM   18  C   UNK N   1      30.562  18.289   8.923  0.00  0.00     0.026 C 
ENDBRANCH  14  17
ENDBRANCH  10  13
ENDBRANCH   1   8
BRANCH   4  19
HETATM   19  C   UNK N   1      34.659  11.516  15.163  0.00  0.00     0.314 C 
BRANCH  19  20
HETATM   20  N   UNK N   1      35.780  10.657  15.544  0.00  0.00     0.092 N 
HETATM   21  C   UNK N   1      36.067  10.844  16.954  0.00  0.00     0.273 C 
HETATM   22  C   UNK N   1      36.643   9.532  17.453  0.00  0.00     0.032 C 
HETATM   23  C   UNK N   1      36.177   8.492  16.460  0.00  0.00     0.032 C 
HETATM   24  C   UNK N   1      35.355   9.266  15.457  0.00  0.00     0.273 C 
ENDBRANCH  19  20
ENDBRANCH   4  19
TORSDOF 5
ENDMDL
