MODEL 1
REMARK VINA RESULT:      -7.8      0.000      0.000
REMARK  0 active torsions:
REMARK  status: ('A' for Active; 'I' for Inactive)
ROOT
HETATM    1  C   UNK N   1      36.881   8.691  13.045  0.00  0.00     0.032 C 
HETATM    2  C   UNK N   1      37.734   9.947  13.107  0.00  0.00     0.078 C 
HETATM    3  C   UNK N   1      37.580  10.817  11.847  0.00  0.00     0.066 C 
HETATM    4  C   UNK N   1      36.464  11.793  12.016  0.00  0.00    -0.018 A 
HETATM    5  C   UNK N   1      36.026  12.770  11.158  0.00  0.00     0.002 A 
HETATM    6  C   UNK N   1      36.456  13.134   9.888  0.00  0.00     0.058 A 
HETATM    7  C   UNK N   1      35.909  14.302   9.321  0.00  0.00     0.139 A 
HETATM    8  C   UNK N   1      34.953  15.065  10.038  0.00  0.00     0.074 A 
HETATM    9  C   UNK N   1      34.522  14.652  11.311  0.00  0.00     0.057 A 
HETATM   10  C   UNK N   1      35.082  13.494  11.840  0.00  0.00     0.045 A 
HETATM   11  N   UNK N   1      34.904  13.017  13.083  0.00  0.00    -0.356 N 
HETATM   12  C   UNK N   1      35.777  11.980  13.191  0.00  0.00     0.059 A 
HETATM   13  C   UNK N   1      36.219  11.367  14.492  0.00  0.00     0.182 A 
HETATM   14  N   UNK N   1      37.537  10.702  14.365  0.00  0.00    -0.392 N 
HETATM   15  C   UNK N   1      36.294  12.506  15.480  0.00  0.00     0.013 A 
HETATM   16  C   UNK N   1      36.971  13.720  15.340  0.00  0.00     0.036 A 
HETATM   17  C   UNK N   1      36.779  14.708  16.317  0.00  0.00     0.034 A 
HETATM   18  C   UNK N   1      35.936  14.460  17.421  0.00  0.00     0.026 A 
HETATM   19  C   UNK N   1      35.270  13.228  17.543  0.00  0.00     0.032 A 
HETATM   20  C   UNK N   1      35.463  12.277  16.543  0.00  0.00     0.044 A 
HETATM   21  N   UNK N   1      34.818  11.052  16.421  0.00  0.00    -0.324 N 
HETATM   22  C   UNK N   1      35.208  10.509  15.249  0.00  0.00     0.261 A 
HETATM   23  O   UNK N   1      34.788   9.432  14.863  0.00  0.00    -0.270 OA
HETATM   24 Cl   UNK N   1      37.526  16.278  16.117  0.00  0.00    -0.084 Cl
HETATM   25 Cl   UNK N   1      34.333  16.563   9.370  0.00  0.00    -0.081 Cl
HETATM   26  F   UNK N   1      36.334  14.712   8.102  0.00  0.00    -0.204 F 
HETATM   27  H   UNK N   1      34.278  13.347  13.767  0.00  0.00     0.166 HD
HETATM   28  H   UNK N   1      38.253  10.759  15.089  0.00  0.00     0.155 HD
HETATM   29  H   UNK N   1      34.192  10.655  17.069  0.00  0.00     0.169 HD
ENDROOT
TORSDOF 0
ENDMDL
MODEL 2
REMARK VINA RESULT:      -7.7     14.881     17.607
REMARK  0 active torsions:
REMARK  status: ('A' for Active; 'I' for Inactive)
ROOT
HETATM    1  C   UNK N   1      18.468  16.815   8.644  0.00  0.00     0.032 C 
HETATM    2  C   UNK N   1      19.966  16.923   8.416  0.00  0.00     0.078 C 
HETATM    3  C   UNK N   1      20.740  15.773   9.086  0.00  0.00     0.066 C 
HETATM    4  C   UNK N   1      20.871  14.615   8.154  0.00  0.00    -0.018 A 
HETATM    5  C   UNK N   1      21.518  13.420   8.339  0.00  0.00     0.002 A 
HETATM    6  C   UNK N   1      22.217  12.915   9.429  0.00  0.00     0.058 A 
HETATM    7  C   UNK N   1      22.921  11.708   9.253  0.00  0.00     0.139 A 
HETATM    8  C   UNK N   1      22.903  11.045   7.999  0.00  0.00     0.074 A 
HETATM    9  C   UNK N   1      22.164  11.572   6.926  0.00  0.00     0.057 A 
HETATM   10  C   UNK N   1      21.480  12.765   7.134  0.00  0.00     0.045 A 
HETATM   11  N   UNK N   1      20.837  13.490   6.204  0.00  0.00    -0.356 N 
HETATM   12  C   UNK N   1      20.483  14.641   6.836  0.00  0.00     0.059 A 
HETATM   13  C   UNK N   1      20.078  15.910   6.138  0.00  0.00     0.182 A 
HETATM   14  N   UNK N   1      20.309  17.102   6.987  0.00  0.00    -0.392 N 
HETATM   15  C   UNK N   1      20.921  15.979   4.888  0.00  0.00     0.013 A 
HETATM   16  C   UNK N   1      22.310  15.871   4.782  0.00  0.00     0.036 A 
HETATM   17  C   UNK N   1      22.880  15.806   3.502  0.00  0.00     0.034 A 
HETATM   18  C   UNK N   1      22.059  15.870   2.356  0.00  0.00     0.026 A 
HETATM   19  C   UNK N   1      20.663  15.985   2.487  0.00  0.00     0.032 A 
HETATM   20  C   UNK N   1      20.128  16.023   3.772  0.00  0.00     0.044 A 
HETATM   21  N   UNK N   1      18.781  16.024   4.115  0.00  0.00    -0.324 N 
HETATM   22  C   UNK N   1      18.709  15.938   5.460  0.00  0.00     0.261 A 
HETATM   23  O   UNK N   1      17.644  15.902   6.051  0.00  0.00    -0.270 OA
HETATM   24 Cl   UNK N   1      24.605  15.562   3.335  0.00  0.00    -0.084 Cl
HETATM   25 Cl   UNK N   1      23.845   9.587   7.754  0.00  0.00    -0.081 Cl
HETATM   26  F   UNK N   1      23.649  11.206  10.280  0.00  0.00    -0.204 F 
HETATM   27  H   UNK N   1      20.661  13.242   5.268  0.00  0.00     0.166 HD
HETATM   28  H   UNK N   1      20.675  17.978   6.616  0.00  0.00     0.155 HD
HETATM   29  H   UNK N   1      18.020  16.076   3.493  0.00  0.00     0.169 HD
ENDROOT
TORSDOF 0
ENDMDL
MODEL 3
REMARK VINA RESULT:      -7.7     20.999     23.953
REMARK  0 active torsions:
REMARK  status: ('A' for Active; 'I' for Inactive)
ROOT
HETATM    1  C   UNK N   1      29.659  22.718  -2.227  0.00  0.00     0.032 C 
HETATM    2  C   UNK N   1      30.315  23.408  -3.410  0.00  0.00     0.078 C 
HETATM    3  C   UNK N   1      30.437  22.479  -4.631  0.00  0.00     0.066 C 
HETATM    4  C   UNK N   1      29.221  22.576  -5.489  0.00  0.00    -0.018 A 
HETATM    5  C   UNK N   1      28.945  21.954  -6.680  0.00  0.00     0.002 A 
HETATM    6  C   UNK N   1      29.681  21.045  -7.431  0.00  0.00     0.058 A 
HETATM    7  C   UNK N   1      29.197  20.710  -8.711  0.00  0.00     0.139 A 
HETATM    8  C   UNK N   1      27.998  21.290  -9.197  0.00  0.00     0.074 A 
HETATM    9  C   UNK N   1      27.266  22.187  -8.399  0.00  0.00     0.057 A 
HETATM   10  C   UNK N   1      27.772  22.495  -7.141  0.00  0.00     0.045 A 
HETATM   11  N   UNK N   1      27.296  23.423  -6.294  0.00  0.00    -0.356 N 
HETATM   12  C   UNK N   1      28.208  23.483  -5.288  0.00  0.00     0.059 A 
HETATM   13  C   UNK N   1      28.321  24.614  -4.303  0.00  0.00     0.182 A 
HETATM   14  N   UNK N   1      29.684  24.708  -3.728  0.00  0.00    -0.392 N 
HETATM   15  C   UNK N   1      27.983  25.867  -5.073  0.00  0.00     0.013 A 
HETATM   16  C   UNK N   1      28.535  26.308  -6.279  0.00  0.00     0.036 A 
HETATM   17  C   UNK N   1      27.965  27.425  -6.906  0.00  0.00     0.034 A 
HETATM   18  C   UNK N   1      26.871  28.091  -6.312  0.00  0.00     0.026 A 
HETATM   19  C   UNK N   1      26.336  27.632  -5.096  0.00  0.00     0.032 A 
HETATM   20  C   UNK N   1      26.911  26.506  -4.511  0.00  0.00     0.044 A 
HETATM   21  N   UNK N   1      26.466  25.834  -3.378  0.00  0.00    -0.324 N 
HETATM   22  C   UNK N   1      27.234  24.734  -3.236  0.00  0.00     0.261 A 
HETATM   23  O   UNK N   1      27.063  23.938  -2.330  0.00  0.00    -0.270 OA
HETATM   24 Cl   UNK N   1      28.562  27.938  -8.469  0.00  0.00    -0.084 Cl
HETATM   25 Cl   UNK N   1      27.438  20.938 -10.821  0.00  0.00    -0.081 Cl
HETATM   26  F   UNK N   1      29.908  19.860  -9.490  0.00  0.00    -0.204 F 
HETATM   27  H   UNK N   1      26.467  23.947  -6.384  0.00  0.00     0.166 HD
HETATM   28  H   UNK N   1      30.149  25.600  -3.564  0.00  0.00     0.155 HD
HETATM   29  H   UNK N   1      25.727  26.110  -2.789  0.00  0.00     0.169 HD
ENDROOT
TORSDOF 0
ENDMDL
MODEL 4
REMARK VINA RESULT:      -7.7     21.463     24.292
REMARK  0 active torsions:
REMARK  status: ('A' for Active; 'I' for Inactive)
ROOT
HETATM    1  C   UNK N   1      30.332  29.835  -2.594  0.00  0.00     0.032 C 
HETATM    2  C   UNK N   1      30.384  29.267  -4.002  0.00  0.00     0.078 C 
HETATM    3  C   UNK N   1      31.184  27.954  -4.070  0.00  0.00     0.066 C 
HETATM    4  C   UNK N   1      30.290  26.782  -3.833  0.00  0.00    -0.018 A 
HETATM    5  C   UNK N   1      30.589  25.444  -3.849  0.00  0.00     0.002 A 
HETATM    6  C   UNK N   1      31.788  24.775  -4.064  0.00  0.00     0.058 A 
HETATM    7  C   UNK N   1      31.743  23.373  -4.186  0.00  0.00     0.139 A 
HETATM    8  C   UNK N   1      30.507  22.685  -4.088  0.00  0.00     0.074 A 
HETATM    9  C   UNK N   1      29.316  23.392  -3.845  0.00  0.00     0.057 A 
HETATM   10  C   UNK N   1      29.397  24.776  -3.729  0.00  0.00     0.045 A 
HETATM   11  N   UNK N   1      28.366  25.631  -3.634  0.00  0.00    -0.356 N 
HETATM   12  C   UNK N   1      28.923  26.868  -3.721  0.00  0.00     0.059 A 
HETATM   13  C   UNK N   1      28.164  28.128  -4.036  0.00  0.00     0.182 A 
HETATM   14  N   UNK N   1      29.044  29.167  -4.621  0.00  0.00    -0.392 N 
HETATM   15  C   UNK N   1      27.091  27.727  -5.018  0.00  0.00     0.013 A 
HETATM   16  C   UNK N   1      27.243  27.022  -6.215  0.00  0.00     0.036 A 
HETATM   17  C   UNK N   1      26.090  26.616  -6.903  0.00  0.00     0.034 A 
HETATM   18  C   UNK N   1      24.813  26.937  -6.397  0.00  0.00     0.026 A 
HETATM   19  C   UNK N   1      24.684  27.653  -5.193  0.00  0.00     0.032 A 
HETATM   20  C   UNK N   1      25.849  28.020  -4.523  0.00  0.00     0.044 A 
HETATM   21  N   UNK N   1      25.938  28.629  -3.276  0.00  0.00    -0.324 N 
HETATM   22  C   UNK N   1      27.246  28.690  -2.952  0.00  0.00     0.261 A 
HETATM   23  O   UNK N   1      27.630  29.163  -1.897  0.00  0.00    -0.270 OA
HETATM   24 Cl   UNK N   1      26.243  25.640  -8.347  0.00  0.00    -0.084 Cl
HETATM   25 Cl   UNK N   1      30.437  20.949  -4.321  0.00  0.00    -0.081 Cl
HETATM   26  F   UNK N   1      32.886  22.689  -4.438  0.00  0.00    -0.204 F 
HETATM   27  H   UNK N   1      27.412  25.410  -3.525  0.00  0.00     0.166 HD
HETATM   28  H   UNK N   1      28.747  29.766  -5.390  0.00  0.00     0.155 HD
HETATM   29  H   UNK N   1      25.186  28.954  -2.731  0.00  0.00     0.169 HD
ENDROOT
TORSDOF 0
ENDMDL
MODEL 5
REMARK VINA RESULT:      -7.5      4.020      6.605
REMARK  0 active torsions:
REMARK  status: ('A' for Active; 'I' for Inactive)
ROOT
HETATM    1  C   UNK N   1      35.216  14.206  12.301  0.00  0.00     0.032 C 
HETATM    2  C   UNK N   1      36.441  13.980  13.170  0.00  0.00     0.078 C 
HETATM    3  C   UNK N   1      36.112  14.061  14.671  0.00  0.00     0.066 C 
HETATM    4  C   UNK N   1      35.725  12.720  15.197  0.00  0.00    -0.018 A 
HETATM    5  C   UNK N   1      35.401  12.348  16.477  0.00  0.00     0.002 A 
HETATM    6  C   UNK N   1      35.313  13.086  17.651  0.00  0.00     0.058 A 
HETATM    7  C   UNK N   1      35.117  12.381  18.855  0.00  0.00     0.139 A 
HETATM    8  C   UNK N   1      35.015  10.967  18.848  0.00  0.00     0.074 A 
HETATM    9  C   UNK N   1      35.084  10.254  17.637  0.00  0.00     0.057 A 
HETATM   10  C   UNK N   1      35.276  10.982  16.467  0.00  0.00     0.045 A 
HETATM   11  N   UNK N   1      35.503  10.480  15.243  0.00  0.00    -0.356 N 
HETATM   12  C   UNK N   1      35.801  11.557  14.469  0.00  0.00     0.059 A 
HETATM   13  C   UNK N   1      36.483  11.485  13.130  0.00  0.00     0.182 A 
HETATM   14  N   UNK N   1      37.178  12.751  12.799  0.00  0.00    -0.392 N 
HETATM   15  C   UNK N   1      37.471  10.349  13.231  0.00  0.00     0.013 A 
HETATM   16  C   UNK N   1      38.449  10.146  14.207  0.00  0.00     0.036 A 
HETATM   17  C   UNK N   1      39.160   8.937  14.201  0.00  0.00     0.034 A 
HETATM   18  C   UNK N   1      38.898   7.966  13.212  0.00  0.00     0.026 A 
HETATM   19  C   UNK N   1      37.912   8.194  12.235  0.00  0.00     0.032 A 
HETATM   20  C   UNK N   1      37.208   9.395  12.284  0.00  0.00     0.044 A 
HETATM   21  N   UNK N   1      36.130   9.764  11.487  0.00  0.00    -0.324 N 
HETATM   22  C   UNK N   1      35.673  10.945  11.952  0.00  0.00     0.261 A 
HETATM   23  O   UNK N   1      34.715  11.510  11.455  0.00  0.00    -0.270 OA
HETATM   24 Cl   UNK N   1      40.315   8.607  15.473  0.00  0.00    -0.084 Cl
HETATM   25 Cl   UNK N   1      34.855  10.082  20.353  0.00  0.00    -0.081 Cl
HETATM   26  F   UNK N   1      35.067  13.063  20.025  0.00  0.00    -0.204 F 
HETATM   27  H   UNK N   1      35.463   9.535  14.966  0.00  0.00     0.166 HD
HETATM   28  H   UNK N   1      38.093  12.773  12.351  0.00  0.00     0.155 HD
HETATM   29  H   UNK N   1      35.768   9.257  10.725  0.00  0.00     0.169 HD
ENDROOT
TORSDOF 0
ENDMDL
MODEL 6
REMARK VINA RESULT:      -7.4     13.703     15.687
REMARK  0 active torsions:
REMARK  status: ('A' for Active; 'I' for Inactive)
ROOT
HETATM    1  C   UNK N   1      22.684  11.693  11.378  0.00  0.00     0.032 C 
HETATM    2  C   UNK N   1      23.552  12.395  10.348  0.00  0.00     0.078 C 
HETATM    3  C   UNK N   1      23.926  11.469   9.176  0.00  0.00     0.066 C 
HETATM    4  C   UNK N   1      22.903  11.553   8.094  0.00  0.00    -0.018 A 
HETATM    5  C   UNK N   1      22.876  10.929   6.872  0.00  0.00     0.002 A 
HETATM    6  C   UNK N   1      23.758  10.032   6.282  0.00  0.00     0.058 A 
HETATM    7  C   UNK N   1      23.542   9.693   4.932  0.00  0.00     0.139 A 
HETATM    8  C   UNK N   1      22.455  10.258   4.218  0.00  0.00     0.074 A 
HETATM    9  C   UNK N   1      21.568  11.144   4.854  0.00  0.00     0.057 A 
HETATM   10  C   UNK N   1      21.810  11.455   6.188  0.00  0.00     0.045 A 
HETATM   11  N   UNK N   1      21.165  12.376   6.923  0.00  0.00    -0.356 N 
HETATM   12  C   UNK N   1      21.858  12.446   8.090  0.00  0.00     0.059 A 
HETATM   13  C   UNK N   1      21.759  13.576   9.078  0.00  0.00     0.182 A 
HETATM   14  N   UNK N   1      22.979  13.687   9.910  0.00  0.00    -0.392 N 
HETATM   15  C   UNK N   1      21.564  14.826   8.255  0.00  0.00     0.013 A 
HETATM   16  C   UNK N   1      22.338  15.277   7.182  0.00  0.00     0.036 A 
HETATM   17  C   UNK N   1      21.887  16.388   6.453  0.00  0.00     0.034 A 
HETATM   18  C   UNK N   1      20.690  17.037   6.819  0.00  0.00     0.026 A 
HETATM   19  C   UNK N   1      19.930  16.569   7.906  0.00  0.00     0.032 A 
HETATM   20  C   UNK N   1      20.393  15.450   8.593  0.00  0.00     0.044 A 
HETATM   21  N   UNK N   1      19.741  14.770   9.616  0.00  0.00    -0.324 N 
HETATM   22  C   UNK N   1      20.480  13.679   9.908  0.00  0.00     0.261 A 
HETATM   23  O   UNK N   1      20.144  12.879  10.762  0.00  0.00    -0.270 OA
HETATM   24 Cl   UNK N   1      22.776  16.912   5.040  0.00  0.00    -0.084 Cl
HETATM   25 Cl   UNK N   1      22.232   9.902   2.515  0.00  0.00    -0.081 Cl
HETATM   26  F   UNK N   1      24.404   8.854   4.310  0.00  0.00    -0.204 F 
HETATM   27  H   UNK N   1      20.363  12.889   6.671  0.00  0.00     0.166 HD
HETATM   28  H   UNK N   1      23.391  14.585  10.163  0.00  0.00     0.155 HD
HETATM   29  H   UNK N   1      18.897  15.035  10.047  0.00  0.00     0.169 HD
ENDROOT
TORSDOF 0
ENDMDL
MODEL 7
REMARK VINA RESULT:      -7.4     10.320     13.076
REMARK  0 active torsions:
REMARK  status: ('A' for Active; 'I' for Inactive)
ROOT
HETATM    1  C   UNK N   1      31.024  15.829   7.269  0.00  0.00     0.032 C 
HETATM    2  C   UNK N   1      30.753  16.404   5.890  0.00  0.00     0.078 C 
HETATM    3  C   UNK N   1      30.016  15.407   4.978  0.00  0.00     0.066 C 
HETATM    4  C   UNK N   1      28.539  15.555   5.123  0.00  0.00    -0.018 A 
HETATM    5  C   UNK N   1      27.530  14.896   4.468  0.00  0.00     0.002 A 
HETATM    6  C   UNK N   1      27.564  13.895   3.504  0.00  0.00     0.058 A 
HETATM    7  C   UNK N   1      26.348  13.534   2.893  0.00  0.00     0.139 A 
HETATM    8  C   UNK N   1      25.141  14.179   3.263  0.00  0.00     0.074 A 
HETATM    9  C   UNK N   1      25.140  15.170   4.260  0.00  0.00     0.057 A 
HETATM   10  C   UNK N   1      26.359  15.502   4.844  0.00  0.00     0.045 A 
HETATM   11  N   UNK N   1      26.583  16.507   5.706  0.00  0.00    -0.356 N 
HETATM   12  C   UNK N   1      27.934  16.547   5.857  0.00  0.00     0.059 A 
HETATM   13  C   UNK N   1      28.697  17.715   6.420  0.00  0.00     0.182 A 
HETATM   14  N   UNK N   1      30.101  17.732   5.948  0.00  0.00    -0.392 N 
HETATM   15  C   UNK N   1      27.966  18.949   5.951  0.00  0.00     0.013 A 
HETATM   16  C   UNK N   1      27.596  19.283   4.646  0.00  0.00     0.036 A 
HETATM   17  C   UNK N   1      26.780  20.408   4.449  0.00  0.00     0.034 A 
HETATM   18  C   UNK N   1      26.368  21.186   5.551  0.00  0.00     0.026 A 
HETATM   19  C   UNK N   1      26.758  20.833   6.856  0.00  0.00     0.032 A 
HETATM   20  C   UNK N   1      27.547  19.698   7.018  0.00  0.00     0.044 A 
HETATM   21  N   UNK N   1      27.944  19.122   8.220  0.00  0.00    -0.324 N 
HETATM   22  C   UNK N   1      28.587  17.974   7.922  0.00  0.00     0.261 A 
HETATM   23  O   UNK N   1      29.037  17.241   8.784  0.00  0.00    -0.270 OA
HETATM   24 Cl   UNK N   1      26.211  20.791   2.839  0.00  0.00    -0.084 Cl
HETATM   25 Cl   UNK N   1      23.640  13.789   2.444  0.00  0.00    -0.081 Cl
HETATM   26  F   UNK N   1      26.347  12.591   1.919  0.00  0.00    -0.204 F 
HETATM   27  H   UNK N   1      25.915  17.088   6.136  0.00  0.00     0.166 HD
HETATM   28  H   UNK N   1      30.581  18.592   5.685  0.00  0.00     0.155 HD
HETATM   29  H   UNK N   1      27.785  19.485   9.121  0.00  0.00     0.169 HD
ENDROOT
TORSDOF 0
ENDMDL
MODEL 8
REMARK VINA RESULT:      -7.3     12.134     14.379
REMARK  0 active torsions:
REMARK  status: ('A' for Active; 'I' for Inactive)
ROOT
HETATM    1  C   UNK N   1      30.520  14.922   3.995  0.00  0.00     0.032 C 
HETATM    2  C   UNK N   1      29.882  15.845   2.972  0.00  0.00     0.078 C 
HETATM    3  C   UNK N   1      28.708  15.174   2.236  0.00  0.00     0.066 C 
HETATM    4  C   UNK N   1      27.428  15.407   2.965  0.00  0.00    -0.018 A 
HETATM    5  C   UNK N   1      26.154  15.021   2.632  0.00  0.00     0.002 A 
HETATM    6  C   UNK N   1      25.671  14.294   1.552  0.00  0.00     0.058 A 
HETATM    7  C   UNK N   1      24.273  14.202   1.397  0.00  0.00     0.139 A 
HETATM    8  C   UNK N   1      23.407  14.836   2.324  0.00  0.00     0.074 A 
HETATM    9  C   UNK N   1      23.933  15.542   3.421  0.00  0.00     0.057 A 
HETATM   10  C   UNK N   1      25.317  15.612   3.544  0.00  0.00     0.045 A 
HETATM   11  N   UNK N   1      26.003  16.346   4.434  0.00  0.00    -0.356 N 
HETATM   12  C   UNK N   1      27.305  16.232   4.057  0.00  0.00     0.059 A 
HETATM   13  C   UNK N   1      28.408  17.153   4.503  0.00  0.00     0.182 A 
HETATM   14  N   UNK N   1      29.534  17.166   3.540  0.00  0.00    -0.392 N 
HETATM   15  C   UNK N   1      27.784  18.523   4.608  0.00  0.00     0.013 A 
HETATM   16  C   UNK N   1      27.039  19.203   3.642  0.00  0.00     0.036 A 
HETATM   17  C   UNK N   1      26.415  20.406   4.003  0.00  0.00     0.034 A 
HETATM   18  C   UNK N   1      26.562  20.917   5.310  0.00  0.00     0.026 A 
HETATM   19  C   UNK N   1      27.322  20.217   6.265  0.00  0.00     0.032 A 
HETATM   20  C   UNK N   1      27.908  19.014   5.880  0.00  0.00     0.044 A 
HETATM   21  N   UNK N   1      28.599  18.124   6.695  0.00  0.00    -0.324 N 
HETATM   22  C   UNK N   1      28.884  17.036   5.950  0.00  0.00     0.261 A 
HETATM   23  O   UNK N   1      29.477  16.075   6.408  0.00  0.00    -0.270 OA
HETATM   24 Cl   UNK N   1      25.387  21.227   2.849  0.00  0.00    -0.084 Cl
HETATM   25 Cl   UNK N   1      21.671  14.792   2.088  0.00  0.00    -0.081 Cl
HETATM   26  F   UNK N   1      23.764  13.537   0.333  0.00  0.00    -0.204 F 
HETATM   27  H   UNK N   1      25.642  16.857   5.195  0.00  0.00     0.166 HD
HETATM   28  H   UNK N   1      30.031  18.021   3.290  0.00  0.00     0.155 HD
HETATM   29  H   UNK N   1      28.835  18.262   7.640  0.00  0.00     0.169 HD
ENDROOT
TORSDOF 0
ENDMDL
MODEL 9
REMARK VINA RESULT:      -7.2     15.820     18.497
REMARK  0 active torsions:
REMARK  status: ('A' for Active; 'I' for Inactive)
ROOT
HETATM    1  C   UNK N   1      42.806  20.526   3.205  0.00  0.00     0.032 C 
HETATM    2  C   UNK N   1      43.115  20.655   1.724  0.00  0.00     0.078 C 
HETATM    3  C   UNK N   1      41.843  20.858   0.881  0.00  0.00     0.066 C 
HETATM    4  C   UNK N   1      41.527  22.311   0.749  0.00  0.00    -0.018 A 
HETATM    5  C   UNK N   1      40.515  22.921   0.053  0.00  0.00     0.002 A 
HETATM    6  C   UNK N   1      39.481  22.393  -0.711  0.00  0.00     0.058 A 
HETATM    7  C   UNK N   1      38.687  23.293  -1.449  0.00  0.00     0.139 A 
HETATM    8  C   UNK N   1      38.950  24.685  -1.400  0.00  0.00     0.074 A 
HETATM    9  C   UNK N   1      39.990  25.186  -0.597  0.00  0.00     0.057 A 
HETATM   10  C   UNK N   1      40.753  24.270   0.120  0.00  0.00     0.045 A 
HETATM   11  N   UNK N   1      41.863  24.535   0.828  0.00  0.00    -0.356 N 
HETATM   12  C   UNK N   1      42.347  23.320   1.195  0.00  0.00     0.059 A 
HETATM   13  C   UNK N   1      43.750  23.068   1.675  0.00  0.00     0.182 A 
HETATM   14  N   UNK N   1      44.163  21.662   1.450  0.00  0.00    -0.392 N 
HETATM   15  C   UNK N   1      44.630  24.010   0.890  0.00  0.00     0.013 A 
HETATM   16  C   UNK N   1      44.687  24.177  -0.496  0.00  0.00     0.036 A 
HETATM   17  C   UNK N   1      45.465  25.224  -1.011  0.00  0.00     0.034 A 
HETATM   18  C   UNK N   1      46.185  26.069  -0.140  0.00  0.00     0.026 A 
HETATM   19  C   UNK N   1      46.116  25.878   1.252  0.00  0.00     0.032 A 
HETATM   20  C   UNK N   1      45.315  24.844   1.732  0.00  0.00     0.044 A 
HETATM   21  N   UNK N   1      45.028  24.560   3.062  0.00  0.00    -0.324 N 
HETATM   22  C   UNK N   1      44.119  23.563   3.072  0.00  0.00     0.261 A 
HETATM   23  O   UNK N   1      43.664  23.112   4.108  0.00  0.00    -0.270 OA
HETATM   24 Cl   UNK N   1      45.474  25.527  -2.735  0.00  0.00    -0.084 Cl
HETATM   25 Cl   UNK N   1      38.017  25.798  -2.382  0.00  0.00    -0.081 Cl
HETATM   26  F   UNK N   1      37.696  22.813  -2.238  0.00  0.00    -0.204 F 
HETATM   27  H   UNK N   1      42.243  25.420   1.036  0.00  0.00     0.166 HD
HETATM   28  H   UNK N   1      45.098  21.410   1.131  0.00  0.00     0.155 HD
HETATM   29  H   UNK N   1      45.414  25.005   3.850  0.00  0.00     0.169 HD
ENDROOT
TORSDOF 0
ENDMDL
