MODEL 1
REMARK VINA RESULT:      -7.1      0.000      0.000
REMARK  6 active torsions:
REMARK  status: ('A' for Active; 'I' for Inactive)
REMARK    1  A    between atoms: C_10  and  O_21 
REMARK    2  A    between atoms: O_26  and  C_11 
REMARK    3  A    between atoms: N_20  and  C_13 
REMARK    4  A    between atoms: N_18  and  C_14 
REMARK    5  A    between atoms: O_26  and  C_16 
REMARK    6  A    between atoms: S_27  and  N_20 
ROOT
HETATM    1  C   UNK N   1      25.271  19.152   3.980  0.00  0.00     0.058 A 
HETATM    2  C   UNK N   1      23.619  17.260   5.167  0.00  0.00     0.071 A 
HETATM    3  C   UNK N   1      21.141  19.267   3.548  0.00  0.00     0.176 A 
HETATM    4  C   UNK N   1      23.880  19.233   3.802  0.00  0.00     0.053 A 
HETATM    5  C   UNK N   1      25.004  17.159   5.349  0.00  0.00     0.079 A 
HETATM    6  C   UNK N   1      21.865  20.265   2.885  0.00  0.00     0.107 A 
HETATM    7  C   UNK N   1      23.055  18.277   4.412  0.00  0.00     0.091 A 
HETATM    8  C   UNK N   1      25.866  18.132   4.747  0.00  0.00     0.104 A 
HETATM    9  C   UNK N   1      23.283  20.242   3.023  0.00  0.00     0.213 A 
HETATM   10  O   UNK N   1      23.993  21.071   2.485  0.00  0.00    -0.285 OA
HETATM   11  O   UNK N   1      21.740  18.330   4.270  0.00  0.00    -0.319 OA
ENDROOT
BRANCH   8  12
HETATM   12  O   UNK N   1      27.236  18.172   4.823  0.00  0.00    -0.308 OA
BRANCH  12  13
HETATM   13  C   UNK N   1      28.219  18.013   5.759  0.00  0.00     0.076 A 
HETATM   14  C   UNK N   1      28.123  18.467   7.078  0.00  0.00     0.037 A 
HETATM   15  C   UNK N   1      29.160  18.269   7.993  0.00  0.00     0.003 A 
HETATM   16  C   UNK N   1      30.320  17.606   7.594  0.00  0.00     0.000 A 
HETATM   17  C   UNK N   1      30.437  17.146   6.281  0.00  0.00     0.003 A 
HETATM   18  C   UNK N   1      29.391  17.350   5.371  0.00  0.00     0.037 A 
ENDBRANCH  12  13
ENDBRANCH   8  12
BRANCH   5  19
HETATM   19  N   UNK N   1      25.495  16.082   6.120  0.00  0.00    -0.282 N 
HETATM   20  H   UNK N   1      26.425  16.121   6.439  0.00  0.00     0.178 HD
BRANCH  19  21
HETATM   21  S   UNK N   1      24.521  14.679   6.540  0.00  0.00     0.227 S 
HETATM   22  C   UNK N   1      25.145  12.989   6.737  0.00  0.00     0.186 C 
HETATM   23  O   UNK N   1      25.578  14.624   7.653  0.00  0.00    -0.206 OA
HETATM   24  O   UNK N   1      25.314  14.186   5.321  0.00  0.00    -0.206 OA
ENDBRANCH  19  21
ENDBRANCH   5  19
BRANCH   6  25
HETATM   25  N   UNK N   1      21.084  21.207   2.135  0.00  0.00    -0.343 N 
HETATM   26  C   UNK N   1      20.609  21.186   0.931  0.00  0.00     0.223 C 
ATOM     27  HN  UNK N   1      20.860  22.058   2.650  1.00  0.00     0.167 HD
BRANCH  26  28
HETATM   28  O   UNK N   1      20.774  20.164   0.078  0.00  0.00    -0.356 OA
HETATM   29  H   UNK N   1      20.077  19.554  -0.063  0.00  0.00     0.218 HD
ENDBRANCH  26  28
ENDBRANCH   6  25
TORSDOF 6
ENDMDL
MODEL 2
REMARK VINA RESULT:      -7.1      9.995     13.900
REMARK  6 active torsions:
REMARK  status: ('A' for Active; 'I' for Inactive)
REMARK    1  A    between atoms: C_10  and  O_21 
REMARK    2  A    between atoms: O_26  and  C_11 
REMARK    3  A    between atoms: N_20  and  C_13 
REMARK    4  A    between atoms: N_18  and  C_14 
REMARK    5  A    between atoms: O_26  and  C_16 
REMARK    6  A    between atoms: S_27  and  N_20 
ROOT
HETATM    1  C   UNK N   1      35.954  14.788  12.320  0.00  0.00     0.058 A 
HETATM    2  C   UNK N   1      35.389  12.462  10.909  0.00  0.00     0.071 A 
HETATM    3  C   UNK N   1      34.186  14.878   8.563  0.00  0.00     0.176 A 
HETATM    4  C   UNK N   1      35.357  14.871  11.051  0.00  0.00     0.053 A 
HETATM    5  C   UNK N   1      35.991  12.360  12.170  0.00  0.00     0.079 A 
HETATM    6  C   UNK N   1      34.438  16.117   9.162  0.00  0.00     0.107 A 
HETATM    7  C   UNK N   1      35.069  13.690  10.351  0.00  0.00     0.091 A 
HETATM    8  C   UNK N   1      36.282  13.551  12.909  0.00  0.00     0.104 A 
HETATM    9  C   UNK N   1      35.043  16.106  10.452  0.00  0.00     0.213 A 
HETATM   10  O   UNK N   1      35.296  17.135  11.051  0.00  0.00    -0.285 OA
HETATM   11  O   UNK N   1      34.501  13.735   9.157  0.00  0.00    -0.319 OA
ENDROOT
BRANCH   8  12
HETATM   12  O   UNK N   1      36.872  13.625  14.147  0.00  0.00    -0.308 OA
BRANCH  12  13
HETATM   13  C   UNK N   1      36.551  14.018  15.416  0.00  0.00     0.076 A 
HETATM   14  C   UNK N   1      37.125  15.117  16.063  0.00  0.00     0.037 A 
HETATM   15  C   UNK N   1      36.751  15.474  17.361  0.00  0.00     0.003 A 
HETATM   16  C   UNK N   1      35.786  14.726  18.036  0.00  0.00     0.000 A 
HETATM   17  C   UNK N   1      35.202  13.625  17.408  0.00  0.00     0.003 A 
HETATM   18  C   UNK N   1      35.584  13.275  16.107  0.00  0.00     0.037 A 
ENDBRANCH  12  13
ENDBRANCH   8  12
BRANCH   5  19
HETATM   19  N   UNK N   1      36.297  11.070  12.656  0.00  0.00    -0.282 N 
HETATM   20  H   UNK N   1      37.092  10.612  12.300  0.00  0.00     0.178 HD
BRANCH  19  21
HETATM   21  S   UNK N   1      35.325  10.245  13.868  0.00  0.00     0.227 S 
HETATM   22  C   UNK N   1      35.688   8.616  14.575  0.00  0.00     0.186 C 
HETATM   23  O   UNK N   1      36.691  10.258  14.571  0.00  0.00    -0.206 OA
HETATM   24  O   UNK N   1      35.525   9.159  12.801  0.00  0.00    -0.206 OA
ENDBRANCH  19  21
ENDBRANCH   5  19
BRANCH   6  25
HETATM   25  N   UNK N   1      34.051  17.269   8.398  0.00  0.00    -0.343 N 
HETATM   26  C   UNK N   1      32.939  17.924   8.306  0.00  0.00     0.223 C 
ATOM     27  HN  UNK N   1      34.799  17.644   7.813  1.00  0.00     0.167 HD
BRANCH  26  28
HETATM   28  O   UNK N   1      31.828  17.613   8.990  0.00  0.00    -0.356 OA
HETATM   29  H   UNK N   1      31.030  18.077   8.823  0.00  0.00     0.218 HD
ENDBRANCH  26  28
ENDBRANCH   6  25
TORSDOF 6
ENDMDL
MODEL 3
REMARK VINA RESULT:      -7.0      3.317      6.976
REMARK  6 active torsions:
REMARK  status: ('A' for Active; 'I' for Inactive)
REMARK    1  A    between atoms: C_10  and  O_21 
REMARK    2  A    between atoms: O_26  and  C_11 
REMARK    3  A    between atoms: N_20  and  C_13 
REMARK    4  A    between atoms: N_18  and  C_14 
REMARK    5  A    between atoms: O_26  and  C_16 
REMARK    6  A    between atoms: S_27  and  N_20 
ROOT
HETATM    1  C   UNK N   1      23.179  15.928   6.039  0.00  0.00     0.058 A 
HETATM    2  C   UNK N   1      20.900  17.463   6.450  0.00  0.00     0.071 A 
HETATM    3  C   UNK N   1      20.334  14.909   8.888  0.00  0.00     0.176 A 
HETATM    4  C   UNK N   1      22.247  15.543   7.017  0.00  0.00     0.053 A 
HETATM    5  C   UNK N   1      21.822  17.867   5.475  0.00  0.00     0.079 A 
HETATM    6  C   UNK N   1      21.448  14.067   8.790  0.00  0.00     0.107 A 
HETATM    7  C   UNK N   1      21.097  16.321   7.210  0.00  0.00     0.091 A 
HETATM    8  C   UNK N   1      22.998  17.081   5.250  0.00  0.00     0.104 A 
HETATM    9  C   UNK N   1      22.434  14.400   7.817  0.00  0.00     0.213 A 
HETATM   10  O   UNK N   1      23.433  13.724   7.660  0.00  0.00    -0.285 OA
HETATM   11  O   UNK N   1      20.197  15.980   8.118  0.00  0.00    -0.319 OA
ENDROOT
BRANCH   8  12
HETATM   12  O   UNK N   1      23.996  17.340   4.344  0.00  0.00    -0.308 OA
BRANCH  12  13
HETATM   13  C   UNK N   1      25.070  18.175   4.208  0.00  0.00     0.076 A 
HETATM   14  C   UNK N   1      24.992  19.470   3.689  0.00  0.00     0.037 A 
HETATM   15  C   UNK N   1      26.126  20.280   3.581  0.00  0.00     0.003 A 
HETATM   16  C   UNK N   1      27.366  19.797   3.998  0.00  0.00     0.000 A 
HETATM   17  C   UNK N   1      27.465  18.506   4.518  0.00  0.00     0.003 A 
HETATM   18  C   UNK N   1      26.323  17.702   4.622  0.00  0.00     0.037 A 
ENDBRANCH  12  13
ENDBRANCH   8  12
BRANCH   5  19
HETATM   19  N   UNK N   1      21.551  19.052   4.757  0.00  0.00    -0.282 N 
HETATM   20  H   UNK N   1      22.007  19.880   5.030  0.00  0.00     0.178 HD
BRANCH  19  21
HETATM   21  S   UNK N   1      20.439  19.117   3.396  0.00  0.00     0.227 S 
HETATM   22  C   UNK N   1      20.465  20.359   2.076  0.00  0.00     0.186 C 
HETATM   23  O   UNK N   1      21.782  19.081   2.653  0.00  0.00    -0.206 OA
HETATM   24  O   UNK N   1      20.405  20.558   3.927  0.00  0.00    -0.206 OA
ENDBRANCH  19  21
ENDBRANCH   5  19
BRANCH   6  25
HETATM   25  N   UNK N   1      21.466  12.951   9.694  0.00  0.00    -0.343 N 
HETATM   26  C   UNK N   1      22.366  12.498  10.505  0.00  0.00     0.223 C 
ATOM     27  HN  UNK N   1      20.601  12.409   9.695  1.00  0.00     0.167 HD
BRANCH  26  28
HETATM   28  O   UNK N   1      23.574  13.057  10.672  0.00  0.00    -0.356 OA
HETATM   29  H   UNK N   1      24.349  12.547  10.537  0.00  0.00     0.218 HD
ENDBRANCH  26  28
ENDBRANCH   6  25
TORSDOF 6
ENDMDL
MODEL 4
REMARK VINA RESULT:      -7.0      7.343     12.092
REMARK  6 active torsions:
REMARK  status: ('A' for Active; 'I' for Inactive)
REMARK    1  A    between atoms: C_10  and  O_21 
REMARK    2  A    between atoms: O_26  and  C_11 
REMARK    3  A    between atoms: N_20  and  C_13 
REMARK    4  A    between atoms: N_18  and  C_14 
REMARK    5  A    between atoms: O_26  and  C_16 
REMARK    6  A    between atoms: S_27  and  N_20 
ROOT
HETATM    1  C   UNK N   1      33.555  16.122   9.174  0.00  0.00     0.058 A 
HETATM    2  C   UNK N   1      35.027  15.300   6.967  0.00  0.00     0.071 A 
HETATM    3  C   UNK N   1      36.499  13.207   9.465  0.00  0.00     0.176 A 
HETATM    4  C   UNK N   1      34.539  15.131   9.324  0.00  0.00     0.053 A 
HETATM    5  C   UNK N   1      34.045  16.284   6.797  0.00  0.00     0.079 A 
HETATM    6  C   UNK N   1      35.814  13.521  10.644  0.00  0.00     0.107 A 
HETATM    7  C   UNK N   1      35.281  14.729   8.204  0.00  0.00     0.091 A 
HETATM    8  C   UNK N   1      33.284  16.721   7.929  0.00  0.00     0.104 A 
HETATM    9  C   UNK N   1      34.801  14.520  10.564  0.00  0.00     0.213 A 
HETATM   10  O   UNK N   1      34.156  14.859  11.539  0.00  0.00    -0.285 OA
HETATM   11  O   UNK N   1      36.220  13.802   8.313  0.00  0.00    -0.319 OA
ENDROOT
BRANCH   8  12
HETATM   12  O   UNK N   1      32.287  17.666   7.932  0.00  0.00    -0.308 OA
BRANCH  12  13
HETATM   13  C   UNK N   1      30.941  17.739   8.161  0.00  0.00     0.076 A 
HETATM   14  C   UNK N   1      30.367  18.440   9.226  0.00  0.00     0.037 A 
HETATM   15  C   UNK N   1      28.982  18.483   9.405  0.00  0.00     0.003 A 
HETATM   16  C   UNK N   1      28.145  17.818   8.509  0.00  0.00     0.000 A 
HETATM   17  C   UNK N   1      28.699  17.112   7.440  0.00  0.00     0.003 A 
HETATM   18  C   UNK N   1      30.088  17.074   7.269  0.00  0.00     0.037 A 
ENDBRANCH  12  13
ENDBRANCH   8  12
BRANCH   5  19
HETATM   19  N   UNK N   1      33.841  16.801   5.499  0.00  0.00    -0.282 N 
HETATM   20  H   UNK N   1      34.498  17.441   5.141  0.00  0.00     0.178 HD
BRANCH  19  21
HETATM   21  S   UNK N   1      32.472  16.352   4.490  0.00  0.00     0.227 S 
HETATM   22  C   UNK N   1      32.188  16.921   2.792  0.00  0.00     0.186 C 
HETATM   23  O   UNK N   1      33.635  15.929   3.580  0.00  0.00    -0.206 OA
HETATM   24  O   UNK N   1      32.502  17.882   4.355  0.00  0.00    -0.206 OA
ENDBRANCH  19  21
ENDBRANCH   5  19
BRANCH   6  25
HETATM   25  N   UNK N   1      36.218  12.790  11.812  0.00  0.00    -0.343 N 
HETATM   26  C   UNK N   1      36.641  13.166  12.976  0.00  0.00     0.223 C 
ATOM     27  HN  UNK N   1      36.160  11.777  11.703  1.00  0.00     0.167 HD
BRANCH  26  28
HETATM   28  O   UNK N   1      36.787  14.448  13.342  0.00  0.00    -0.356 OA
HETATM   29  H   UNK N   1      37.260  15.042  12.791  0.00  0.00     0.218 HD
ENDBRANCH  26  28
ENDBRANCH   6  25
TORSDOF 6
ENDMDL
MODEL 5
REMARK VINA RESULT:      -6.9     11.422     14.161
REMARK  6 active torsions:
REMARK  status: ('A' for Active; 'I' for Inactive)
REMARK    1  A    between atoms: C_10  and  O_21 
REMARK    2  A    between atoms: O_26  and  C_11 
REMARK    3  A    between atoms: N_20  and  C_13 
REMARK    4  A    between atoms: N_18  and  C_14 
REMARK    5  A    between atoms: O_26  and  C_16 
REMARK    6  A    between atoms: S_27  and  N_20 
ROOT
HETATM    1  C   UNK N   1      28.731  24.265  -3.599  0.00  0.00     0.058 A 
HETATM    2  C   UNK N   1      28.253  22.898  -5.969  0.00  0.00     0.071 A 
HETATM    3  C   UNK N   1      30.986  20.961  -4.716  0.00  0.00     0.176 A 
HETATM    4  C   UNK N   1      29.520  23.152  -3.931  0.00  0.00     0.053 A 
HETATM    5  C   UNK N   1      27.451  24.001  -5.651  0.00  0.00     0.079 A 
HETATM    6  C   UNK N   1      31.311  21.551  -3.489  0.00  0.00     0.107 A 
HETATM    7  C   UNK N   1      29.275  22.474  -5.134  0.00  0.00     0.091 A 
HETATM    8  C   UNK N   1      27.692  24.718  -4.435  0.00  0.00     0.104 A 
HETATM    9  C   UNK N   1      30.549  22.687  -3.090  0.00  0.00     0.213 A 
HETATM   10  O   UNK N   1      30.763  23.266  -2.042  0.00  0.00    -0.285 OA
HETATM   11  O   UNK N   1      30.005  21.425  -5.479  0.00  0.00    -0.319 OA
ENDROOT
BRANCH   8  12
HETATM   12  O   UNK N   1      26.998  25.810  -3.975  0.00  0.00    -0.308 OA
BRANCH  12  13
HETATM   13  C   UNK N   1      26.955  27.161  -4.179  0.00  0.00     0.076 A 
HETATM   14  C   UNK N   1      26.306  28.060  -3.329  0.00  0.00     0.037 A 
HETATM   15  C   UNK N   1      26.302  29.434  -3.588  0.00  0.00     0.003 A 
HETATM   16  C   UNK N   1      26.956  29.929  -4.715  0.00  0.00     0.000 A 
HETATM   17  C   UNK N   1      27.610  29.047  -5.578  0.00  0.00     0.003 A 
HETATM   18  C   UNK N   1      27.608  27.673  -5.310  0.00  0.00     0.037 A 
ENDBRANCH  12  13
ENDBRANCH   8  12
BRANCH   5  19
HETATM   19  N   UNK N   1      26.423  24.356  -6.551  0.00  0.00    -0.282 N 
HETATM   20  H   UNK N   1      25.614  24.786  -6.192  0.00  0.00     0.178 HD
BRANCH  19  21
HETATM   21  S   UNK N   1      26.522  24.066  -8.283  0.00  0.00     0.227 S 
HETATM   22  C   UNK N   1      25.346  24.680  -9.519  0.00  0.00     0.186 C 
HETATM   23  O   UNK N   1      26.474  25.601  -8.263  0.00  0.00    -0.206 OA
HETATM   24  O   UNK N   1      25.065  23.697  -7.963  0.00  0.00    -0.206 OA
ENDBRANCH  19  21
ENDBRANCH   5  19
BRANCH   6  25
HETATM   25  N   UNK N   1      32.389  20.935  -2.768  0.00  0.00    -0.343 N 
HETATM   26  C   UNK N   1      33.658  20.850  -3.000  0.00  0.00     0.223 C 
ATOM     27  HN  UNK N   1      32.096  20.475  -1.905  1.00  0.00     0.167 HD
BRANCH  26  28
HETATM   28  O   UNK N   1      34.263  21.387  -4.070  0.00  0.00    -0.356 OA
HETATM   29  H   UNK N   1      33.768  21.573  -4.844  0.00  0.00     0.218 HD
ENDBRANCH  26  28
ENDBRANCH   6  25
TORSDOF 6
ENDMDL
MODEL 6
REMARK VINA RESULT:      -6.8      4.498      8.993
REMARK  6 active torsions:
REMARK  status: ('A' for Active; 'I' for Inactive)
REMARK    1  A    between atoms: C_10  and  O_21 
REMARK    2  A    between atoms: O_26  and  C_11 
REMARK    3  A    between atoms: N_20  and  C_13 
REMARK    4  A    between atoms: N_18  and  C_14 
REMARK    5  A    between atoms: O_26  and  C_16 
REMARK    6  A    between atoms: S_27  and  N_20 
ROOT
HETATM    1  C   UNK N   1      30.804  17.384   6.492  0.00  0.00     0.058 A 
HETATM    2  C   UNK N   1      30.579  14.723   5.726  0.00  0.00     0.071 A 
HETATM    3  C   UNK N   1      32.815  14.350   8.492  0.00  0.00     0.176 A 
HETATM    4  C   UNK N   1      31.503  16.394   7.202  0.00  0.00     0.053 A 
HETATM    5  C   UNK N   1      29.869  15.696   5.010  0.00  0.00     0.079 A 
HETATM    6  C   UNK N   1      32.994  15.647   8.986  0.00  0.00     0.107 A 
HETATM    7  C   UNK N   1      31.388  15.055   6.802  0.00  0.00     0.091 A 
HETATM    8  C   UNK N   1      29.982  17.072   5.392  0.00  0.00     0.104 A 
HETATM    9  C   UNK N   1      32.313  16.701   8.312  0.00  0.00     0.213 A 
HETATM   10  O   UNK N   1      32.412  17.860   8.669  0.00  0.00    -0.285 OA
HETATM   11  O   UNK N   1      32.039  14.100   7.446  0.00  0.00    -0.319 OA
ENDROOT
BRANCH   8  12
HETATM   12  O   UNK N   1      29.352  18.141   4.803  0.00  0.00    -0.308 OA
BRANCH  12  13
HETATM   13  C   UNK N   1      28.327  19.005   5.071  0.00  0.00     0.076 A 
HETATM   14  C   UNK N   1      28.010  19.468   6.351  0.00  0.00     0.037 A 
HETATM   15  C   UNK N   1      26.952  20.356   6.562  0.00  0.00     0.003 A 
HETATM   16  C   UNK N   1      26.190  20.798   5.480  0.00  0.00     0.000 A 
HETATM   17  C   UNK N   1      26.490  20.345   4.194  0.00  0.00     0.003 A 
HETATM   18  C   UNK N   1      27.552  19.455   3.993  0.00  0.00     0.037 A 
ENDBRANCH  12  13
ENDBRANCH   8  12
BRANCH   5  19
HETATM   19  N   UNK N   1      29.057  15.269   3.937  0.00  0.00    -0.282 N 
HETATM   20  H   UNK N   1      29.495  14.989   3.102  0.00  0.00     0.178 HD
BRANCH  19  21
HETATM   21  S   UNK N   1      27.301  15.210   4.026  0.00  0.00     0.227 S 
HETATM   22  C   UNK N   1      26.198  14.704   2.679  0.00  0.00     0.186 C 
HETATM   23  O   UNK N   1      27.604  13.767   3.599  0.00  0.00    -0.206 OA
HETATM   24  O   UNK N   1      27.547  15.987   2.723  0.00  0.00    -0.206 OA
ENDBRANCH  19  21
ENDBRANCH   5  19
BRANCH   6  25
HETATM   25  N   UNK N   1      33.854  15.765  10.129  0.00  0.00    -0.343 N 
HETATM   26  C   UNK N   1      34.836  16.560  10.405  0.00  0.00     0.223 C 
ATOM     27  HN  UNK N   1      33.652  15.090  10.867  1.00  0.00     0.167 HD
BRANCH  26  28
HETATM   28  O   UNK N   1      35.269  17.529   9.585  0.00  0.00    -0.356 OA
HETATM   29  H   UNK N   1      35.769  17.310   8.822  0.00  0.00     0.218 HD
ENDBRANCH  26  28
ENDBRANCH   6  25
TORSDOF 6
ENDMDL
MODEL 7
REMARK VINA RESULT:      -6.5     11.388     13.073
REMARK  6 active torsions:
REMARK  status: ('A' for Active; 'I' for Inactive)
REMARK    1  A    between atoms: C_10  and  O_21 
REMARK    2  A    between atoms: O_26  and  C_11 
REMARK    3  A    between atoms: N_20  and  C_13 
REMARK    4  A    between atoms: N_18  and  C_14 
REMARK    5  A    between atoms: O_26  and  C_16 
REMARK    6  A    between atoms: S_27  and  N_20 
ROOT
HETATM    1  C   UNK N   1      28.268  25.939  -4.431  0.00  0.00     0.058 A 
HETATM    2  C   UNK N   1      25.553  26.193  -4.963  0.00  0.00     0.071 A 
HETATM    3  C   UNK N   1      26.203  29.458  -3.656  0.00  0.00     0.176 A 
HETATM    4  C   UNK N   1      27.615  27.151  -4.153  0.00  0.00     0.053 A 
HETATM    5  C   UNK N   1      26.189  24.979  -5.254  0.00  0.00     0.079 A 
HETATM    6  C   UNK N   1      27.572  29.461  -3.363  0.00  0.00     0.107 A 
HETATM    7  C   UNK N   1      26.243  27.266  -4.418  0.00  0.00     0.091 A 
HETATM    8  C   UNK N   1      27.587  24.834  -4.978  0.00  0.00     0.104 A 
HETATM    9  C   UNK N   1      28.296  28.262  -3.621  0.00  0.00     0.213 A 
HETATM   10  O   UNK N   1      29.489  28.172  -3.395  0.00  0.00    -0.285 OA
HETATM   11  O   UNK N   1      25.597  28.392  -4.161  0.00  0.00    -0.319 OA
ENDROOT
BRANCH   8  12
HETATM   12  O   UNK N   1      28.357  23.720  -5.208  0.00  0.00    -0.308 OA
BRANCH  12  13
HETATM   13  C   UNK N   1      29.298  22.970  -4.560  0.00  0.00     0.076 A 
HETATM   14  C   UNK N   1      29.953  21.875  -5.131  0.00  0.00     0.037 A 
HETATM   15  C   UNK N   1      30.912  21.149  -4.419  0.00  0.00     0.003 A 
HETATM   16  C   UNK N   1      31.231  21.516  -3.112  0.00  0.00     0.000 A 
HETATM   17  C   UNK N   1      30.586  22.606  -2.524  0.00  0.00     0.003 A 
HETATM   18  C   UNK N   1      29.626  23.326  -3.245  0.00  0.00     0.037 A 
ENDBRANCH  12  13
ENDBRANCH   8  12
BRANCH   5  19
HETATM   19  N   UNK N   1      25.414  23.944  -5.821  0.00  0.00    -0.282 N 
HETATM   20  H   UNK N   1      24.510  23.787  -5.465  0.00  0.00     0.178 HD
BRANCH  19  21
HETATM   21  S   UNK N   1      25.987  22.925  -7.135  0.00  0.00     0.227 S 
HETATM   22  C   UNK N   1      24.934  22.073  -8.339  0.00  0.00     0.186 C 
HETATM   23  O   UNK N   1      25.142  23.938  -7.921  0.00  0.00    -0.206 OA
HETATM   24  O   UNK N   1      24.909  22.051  -6.477  0.00  0.00    -0.206 OA
ENDBRANCH  19  21
ENDBRANCH   5  19
BRANCH   6  25
HETATM   25  N   UNK N   1      28.092  30.688  -2.829  0.00  0.00    -0.343 N 
HETATM   26  C   UNK N   1      28.397  31.059  -1.628  0.00  0.00     0.223 C 
ATOM     27  HN  UNK N   1      28.251  31.408  -3.534  1.00  0.00     0.167 HD
BRANCH  26  28
HETATM   28  O   UNK N   1      28.275  30.273  -0.547  0.00  0.00    -0.356 OA
HETATM   29  H   UNK N   1      27.761  30.556   0.183  0.00  0.00     0.218 HD
ENDBRANCH  26  28
ENDBRANCH   6  25
TORSDOF 6
ENDMDL
MODEL 8
REMARK VINA RESULT:      -6.5      9.006     12.861
REMARK  6 active torsions:
REMARK  status: ('A' for Active; 'I' for Inactive)
REMARK    1  A    between atoms: C_10  and  O_21 
REMARK    2  A    between atoms: O_26  and  C_11 
REMARK    3  A    between atoms: N_20  and  C_13 
REMARK    4  A    between atoms: N_18  and  C_14 
REMARK    5  A    between atoms: O_26  and  C_16 
REMARK    6  A    between atoms: S_27  and  N_20 
ROOT
HETATM    1  C   UNK N   1      35.470  13.935   9.063  0.00  0.00     0.058 A 
HETATM    2  C   UNK N   1      35.962  15.875  10.991  0.00  0.00     0.071 A 
HETATM    3  C   UNK N   1      34.546  17.936   8.434  0.00  0.00     0.176 A 
HETATM    4  C   UNK N   1      35.137  15.275   8.804  0.00  0.00     0.053 A 
HETATM    5  C   UNK N   1      36.294  14.542  11.271  0.00  0.00     0.079 A 
HETATM    6  C   UNK N   1      34.231  17.053   7.395  0.00  0.00     0.107 A 
HETATM    7  C   UNK N   1      35.397  16.247   9.781  0.00  0.00     0.091 A 
HETATM    8  C   UNK N   1      36.050  13.535  10.282  0.00  0.00     0.104 A 
HETATM    9  C   UNK N   1      34.543  15.676   7.592  0.00  0.00     0.213 A 
HETATM   10  O   UNK N   1      34.308  14.838   6.743  0.00  0.00    -0.285 OA
HETATM   11  O   UNK N   1      35.102  17.519   9.564  0.00  0.00    -0.319 OA
ENDROOT
BRANCH   8  12
HETATM   12  O   UNK N   1      36.310  12.191  10.400  0.00  0.00    -0.308 OA
BRANCH  12  13
HETATM   13  C   UNK N   1      35.683  11.058  10.838  0.00  0.00     0.076 A 
HETATM   14  C   UNK N   1      34.483  11.056  11.554  0.00  0.00     0.037 A 
HETATM   15  C   UNK N   1      33.887   9.863  11.970  0.00  0.00     0.003 A 
HETATM   16  C   UNK N   1      34.492   8.643  11.670  0.00  0.00     0.000 A 
HETATM   17  C   UNK N   1      35.691   8.624  10.956  0.00  0.00     0.003 A 
HETATM   18  C   UNK N   1      36.281   9.825  10.544  0.00  0.00     0.037 A 
ENDBRANCH  12  13
ENDBRANCH   8  12
BRANCH   5  19
HETATM   19  N   UNK N   1      36.852  14.249  12.534  0.00  0.00    -0.282 N 
HETATM   20  H   UNK N   1      37.826  14.334  12.647  0.00  0.00     0.178 HD
BRANCH  19  21
HETATM   21  S   UNK N   1      35.888  13.743  13.915  0.00  0.00     0.227 S 
HETATM   22  C   UNK N   1      36.548  13.169  15.503  0.00  0.00     0.186 C 
HETATM   23  O   UNK N   1      36.747  14.836  14.566  0.00  0.00    -0.206 OA
HETATM   24  O   UNK N   1      36.894  12.591  13.767  0.00  0.00    -0.206 OA
ENDBRANCH  19  21
ENDBRANCH   5  19
BRANCH   6  25
HETATM   25  N   UNK N   1      33.625  17.645   6.237  0.00  0.00    -0.343 N 
HETATM   26  C   UNK N   1      32.553  17.361   5.570  0.00  0.00     0.223 C 
ATOM     27  HN  UNK N   1      34.139  18.446   5.868  1.00  0.00     0.167 HD
BRANCH  26  28
HETATM   28  O   UNK N   1      31.722  16.355   5.880  0.00  0.00    -0.356 OA
HETATM   29  H   UNK N   1      30.800  16.446   5.731  0.00  0.00     0.218 HD
ENDBRANCH  26  28
ENDBRANCH   6  25
TORSDOF 6
ENDMDL
MODEL 9
REMARK VINA RESULT:      -6.4      3.016      7.143
REMARK  6 active torsions:
REMARK  status: ('A' for Active; 'I' for Inactive)
REMARK    1  A    between atoms: C_10  and  O_21 
REMARK    2  A    between atoms: O_26  and  C_11 
REMARK    3  A    between atoms: N_20  and  C_13 
REMARK    4  A    between atoms: N_18  and  C_14 
REMARK    5  A    between atoms: O_26  and  C_16 
REMARK    6  A    between atoms: S_27  and  N_20 
ROOT
HETATM    1  C   UNK N   1      24.875  16.288   5.580  0.00  0.00     0.058 A 
HETATM    2  C   UNK N   1      24.376  18.810   4.526  0.00  0.00     0.071 A 
HETATM    3  C   UNK N   1      27.948  18.799   4.354  0.00  0.00     0.176 A 
HETATM    4  C   UNK N   1      25.949  17.099   5.177  0.00  0.00     0.053 A 
HETATM    5  C   UNK N   1      23.292  18.012   4.915  0.00  0.00     0.079 A 
HETATM    6  C   UNK N   1      28.327  17.546   4.849  0.00  0.00     0.107 A 
HETATM    7  C   UNK N   1      25.686  18.373   4.654  0.00  0.00     0.091 A 
HETATM    8  C   UNK N   1      23.537  16.712   5.465  0.00  0.00     0.104 A 
HETATM    9  C   UNK N   1      27.287  16.672   5.276  0.00  0.00     0.213 A 
HETATM   10  O   UNK N   1      27.522  15.564   5.723  0.00  0.00    -0.285 OA
HETATM   11  O   UNK N   1      26.676  19.164   4.273  0.00  0.00    -0.319 OA
ENDROOT
BRANCH   8  12
HETATM   12  O   UNK N   1      22.593  15.809   5.887  0.00  0.00    -0.308 OA
BRANCH  12  13
HETATM   13  C   UNK N   1      22.074  15.337   7.060  0.00  0.00     0.076 A 
HETATM   14  C   UNK N   1      22.499  14.162   7.686  0.00  0.00     0.037 A 
HETATM   15  C   UNK N   1      21.933  13.733   8.889  0.00  0.00     0.003 A 
HETATM   16  C   UNK N   1      20.924  14.485   9.489  0.00  0.00     0.000 A 
HETATM   17  C   UNK N   1      20.484  15.661   8.879  0.00  0.00     0.003 A 
HETATM   18  C   UNK N   1      21.057  16.083   7.673  0.00  0.00     0.037 A 
ENDBRANCH  12  13
ENDBRANCH   8  12
BRANCH   5  19
HETATM   19  N   UNK N   1      21.991  18.529   4.736  0.00  0.00    -0.282 N 
HETATM   20  H   UNK N   1      21.365  18.496   5.495  0.00  0.00     0.178 HD
BRANCH  19  21
HETATM   21  S   UNK N   1      21.436  19.230   3.221  0.00  0.00     0.227 S 
HETATM   22  C   UNK N   1      19.705  19.379   2.705  0.00  0.00     0.186 C 
HETATM   23  O   UNK N   1      20.649  20.084   4.225  0.00  0.00    -0.206 OA
HETATM   24  O   UNK N   1      20.676  17.895   3.273  0.00  0.00    -0.206 OA
ENDBRANCH  19  21
ENDBRANCH   5  19
BRANCH   6  25
HETATM   25  N   UNK N   1      29.739  17.286   4.870  0.00  0.00    -0.343 N 
HETATM   26  C   UNK N   1      30.581  16.961   3.944  0.00  0.00     0.223 C 
ATOM     27  HN  UNK N   1      30.160  17.374   5.796  1.00  0.00     0.167 HD
BRANCH  26  28
HETATM   28  O   UNK N   1      30.251  16.799   2.654  0.00  0.00    -0.356 OA
HETATM   29  H   UNK N   1      30.410  15.978   2.229  0.00  0.00     0.218 HD
ENDBRANCH  26  28
ENDBRANCH   6  25
TORSDOF 6
ENDMDL
