MODEL 1
REMARK VINA RESULT:      -7.5      0.000      0.000
REMARK  6 active torsions:
REMARK  status: ('A' for Active; 'I' for Inactive)
REMARK    1  A    between atoms: C_8  and  C_6 
REMARK    2  A    between atoms: N_12  and  C_13 
REMARK    3  A    between atoms: C_13  and  C_14 
REMARK    4  A    between atoms: C_17  and  O_20 
REMARK    5  A    between atoms: O_20  and  C_21 
REMARK    6  A    between atoms: C_24  and  C_28 
REMARK       I    between atoms: C_28  and  N_30 
ROOT
HETATM    1  C   UNK N   1      33.051  14.078   6.462  0.00  0.00    -0.030 C 
HETATM    2  C   UNK N   1      34.394  14.003   6.082  0.00  0.00     0.012 C 
HETATM    3  C   UNK N   1      35.393  14.178   7.043  0.00  0.00     0.038 C 
HETATM    4  C   UNK N   1      35.029  14.438   8.369  0.00  0.00     0.076 C 
HETATM    5  C   UNK N   1      33.693  14.329   8.772  0.00  0.00     0.038 C 
HETATM    6  C   UNK N   1      32.707  14.152   7.820  0.00  0.00     0.012 C 
ENDROOT
BRANCH   1   7
HETATM    7  C   UNK N   1      32.014  14.325   5.418  0.00  0.00     0.311 C 
BRANCH   7   8
HETATM    8  N   UNK N   1      32.425  15.434   4.553  0.00  0.00     0.101 N 
HETATM    9  C   UNK N   1      32.204  15.134   3.147  0.00  0.00     0.273 C 
HETATM   10  C   UNK N   1      32.015  16.485   2.459  0.00  0.00     0.033 C 
HETATM   11  C   UNK N   1      31.832  17.483   3.595  0.00  0.00     0.042 C 
HETATM   12  C   UNK N   1      31.578  16.581   4.778  0.00  0.00     0.256 C 
BRANCH  12  13
HETATM   13  C   UNK N   1      31.786  17.189   6.137  0.00  0.00    -0.024 A 
HETATM   14  C   UNK N   1      33.068  17.589   6.551  0.00  0.00     0.016 A 
HETATM   15  C   UNK N   1      33.298  18.001   7.858  0.00  0.00    -0.061 A 
HETATM   16  C   UNK N   1      32.243  18.023   8.770  0.00  0.00     0.013 A 
HETATM   17  C   UNK N   1      34.675  18.364   8.283  0.00  0.00     0.048 C 
HETATM   18  C   UNK N   1      30.959  17.641   8.364  0.00  0.00    -0.061 A 
HETATM   19  C   UNK N   1      29.840  17.650   9.338  0.00  0.00     0.048 C 
HETATM   20  C   UNK N   1      30.732  17.215   7.052  0.00  0.00     0.016 A 
ENDBRANCH  12  13
ENDBRANCH   7   8
ENDBRANCH   1   7
BRANCH   4  21
HETATM   21  O   UNK N   1      35.856  15.169   9.139  0.00  0.00    -0.308 OA
BRANCH  21  22
HETATM   22  C   UNK N   1      36.108  14.733  10.420  0.00  0.00     0.114 A 
HETATM   23  C   UNK N   1      36.733  13.497  10.617  0.00  0.00     0.041 A 
HETATM   24  C   UNK N   1      36.943  13.007  11.917  0.00  0.00     0.020 A 
HETATM   25  C   UNK N   1      36.530  13.754  13.036  0.00  0.00     0.034 A 
HETATM   26  C   UNK N   1      35.941  14.992  12.847  0.00  0.00     0.062 A 
HETATM   27  C   UNK N   1      35.732  15.494  11.578  0.00  0.00     0.151 A 
HETATM   28  F   UNK N   1      35.164  16.719  11.505  0.00  0.00    -0.203 F 
BRANCH  25  29
HETATM   29  C   UNK N   1      36.696  13.243  14.412  0.00  0.00     0.249 C 
HETATM   30  O   UNK N   1      36.333  12.121  14.703  0.00  0.00    -0.268 OA
HETATM   31  N   UNK N   1      37.239  14.036  15.365  0.00  0.00    -0.366 N 
HETATM   32  H   UNK N   1      37.544  14.960  15.215  0.00  0.00     0.159 HD
HETATM   33  H   UNK N   1      37.336  13.664  16.271  0.00  0.00     0.159 HD
ENDBRANCH  25  29
ENDBRANCH  21  22
ENDBRANCH   4  21
TORSDOF 6
ENDMDL
MODEL 2
REMARK VINA RESULT:      -7.4      8.570     12.632
REMARK  6 active torsions:
REMARK  status: ('A' for Active; 'I' for Inactive)
REMARK    1  A    between atoms: C_8  and  C_6 
REMARK    2  A    between atoms: N_12  and  C_13 
REMARK    3  A    between atoms: C_13  and  C_14 
REMARK    4  A    between atoms: C_17  and  O_20 
REMARK    5  A    between atoms: O_20  and  C_21 
REMARK    6  A    between atoms: C_24  and  C_28 
REMARK       I    between atoms: C_28  and  N_30 
ROOT
HETATM    1  C   UNK N   1      25.816  15.490   4.356  0.00  0.00    -0.030 C 
HETATM    2  C   UNK N   1      25.403  15.658   5.682  0.00  0.00     0.012 C 
HETATM    3  C   UNK N   1      24.038  15.726   5.975  0.00  0.00     0.038 C 
HETATM    4  C   UNK N   1      23.109  15.635   4.933  0.00  0.00     0.076 C 
HETATM    5  C   UNK N   1      23.523  15.284   3.642  0.00  0.00     0.038 C 
HETATM    6  C   UNK N   1      24.873  15.215   3.356  0.00  0.00     0.012 C 
ENDROOT
BRANCH   1   7
HETATM    7  C   UNK N   1      27.216  15.846   3.982  0.00  0.00     0.311 C 
BRANCH   7   8
HETATM    8  N   UNK N   1      27.991  16.169   5.182  0.00  0.00     0.101 N 
HETATM    9  C   UNK N   1      29.127  15.276   5.351  0.00  0.00     0.273 C 
HETATM   10  C   UNK N   1      30.163  16.067   6.147  0.00  0.00     0.033 C 
HETATM   11  C   UNK N   1      29.665  17.506   6.121  0.00  0.00     0.042 C 
HETATM   12  C   UNK N   1      28.614  17.463   5.038  0.00  0.00     0.256 C 
BRANCH  12  13
HETATM   13  C   UNK N   1      27.613  18.584   5.036  0.00  0.00    -0.024 A 
HETATM   14  C   UNK N   1      26.979  18.973   3.842  0.00  0.00     0.016 A 
HETATM   15  C   UNK N   1      26.177  20.106   3.798  0.00  0.00    -0.061 A 
HETATM   16  C   UNK N   1      25.993  20.867   4.953  0.00  0.00     0.013 A 
HETATM   17  C   UNK N   1      25.566  20.525   2.510  0.00  0.00     0.048 C 
HETATM   18  C   UNK N   1      26.607  20.480   6.151  0.00  0.00    -0.061 A 
HETATM   19  C   UNK N   1      26.423  21.297   7.375  0.00  0.00     0.048 C 
HETATM   20  C   UNK N   1      27.424  19.346   6.190  0.00  0.00     0.016 A 
ENDBRANCH  12  13
ENDBRANCH   7   8
ENDBRANCH   1   7
BRANCH   4  21
HETATM   21  O   UNK N   1      21.926  16.263   5.060  0.00  0.00    -0.308 OA
BRANCH  21  22
HETATM   22  C   UNK N   1      21.643  17.300   4.200  0.00  0.00     0.114 A 
HETATM   23  C   UNK N   1      20.609  17.160   3.268  0.00  0.00     0.041 A 
HETATM   24  C   UNK N   1      20.346  18.183   2.341  0.00  0.00     0.020 A 
HETATM   25  C   UNK N   1      21.117  19.359   2.340  0.00  0.00     0.034 A 
HETATM   26  C   UNK N   1      22.119  19.516   3.281  0.00  0.00     0.062 A 
HETATM   27  C   UNK N   1      22.389  18.526   4.205  0.00  0.00     0.151 A 
HETATM   28  F   UNK N   1      23.379  18.787   5.089  0.00  0.00    -0.203 F 
BRANCH  25  29
HETATM   29  C   UNK N   1      20.893  20.431   1.348  0.00  0.00     0.249 C 
HETATM   30  O   UNK N   1      20.933  20.189   0.158  0.00  0.00    -0.268 OA
HETATM   31  N   UNK N   1      20.660  21.698   1.763  0.00  0.00    -0.366 N 
HETATM   32  H   UNK N   1      20.626  21.978   2.707  0.00  0.00     0.159 HD
HETATM   33  H   UNK N   1      20.514  22.386   1.075  0.00  0.00     0.159 HD
ENDBRANCH  25  29
ENDBRANCH  21  22
ENDBRANCH   4  21
TORSDOF 6
ENDMDL
MODEL 3
REMARK VINA RESULT:      -7.4      9.911     13.885
REMARK  6 active torsions:
REMARK  status: ('A' for Active; 'I' for Inactive)
REMARK    1  A    between atoms: C_8  and  C_6 
REMARK    2  A    between atoms: N_12  and  C_13 
REMARK    3  A    between atoms: C_13  and  C_14 
REMARK    4  A    between atoms: C_17  and  O_20 
REMARK    5  A    between atoms: O_20  and  C_21 
REMARK    6  A    between atoms: C_24  and  C_28 
REMARK       I    between atoms: C_28  and  N_30 
ROOT
HETATM    1  C   UNK N   1      21.255  13.377   8.147  0.00  0.00    -0.030 C 
HETATM    2  C   UNK N   1      21.624  14.700   8.409  0.00  0.00     0.012 C 
HETATM    3  C   UNK N   1      21.970  15.542   7.349  0.00  0.00     0.038 C 
HETATM    4  C   UNK N   1      21.951  15.039   6.042  0.00  0.00     0.076 C 
HETATM    5  C   UNK N   1      21.407  13.777   5.776  0.00  0.00     0.038 C 
HETATM    6  C   UNK N   1      21.063  12.948   6.826  0.00  0.00     0.012 C 
ENDROOT
BRANCH   1   7
HETATM    7  C   UNK N   1      21.310  12.376   9.254  0.00  0.00     0.311 C 
BRANCH   7   8
HETATM    8  N   UNK N   1      22.409  12.695  10.168  0.00  0.00     0.101 N 
HETATM    9  C   UNK N   1      22.074  12.381  11.548  0.00  0.00     0.273 C 
HETATM   10  C   UNK N   1      23.405  12.109  12.246  0.00  0.00     0.033 C 
HETATM   11  C   UNK N   1      24.423  11.983  11.120  0.00  0.00     0.042 C 
HETATM   12  C   UNK N   1      23.540  11.838   9.904  0.00  0.00     0.256 C 
BRANCH  12  13
HETATM   13  C   UNK N   1      24.182  12.128   8.576  0.00  0.00    -0.024 A 
HETATM   14  C   UNK N   1      24.825  13.358   8.348  0.00  0.00     0.016 A 
HETATM   15  C   UNK N   1      25.278  13.699   7.080  0.00  0.00    -0.061 A 
HETATM   16  C   UNK N   1      25.098  12.810   6.020  0.00  0.00     0.013 A 
HETATM   17  C   UNK N   1      25.903  15.029   6.856  0.00  0.00     0.048 C 
HETATM   18  C   UNK N   1      24.473  11.577   6.240  0.00  0.00    -0.061 A 
HETATM   19  C   UNK N   1      24.269  10.638   5.110  0.00  0.00     0.048 C 
HETATM   20  C   UNK N   1      24.006  11.240   7.514  0.00  0.00     0.016 A 
ENDBRANCH  12  13
ENDBRANCH   7   8
ENDBRANCH   1   7
BRANCH   4  21
HETATM   21  O   UNK N   1      22.796  15.561   5.134  0.00  0.00    -0.308 OA
BRANCH  21  22
HETATM   22  C   UNK N   1      22.457  16.756   4.541  0.00  0.00     0.114 A 
HETATM   23  C   UNK N   1      21.218  16.883   3.905  0.00  0.00     0.041 A 
HETATM   24  C   UNK N   1      20.879  18.075   3.242  0.00  0.00     0.020 A 
HETATM   25  C   UNK N   1      21.781  19.154   3.210  0.00  0.00     0.034 A 
HETATM   26  C   UNK N   1      22.994  19.045   3.867  0.00  0.00     0.062 A 
HETATM   27  C   UNK N   1      23.343  17.885   4.530  0.00  0.00     0.151 A 
HETATM   28  F   UNK N   1      24.545  17.889   5.150  0.00  0.00    -0.203 F 
BRANCH  25  29
HETATM   29  C   UNK N   1      21.471  20.401   2.482  0.00  0.00     0.249 C 
HETATM   30  O   UNK N   1      22.091  21.420   2.711  0.00  0.00    -0.268 OA
HETATM   31  N   UNK N   1      20.476  20.418   1.565  0.00  0.00    -0.366 N 
HETATM   32  H   UNK N   1      19.918  19.641   1.333  0.00  0.00     0.159 HD
HETATM   33  H   UNK N   1      20.297  21.266   1.098  0.00  0.00     0.159 HD
ENDBRANCH  25  29
ENDBRANCH  21  22
ENDBRANCH   4  21
TORSDOF 6
ENDMDL
MODEL 4
REMARK VINA RESULT:      -7.4      8.040     10.666
REMARK  6 active torsions:
REMARK  status: ('A' for Active; 'I' for Inactive)
REMARK    1  A    between atoms: C_8  and  C_6 
REMARK    2  A    between atoms: N_12  and  C_13 
REMARK    3  A    between atoms: C_13  and  C_14 
REMARK    4  A    between atoms: C_17  and  O_20 
REMARK    5  A    between atoms: O_20  and  C_21 
REMARK    6  A    between atoms: C_24  and  C_28 
REMARK       I    between atoms: C_28  and  N_30 
ROOT
HETATM    1  C   UNK N   1      25.026  16.922   4.584  0.00  0.00    -0.030 C 
HETATM    2  C   UNK N   1      23.759  17.509   4.523  0.00  0.00     0.012 C 
HETATM    3  C   UNK N   1      22.704  16.949   5.249  0.00  0.00     0.038 C 
HETATM    4  C   UNK N   1      22.935  15.801   6.015  0.00  0.00     0.076 C 
HETATM    5  C   UNK N   1      24.239  15.332   6.214  0.00  0.00     0.038 C 
HETATM    6  C   UNK N   1      25.280  15.890   5.498  0.00  0.00     0.012 C 
ENDROOT
BRANCH   1   7
HETATM    7  C   UNK N   1      26.020  17.228   3.513  0.00  0.00     0.311 C 
BRANCH   7   8
HETATM    8  N   UNK N   1      27.266  16.500   3.759  0.00  0.00     0.101 N 
HETATM    9  C   UNK N   1      27.666  15.705   2.609  0.00  0.00     0.273 C 
HETATM   10  C   UNK N   1      29.184  15.571   2.704  0.00  0.00     0.033 C 
HETATM   11  C   UNK N   1      29.604  16.580   3.764  0.00  0.00     0.042 C 
HETATM   12  C   UNK N   1      28.362  17.427   3.910  0.00  0.00     0.256 C 
BRANCH  12  13
HETATM   13  C   UNK N   1      28.255  18.241   5.169  0.00  0.00    -0.024 A 
HETATM   14  C   UNK N   1      28.399  17.630   6.428  0.00  0.00     0.016 A 
HETATM   15  C   UNK N   1      28.144  18.339   7.596  0.00  0.00    -0.061 A 
HETATM   16  C   UNK N   1      27.744  19.673   7.520  0.00  0.00     0.013 A 
HETATM   17  C   UNK N   1      28.248  17.652   8.910  0.00  0.00     0.048 C 
HETATM   18  C   UNK N   1      27.613  20.294   6.272  0.00  0.00    -0.061 A 
HETATM   19  C   UNK N   1      27.174  21.709   6.192  0.00  0.00     0.048 C 
HETATM   20  C   UNK N   1      27.858  19.577   5.098  0.00  0.00     0.016 A 
ENDBRANCH  12  13
ENDBRANCH   7   8
ENDBRANCH   1   7
BRANCH   4  21
HETATM   21  O   UNK N   1      21.922  14.937   6.212  0.00  0.00    -0.308 OA
BRANCH  21  22
HETATM   22  C   UNK N   1      21.839  14.297   7.428  0.00  0.00     0.114 A 
HETATM   23  C   UNK N   1      22.289  12.978   7.544  0.00  0.00     0.041 A 
HETATM   24  C   UNK N   1      22.157  12.287   8.761  0.00  0.00     0.020 A 
HETATM   25  C   UNK N   1      21.572  12.914   9.876  0.00  0.00     0.034 A 
HETATM   26  C   UNK N   1      21.155  14.230   9.775  0.00  0.00     0.062 A 
HETATM   27  C   UNK N   1      21.283  14.928   8.590  0.00  0.00     0.151 A 
HETATM   28  F   UNK N   1      20.858  16.212   8.604  0.00  0.00    -0.203 F 
BRANCH  25  29
HETATM   29  C   UNK N   1      21.378  12.199  11.154  0.00  0.00     0.249 C 
HETATM   30  O   UNK N   1      20.290  12.184  11.694  0.00  0.00    -0.268 OA
HETATM   31  N   UNK N   1      22.422  11.568  11.740  0.00  0.00    -0.366 N 
HETATM   32  H   UNK N   1      23.336  11.545  11.375  0.00  0.00     0.159 HD
HETATM   33  H   UNK N   1      22.257  11.100  12.590  0.00  0.00     0.159 HD
ENDBRANCH  25  29
ENDBRANCH  21  22
ENDBRANCH   4  21
TORSDOF 6
ENDMDL
MODEL 5
REMARK VINA RESULT:      -7.2     14.815     17.703
REMARK  6 active torsions:
REMARK  status: ('A' for Active; 'I' for Inactive)
REMARK    1  A    between atoms: C_8  and  C_6 
REMARK    2  A    between atoms: N_12  and  C_13 
REMARK    3  A    between atoms: C_13  and  C_14 
REMARK    4  A    between atoms: C_17  and  O_20 
REMARK    5  A    between atoms: O_20  and  C_21 
REMARK    6  A    between atoms: C_24  and  C_28 
REMARK       I    between atoms: C_28  and  N_30 
ROOT
HETATM    1  C   UNK N   1      27.605  24.460  -3.590  0.00  0.00    -0.030 C 
HETATM    2  C   UNK N   1      27.695  23.582  -2.506  0.00  0.00     0.012 C 
HETATM    3  C   UNK N   1      28.952  23.178  -2.049  0.00  0.00     0.038 C 
HETATM    4  C   UNK N   1      30.100  23.653  -2.695  0.00  0.00     0.076 C 
HETATM    5  C   UNK N   1      30.004  24.669  -3.653  0.00  0.00     0.038 C 
HETATM    6  C   UNK N   1      28.760  25.069  -4.100  0.00  0.00     0.012 C 
ENDROOT
BRANCH   1   7
HETATM    7  C   UNK N   1      26.320  24.552  -4.344  0.00  0.00     0.311 C 
BRANCH   7   8
HETATM    8  N   UNK N   1      26.565  24.379  -5.778  0.00  0.00     0.101 N 
HETATM    9  C   UNK N   1      26.024  23.122  -6.273  0.00  0.00     0.273 C 
HETATM   10  C   UNK N   1      25.734  23.350  -7.754  0.00  0.00     0.033 C 
HETATM   11  C   UNK N   1      25.844  24.856  -7.951  0.00  0.00     0.042 C 
HETATM   12  C   UNK N   1      25.830  25.367  -6.531  0.00  0.00     0.256 C 
BRANCH  12  13
HETATM   13  C   UNK N   1      26.358  26.759  -6.318  0.00  0.00    -0.024 A 
HETATM   14  C   UNK N   1      27.332  27.292  -7.181  0.00  0.00     0.016 A 
HETATM   15  C   UNK N   1      27.941  28.509  -6.901  0.00  0.00    -0.061 A 
HETATM   16  C   UNK N   1      27.580  29.214  -5.753  0.00  0.00     0.013 A 
HETATM   17  C   UNK N   1      29.008  29.021  -7.801  0.00  0.00     0.048 C 
HETATM   18  C   UNK N   1      26.600  28.699  -4.896  0.00  0.00    -0.061 A 
HETATM   19  C   UNK N   1      26.227  29.441  -3.667  0.00  0.00     0.048 C 
HETATM   20  C   UNK N   1      25.998  27.468  -5.172  0.00  0.00     0.016 A 
ENDBRANCH  12  13
ENDBRANCH   7   8
ENDBRANCH   1   7
BRANCH   4  21
HETATM   21  O   UNK N   1      31.205  22.885  -2.705  0.00  0.00    -0.308 OA
BRANCH  21  22
HETATM   22  C   UNK N   1      31.486  22.165  -3.845  0.00  0.00     0.114 A 
HETATM   23  C   UNK N   1      30.770  20.993  -4.114  0.00  0.00     0.041 A 
HETATM   24  C   UNK N   1      31.084  20.213  -5.239  0.00  0.00     0.020 A 
HETATM   25  C   UNK N   1      32.119  20.600  -6.109  0.00  0.00     0.034 A 
HETATM   26  C   UNK N   1      32.807  21.776  -5.866  0.00  0.00     0.062 A 
HETATM   27  C   UNK N   1      32.510  22.561  -4.769  0.00  0.00     0.151 A 
HETATM   28  F   UNK N   1      33.232  23.696  -4.633  0.00  0.00    -0.203 F 
BRANCH  25  29
HETATM   29  C   UNK N   1      32.501  19.776  -7.274  0.00  0.00     0.249 C 
HETATM   30  O   UNK N   1      31.689  19.512  -8.137  0.00  0.00    -0.268 OA
HETATM   31  N   UNK N   1      33.762  19.292  -7.375  0.00  0.00    -0.366 N 
HETATM   32  H   UNK N   1      34.473  19.448  -6.712  0.00  0.00     0.159 HD
HETATM   33  H   UNK N   1      33.982  18.748  -8.164  0.00  0.00     0.159 HD
ENDBRANCH  25  29
ENDBRANCH  21  22
ENDBRANCH   4  21
TORSDOF 6
ENDMDL
MODEL 6
REMARK VINA RESULT:      -7.2      2.841      4.157
REMARK  6 active torsions:
REMARK  status: ('A' for Active; 'I' for Inactive)
REMARK    1  A    between atoms: C_8  and  C_6 
REMARK    2  A    between atoms: N_12  and  C_13 
REMARK    3  A    between atoms: C_13  and  C_14 
REMARK    4  A    between atoms: C_17  and  O_20 
REMARK    5  A    between atoms: O_20  and  C_21 
REMARK    6  A    between atoms: C_24  and  C_28 
REMARK       I    between atoms: C_28  and  N_30 
ROOT
HETATM    1  C   UNK N   1      31.081  16.459   5.534  0.00  0.00    -0.030 C 
HETATM    2  C   UNK N   1      31.126  16.920   6.853  0.00  0.00     0.012 C 
HETATM    3  C   UNK N   1      32.301  17.497   7.342  0.00  0.00     0.038 C 
HETATM    4  C   UNK N   1      33.417  17.592   6.502  0.00  0.00     0.076 C 
HETATM    5  C   UNK N   1      33.305  17.298   5.138  0.00  0.00     0.038 C 
HETATM    6  C   UNK N   1      32.140  16.731   4.657  0.00  0.00     0.012 C 
ENDROOT
BRANCH   1   7
HETATM    7  C   UNK N   1      30.025  15.478   5.144  0.00  0.00     0.311 C 
BRANCH   7   8
HETATM    8  N   UNK N   1      29.151  16.059   4.122  0.00  0.00     0.101 N 
HETATM    9  C   UNK N   1      28.971  15.163   2.990  0.00  0.00     0.273 C 
HETATM   10  C   UNK N   1      27.618  15.527   2.384  0.00  0.00     0.033 C 
HETATM   11  C   UNK N   1      26.952  16.427   3.416  0.00  0.00     0.042 C 
HETATM   12  C   UNK N   1      27.811  16.204   4.637  0.00  0.00     0.256 C 
BRANCH  12  13
HETATM   13  C   UNK N   1      27.722  17.249   5.714  0.00  0.00    -0.024 A 
HETATM   14  C   UNK N   1      27.635  18.612   5.380  0.00  0.00     0.016 A 
HETATM   15  C   UNK N   1      27.714  19.592   6.362  0.00  0.00    -0.061 A 
HETATM   16  C   UNK N   1      27.877  19.220   7.697  0.00  0.00     0.013 A 
HETATM   17  C   UNK N   1      27.677  21.026   5.974  0.00  0.00     0.048 C 
HETATM   18  C   UNK N   1      27.948  17.865   8.042  0.00  0.00    -0.061 A 
HETATM   19  C   UNK N   1      28.136  17.471   9.459  0.00  0.00     0.048 C 
HETATM   20  C   UNK N   1      27.882  16.881   7.051  0.00  0.00     0.016 A 
ENDBRANCH  12  13
ENDBRANCH   7   8
ENDBRANCH   1   7
BRANCH   4  21
HETATM   21  O   UNK N   1      34.646  17.562   7.050  0.00  0.00    -0.308 OA
BRANCH  21  22
HETATM   22  C   UNK N   1      34.840  16.787   8.171  0.00  0.00     0.114 A 
HETATM   23  C   UNK N   1      34.941  17.400   9.424  0.00  0.00     0.041 A 
HETATM   24  C   UNK N   1      35.201  16.632  10.572  0.00  0.00     0.020 A 
HETATM   25  C   UNK N   1      35.360  15.237  10.474  0.00  0.00     0.034 A 
HETATM   26  C   UNK N   1      35.227  14.622   9.242  0.00  0.00     0.062 A 
HETATM   27  C   UNK N   1      34.966  15.358   8.104  0.00  0.00     0.151 A 
HETATM   28  F   UNK N   1      34.841  14.658   6.954  0.00  0.00    -0.203 F 
BRANCH  25  29
HETATM   29  C   UNK N   1      35.679  14.410  11.656  0.00  0.00     0.249 C 
HETATM   30  O   UNK N   1      34.795  14.019  12.393  0.00  0.00    -0.268 OA
HETATM   31  N   UNK N   1      36.966  14.098  11.934  0.00  0.00    -0.366 N 
HETATM   32  H   UNK N   1      37.739  14.387  11.397  0.00  0.00     0.159 HD
HETATM   33  H   UNK N   1      37.142  13.544  12.729  0.00  0.00     0.159 HD
ENDBRANCH  25  29
ENDBRANCH  21  22
ENDBRANCH   4  21
TORSDOF 6
ENDMDL
MODEL 7
REMARK VINA RESULT:      -7.2     13.868     17.508
REMARK  6 active torsions:
REMARK  status: ('A' for Active; 'I' for Inactive)
REMARK    1  A    between atoms: C_8  and  C_6 
REMARK    2  A    between atoms: N_12  and  C_13 
REMARK    3  A    between atoms: C_13  and  C_14 
REMARK    4  A    between atoms: C_17  and  O_20 
REMARK    5  A    between atoms: O_20  and  C_21 
REMARK    6  A    between atoms: C_24  and  C_28 
REMARK       I    between atoms: C_28  and  N_30 
ROOT
HETATM    1  C   UNK N   1      26.812  23.722  -5.593  0.00  0.00    -0.030 C 
HETATM    2  C   UNK N   1      27.851  22.992  -6.178  0.00  0.00     0.012 C 
HETATM    3  C   UNK N   1      29.115  22.994  -5.582  0.00  0.00     0.038 C 
HETATM    4  C   UNK N   1      29.319  23.737  -4.413  0.00  0.00     0.076 C 
HETATM    5  C   UNK N   1      28.234  24.311  -3.739  0.00  0.00     0.038 C 
HETATM    6  C   UNK N   1      26.985  24.304  -4.330  0.00  0.00     0.012 C 
ENDROOT
BRANCH   1   7
HETATM    7  C   UNK N   1      25.621  24.078  -6.420  0.00  0.00     0.311 C 
BRANCH   7   8
HETATM    8  N   UNK N   1      26.048  24.552  -7.738  0.00  0.00     0.101 N 
HETATM    9  C   UNK N   1      25.260  23.960  -8.808  0.00  0.00     0.273 C 
HETATM   10  C   UNK N   1      25.306  24.960  -9.961  0.00  0.00     0.033 C 
HETATM   11  C   UNK N   1      25.880  26.234  -9.355  0.00  0.00     0.042 C 
HETATM   12  C   UNK N   1      25.771  25.962  -7.874  0.00  0.00     0.256 C 
BRANCH  12  13
HETATM   13  C   UNK N   1      26.635  26.804  -6.976  0.00  0.00    -0.024 A 
HETATM   14  C   UNK N   1      28.036  26.712  -7.043  0.00  0.00     0.016 A 
HETATM   15  C   UNK N   1      28.837  27.363  -6.113  0.00  0.00    -0.061 A 
HETATM   16  C   UNK N   1      28.245  28.121  -5.102  0.00  0.00     0.013 A 
HETATM   17  C   UNK N   1      30.313  27.202  -6.173  0.00  0.00     0.048 C 
HETATM   18  C   UNK N   1      26.851  28.232  -5.037  0.00  0.00    -0.061 A 
HETATM   19  C   UNK N   1      26.222  29.026  -3.954  0.00  0.00     0.048 C 
HETATM   20  C   UNK N   1      26.046  27.566  -5.966  0.00  0.00     0.016 A 
ENDBRANCH  12  13
ENDBRANCH   7   8
ENDBRANCH   1   7
BRANCH   4  21
HETATM   21  O   UNK N   1      30.543  24.239  -4.168  0.00  0.00    -0.308 OA
BRANCH  21  22
HETATM   22  C   UNK N   1      31.602  23.363  -4.091  0.00  0.00     0.114 A 
HETATM   23  C   UNK N   1      32.620  23.426  -5.049  0.00  0.00     0.041 A 
HETATM   24  C   UNK N   1      33.678  22.502  -5.023  0.00  0.00     0.020 A 
HETATM   25  C   UNK N   1      33.727  21.502  -4.034  0.00  0.00     0.034 A 
HETATM   26  C   UNK N   1      32.740  21.457  -3.065  0.00  0.00     0.062 A 
HETATM   27  C   UNK N   1      31.696  22.360  -3.069  0.00  0.00     0.151 A 
HETATM   28  F   UNK N   1      30.794  22.237  -2.069  0.00  0.00    -0.203 F 
BRANCH  25  29
HETATM   29  C   UNK N   1      34.801  20.489  -4.009  0.00  0.00     0.249 C 
HETATM   30  O   UNK N   1      34.533  19.308  -3.912  0.00  0.00    -0.268 OA
HETATM   31  N   UNK N   1      36.096  20.876  -4.076  0.00  0.00    -0.366 N 
HETATM   32  H   UNK N   1      36.396  21.811  -4.140  0.00  0.00     0.159 HD
HETATM   33  H   UNK N   1      36.786  20.174  -4.058  0.00  0.00     0.159 HD
ENDBRANCH  25  29
ENDBRANCH  21  22
ENDBRANCH   4  21
TORSDOF 6
ENDMDL
MODEL 8
REMARK VINA RESULT:      -7.1     15.140     18.498
REMARK  6 active torsions:
REMARK  status: ('A' for Active; 'I' for Inactive)
REMARK    1  A    between atoms: C_8  and  C_6 
REMARK    2  A    between atoms: N_12  and  C_13 
REMARK    3  A    between atoms: C_13  and  C_14 
REMARK    4  A    between atoms: C_17  and  O_20 
REMARK    5  A    between atoms: O_20  and  C_21 
REMARK    6  A    between atoms: C_24  and  C_28 
REMARK       I    between atoms: C_28  and  N_30 
ROOT
HETATM    1  C   UNK N   1      28.703  23.159  -7.959  0.00  0.00    -0.030 C 
HETATM    2  C   UNK N   1      27.899  22.137  -7.444  0.00  0.00     0.012 C 
HETATM    3  C   UNK N   1      26.601  22.430  -7.017  0.00  0.00     0.038 C 
HETATM    4  C   UNK N   1      26.134  23.747  -7.103  0.00  0.00     0.076 C 
HETATM    5  C   UNK N   1      26.875  24.719  -7.784  0.00  0.00     0.038 C 
HETATM    6  C   UNK N   1      28.156  24.426  -8.209  0.00  0.00     0.012 C 
ENDROOT
BRANCH   1   7
HETATM    7  C   UNK N   1      30.182  22.964  -8.006  0.00  0.00     0.311 C 
BRANCH   7   8
HETATM    8  N   UNK N   1      30.564  21.810  -7.189  0.00  0.00     0.101 N 
HETATM    9  C   UNK N   1      31.194  20.768  -7.985  0.00  0.00     0.273 C 
HETATM   10  C   UNK N   1      32.102  20.003  -7.023  0.00  0.00     0.033 C 
HETATM   11  C   UNK N   1      32.168  20.868  -5.772  0.00  0.00     0.042 C 
HETATM   12  C   UNK N   1      31.602  22.181  -6.258  0.00  0.00     0.256 C 
BRANCH  12  13
HETATM   13  C   UNK N   1      31.111  23.128  -5.199  0.00  0.00    -0.024 A 
HETATM   14  C   UNK N   1      31.491  24.481  -5.221  0.00  0.00     0.016 A 
HETATM   15  C   UNK N   1      31.176  25.326  -4.164  0.00  0.00    -0.061 A 
HETATM   16  C   UNK N   1      30.470  24.828  -3.068  0.00  0.00     0.013 A 
HETATM   17  C   UNK N   1      31.640  26.738  -4.188  0.00  0.00     0.048 C 
HETATM   18  C   UNK N   1      30.074  23.485  -3.045  0.00  0.00    -0.061 A 
HETATM   19  C   UNK N   1      29.336  22.952  -1.873  0.00  0.00     0.048 C 
HETATM   20  C   UNK N   1      30.402  22.634  -4.103  0.00  0.00     0.016 A 
ENDBRANCH  12  13
ENDBRANCH   7   8
ENDBRANCH   1   7
BRANCH   4  21
HETATM   21  O   UNK N   1      25.216  24.169  -6.213  0.00  0.00    -0.308 OA
BRANCH  21  22
HETATM   22  C   UNK N   1      25.507  25.283  -5.457  0.00  0.00     0.114 A 
HETATM   23  C   UNK N   1      24.885  26.500  -5.756  0.00  0.00     0.041 A 
HETATM   24  C   UNK N   1      25.214  27.660  -5.035  0.00  0.00     0.020 A 
HETATM   25  C   UNK N   1      26.171  27.612  -4.005  0.00  0.00     0.034 A 
HETATM   26  C   UNK N   1      26.764  26.404  -3.685  0.00  0.00     0.062 A 
HETATM   27  C   UNK N   1      26.449  25.251  -4.376  0.00  0.00     0.151 A 
HETATM   28  F   UNK N   1      27.075  24.122  -3.972  0.00  0.00    -0.203 F 
BRANCH  25  29
HETATM   29  C   UNK N   1      26.571  28.825  -3.262  0.00  0.00     0.249 C 
HETATM   30  O   UNK N   1      27.232  28.737  -2.247  0.00  0.00    -0.268 OA
HETATM   31  N   UNK N   1      26.183  30.045  -3.702  0.00  0.00    -0.366 N 
HETATM   32  H   UNK N   1      25.635  30.200  -4.506  0.00  0.00     0.159 HD
HETATM   33  H   UNK N   1      26.468  30.831  -3.183  0.00  0.00     0.159 HD
ENDBRANCH  25  29
ENDBRANCH  21  22
ENDBRANCH   4  21
TORSDOF 6
ENDMDL
MODEL 9
REMARK VINA RESULT:      -7.1      3.121      8.810
REMARK  6 active torsions:
REMARK  status: ('A' for Active; 'I' for Inactive)
REMARK    1  A    between atoms: C_8  and  C_6 
REMARK    2  A    between atoms: N_12  and  C_13 
REMARK    3  A    between atoms: C_13  and  C_14 
REMARK    4  A    between atoms: C_17  and  O_20 
REMARK    5  A    between atoms: O_20  and  C_21 
REMARK    6  A    between atoms: C_24  and  C_28 
REMARK       I    between atoms: C_28  and  N_30 
ROOT
HETATM    1  C   UNK N   1      36.553  13.746  11.851  0.00  0.00    -0.030 C 
HETATM    2  C   UNK N   1      37.333  13.592  10.700  0.00  0.00     0.012 C 
HETATM    3  C   UNK N   1      36.978  14.270   9.531  0.00  0.00     0.038 C 
HETATM    4  C   UNK N   1      35.839  15.084   9.531  0.00  0.00     0.076 C 
HETATM    5  C   UNK N   1      35.176  15.374  10.730  0.00  0.00     0.038 C 
HETATM    6  C   UNK N   1      35.531  14.705  11.885  0.00  0.00     0.012 C 
ENDROOT
BRANCH   1   7
HETATM    7  C   UNK N   1      36.654  12.728  12.938  0.00  0.00     0.311 C 
BRANCH   7   8
HETATM    8  N   UNK N   1      35.316  12.333  13.384  0.00  0.00     0.101 N 
HETATM    9  C   UNK N   1      34.759  11.276  12.555  0.00  0.00     0.273 C 
HETATM   10  C   UNK N   1      33.772  10.525  13.447  0.00  0.00     0.033 C 
HETATM   11  C   UNK N   1      34.059  11.023  14.858  0.00  0.00     0.042 C 
HETATM   12  C   UNK N   1      35.387  11.720  14.688  0.00  0.00     0.256 C 
BRANCH  12  13
HETATM   13  C   UNK N   1      35.767  12.701  15.762  0.00  0.00    -0.024 A 
HETATM   14  C   UNK N   1      35.264  12.559  17.068  0.00  0.00     0.016 A 
HETATM   15  C   UNK N   1      35.477  13.545  18.024  0.00  0.00    -0.061 A 
HETATM   16  C   UNK N   1      36.204  14.688  17.687  0.00  0.00     0.013 A 
HETATM   17  C   UNK N   1      34.885  13.396  19.379  0.00  0.00     0.048 C 
HETATM   18  C   UNK N   1      36.722  14.830  16.394  0.00  0.00    -0.061 A 
HETATM   19  C   UNK N   1      37.482  16.052  16.032  0.00  0.00     0.048 C 
HETATM   20  C   UNK N   1      36.496  13.844  15.430  0.00  0.00     0.016 A 
ENDBRANCH  12  13
ENDBRANCH   7   8
ENDBRANCH   1   7
BRANCH   4  21
HETATM   21  O   UNK N   1      35.156  15.245   8.383  0.00  0.00    -0.308 OA
BRANCH  21  22
HETATM   22  C   UNK N   1      33.958  15.922   8.428  0.00  0.00     0.114 A 
HETATM   23  C   UNK N   1      33.941  17.306   8.228  0.00  0.00     0.041 A 
HETATM   24  C   UNK N   1      32.737  18.024   8.331  0.00  0.00     0.020 A 
HETATM   25  C   UNK N   1      31.535  17.358   8.635  0.00  0.00     0.034 A 
HETATM   26  C   UNK N   1      31.541  15.985   8.801  0.00  0.00     0.062 A 
HETATM   27  C   UNK N   1      32.713  15.261   8.697  0.00  0.00     0.151 A 
HETATM   28  F   UNK N   1      32.606  13.923   8.862  0.00  0.00    -0.203 F 
BRANCH  25  29
HETATM   29  C   UNK N   1      30.263  18.092   8.795  0.00  0.00     0.249 C 
HETATM   30  O   UNK N   1      29.513  18.242   7.850  0.00  0.00    -0.268 OA
HETATM   31  N   UNK N   1      29.934  18.620   9.997  0.00  0.00    -0.366 N 
HETATM   32  H   UNK N   1      30.492  18.556  10.806  0.00  0.00     0.159 HD
HETATM   33  H   UNK N   1      29.078  19.102  10.068  0.00  0.00     0.159 HD
ENDBRANCH  25  29
ENDBRANCH  21  22
ENDBRANCH   4  21
TORSDOF 6
ENDMDL
