MODEL 1
REMARK VINA RESULT:      -8.7      0.000      0.000
REMARK  3 active torsions:
REMARK  status: ('A' for Active; 'I' for Inactive)
REMARK    1  A    between atoms: C_3  and  C_2 
REMARK    2  A    between atoms: C_3  and  O_33 
REMARK    3  A    between atoms: C_27  and  N_30 
ROOT
HETATM    1  C   UNK N   1      34.491  16.673   8.758  0.00  0.00     0.173 A 
HETATM    2  C   UNK N   1      34.982  15.285   9.068  0.00  0.00     0.002 A 
HETATM    3  C   UNK N   1      34.965  14.859  10.403  0.00  0.00     0.043 A 
HETATM    4  C   UNK N   1      35.453  13.603  10.707  0.00  0.00     0.066 A 
HETATM    5  N   UNK N   1      35.953  12.783   9.766  0.00  0.00    -0.307 N 
HETATM    6  C   UNK N   1      35.978  13.145   8.442  0.00  0.00     0.257 A 
HETATM    7  O   UNK N   1      36.432  12.383   7.605  0.00  0.00    -0.267 OA
HETATM    8  C   UNK N   1      35.484  14.419   8.068  0.00  0.00     0.044 A 
HETATM    9  C   UNK N   1      35.518  14.838   6.626  0.00  0.00     0.224 A 
HETATM   10  O   UNK N   1      35.048  16.113   6.372  0.00  0.00    -0.314 OA
HETATM   11  C   UNK N   1      34.580  17.002   7.284  0.00  0.00     0.298 A 
HETATM   12  O   UNK N   1      34.235  18.109   6.898  0.00  0.00    -0.261 OA
HETATM   13  C   UNK N   1      36.456  11.531  10.370  0.00  0.00     0.174 A 
HETATM   14  C   UNK N   1      36.162  11.786  11.841  0.00  0.00    -0.002 A 
HETATM   15  C   UNK N   1      35.553  13.002  11.984  0.00  0.00     0.068 A 
HETATM   16  N   UNK N   1      35.168  13.508  13.175  0.00  0.00    -0.353 N 
ATOM     17  HN  UNK N   1      34.723  14.426  13.225  1.00  0.00     0.166 HD
HETATM   18  C   UNK N   1      35.377  12.784  14.306  0.00  0.00     0.047 A 
HETATM   19  C   UNK N   1      34.961  13.297  15.531  0.00  0.00     0.073 A 
HETATM   20  C   UNK N   1      35.164  12.572  16.703  0.00  0.00     0.125 A 
HETATM   21  C   UNK N   1      35.787  11.316  16.661  0.00  0.00    -0.016 A 
HETATM   22  C   UNK N   1      36.215  10.779  15.428  0.00  0.00    -0.036 A 
HETATM   23  C   UNK N   1      36.020  11.515  14.240  0.00  0.00     0.007 A 
HETATM   24  C   UNK N   1      36.443  11.008  12.978  0.00  0.00    -0.013 A 
HETATM   25  C   UNK N   1      37.173   9.680  12.879  0.00  0.00     0.109 C 
HETATM   26  C   UNK N   1      37.820   9.306  14.214  0.00  0.00     0.034 C 
HETATM   27  C   UNK N   1      36.842   9.413  15.371  0.00  0.00     0.042 C 
HETATM   28  C   UNK N   1      35.981  10.556  17.933  0.00  0.00     0.052 C 
HETATM   29  F   UNK N   1      34.744  13.094  17.883  0.00  0.00    -0.205 F 
ENDROOT
BRANCH   1  30
HETATM   30  C   UNK N   1      33.037  16.786   9.246  0.00  0.00     0.049 C 
HETATM   31  C   UNK N   1      32.065  15.927   8.450  0.00  0.00     0.009 C 
ENDBRANCH   1  30
BRANCH   1  32
HETATM   32  O   UNK N   1      35.290  17.577   9.465  0.00  0.00    -0.375 OA
HETATM   33  H   UNK N   1      35.829  18.379   9.567  0.00  0.00     0.211 HD
ENDBRANCH   1  32
BRANCH  25  34
HETATM   34  N   UNK N   1      38.242   9.750  11.895  0.00  0.00    -0.422 N 
HETATM   35  H   UNK N   1      38.961  10.460  11.759  0.00  0.00     0.150 HD
HETATM   36  H   UNK N   1      38.277   8.969  11.239  0.00  0.00     0.150 HD
ENDBRANCH  25  34
TORSDOF 3
ENDMDL
MODEL 2
REMARK VINA RESULT:      -8.5      2.471      3.717
REMARK  3 active torsions:
REMARK  status: ('A' for Active; 'I' for Inactive)
REMARK    1  A    between atoms: C_3  and  C_2 
REMARK    2  A    between atoms: C_3  and  O_33 
REMARK    3  A    between atoms: C_27  and  N_30 
ROOT
HETATM    1  C   UNK N   1      32.962  15.782   7.079  0.00  0.00     0.173 A 
HETATM    2  C   UNK N   1      33.829  15.696   8.306  0.00  0.00     0.002 A 
HETATM    3  C   UNK N   1      33.967  14.451   8.934  0.00  0.00     0.043 A 
HETATM    4  C   UNK N   1      34.725  14.367  10.086  0.00  0.00     0.066 A 
HETATM    5  N   UNK N   1      35.323  15.442  10.628  0.00  0.00    -0.307 N 
HETATM    6  C   UNK N   1      35.233  16.681  10.044  0.00  0.00     0.257 A 
HETATM    7  O   UNK N   1      35.789  17.642  10.551  0.00  0.00    -0.267 OA
HETATM    8  C   UNK N   1      34.476  16.828   8.857  0.00  0.00     0.044 A 
HETATM    9  C   UNK N   1      34.353  18.180   8.213  0.00  0.00     0.224 A 
HETATM   10  O   UNK N   1      33.561  18.223   7.080  0.00  0.00    -0.314 OA
HETATM   11  C   UNK N   1      32.893  17.185   6.517  0.00  0.00     0.298 A 
HETATM   12  O   UNK N   1      32.202  17.399   5.532  0.00  0.00    -0.261 OA
HETATM   13  C   UNK N   1      36.019  15.082  11.881  0.00  0.00     0.174 A 
HETATM   14  C   UNK N   1      35.700  13.597  11.968  0.00  0.00    -0.002 A 
HETATM   15  C   UNK N   1      34.961  13.221  10.882  0.00  0.00     0.068 A 
HETATM   16  N   UNK N   1      34.525  11.959  10.675  0.00  0.00    -0.353 N 
ATOM     17  HN  UNK N   1      33.970  11.735   9.849  1.00  0.00     0.166 HD
HETATM   18  C   UNK N   1      34.834  10.992  11.577  0.00  0.00     0.047 A 
HETATM   19  C   UNK N   1      34.404   9.688  11.353  0.00  0.00     0.073 A 
HETATM   20  C   UNK N   1      34.710   8.679  12.264  0.00  0.00     0.125 A 
HETATM   21  C   UNK N   1      35.459   8.966  13.415  0.00  0.00    -0.016 A 
HETATM   22  C   UNK N   1      35.905  10.282  13.659  0.00  0.00    -0.036 A 
HETATM   23  C   UNK N   1      35.588  11.309  12.743  0.00  0.00     0.007 A 
HETATM   24  C   UNK N   1      36.018  12.650  12.958  0.00  0.00    -0.013 A 
HETATM   25  C   UNK N   1      36.782  13.030  14.214  0.00  0.00     0.109 C 
HETATM   26  C   UNK N   1      36.539  12.017  15.335  0.00  0.00     0.034 C 
HETATM   27  C   UNK N   1      36.747  10.587  14.867  0.00  0.00     0.042 C 
HETATM   28  C   UNK N   1      35.782   7.862  14.369  0.00  0.00     0.052 C 
HETATM   29  F   UNK N   1      34.281   7.415  12.019  0.00  0.00    -0.205 F 
ENDROOT
BRANCH   1  30
HETATM   30  C   UNK N   1      33.523  14.810   6.028  0.00  0.00     0.049 C 
HETATM   31  C   UNK N   1      34.892  15.217   5.499  0.00  0.00     0.009 C 
ENDBRANCH   1  30
BRANCH   1  32
HETATM   32  O   UNK N   1      31.671  15.382   7.439  0.00  0.00    -0.375 OA
HETATM   33  H   UNK N   1      31.021  14.873   7.950  0.00  0.00     0.211 HD
ENDBRANCH   1  32
BRANCH  25  34
HETATM   34  N   UNK N   1      36.348  14.326  14.711  0.00  0.00    -0.422 N 
HETATM   35  H   UNK N   1      35.577  14.563  15.335  0.00  0.00     0.150 HD
HETATM   36  H   UNK N   1      36.899  15.120  14.384  0.00  0.00     0.150 HD
ENDBRANCH  25  34
TORSDOF 3
ENDMDL
MODEL 3
REMARK VINA RESULT:      -8.2      9.291     12.720
REMARK  3 active torsions:
REMARK  status: ('A' for Active; 'I' for Inactive)
REMARK    1  A    between atoms: C_3  and  C_2 
REMARK    2  A    between atoms: C_3  and  O_33 
REMARK    3  A    between atoms: C_27  and  N_30 
ROOT
HETATM    1  C   UNK N   1      21.581  16.380   5.088  0.00  0.00     0.173 A 
HETATM    2  C   UNK N   1      22.962  16.113   4.553  0.00  0.00     0.002 A 
HETATM    3  C   UNK N   1      24.060  16.437   5.362  0.00  0.00     0.043 A 
HETATM    4  C   UNK N   1      25.333  16.236   4.866  0.00  0.00     0.066 A 
HETATM    5  N   UNK N   1      25.552  15.752   3.632  0.00  0.00    -0.307 N 
HETATM    6  C   UNK N   1      24.513  15.403   2.805  0.00  0.00     0.257 A 
HETATM    7  O   UNK N   1      24.735  14.961   1.691  0.00  0.00    -0.267 OA
HETATM    8  C   UNK N   1      23.183  15.579   3.262  0.00  0.00     0.044 A 
HETATM    9  C   UNK N   1      22.034  15.218   2.365  0.00  0.00     0.224 A 
HETATM   10  O   UNK N   1      20.778  15.463   2.890  0.00  0.00    -0.314 OA
HETATM   11  C   UNK N   1      20.496  15.996   4.106  0.00  0.00     0.298 A 
HETATM   12  O   UNK N   1      19.327  16.183   4.405  0.00  0.00    -0.261 OA
HETATM   13  C   UNK N   1      26.999  15.692   3.337  0.00  0.00     0.174 A 
HETATM   14  C   UNK N   1      27.577  16.244   4.632  0.00  0.00    -0.002 A 
HETATM   15  C   UNK N   1      26.563  16.526   5.504  0.00  0.00     0.068 A 
HETATM   16  N   UNK N   1      26.761  17.030   6.742  0.00  0.00    -0.353 N 
ATOM     17  HN  UNK N   1      25.965  17.228   7.351  1.00  0.00     0.166 HD
HETATM   18  C   UNK N   1      28.028  17.269   7.169  0.00  0.00     0.047 A 
HETATM   19  C   UNK N   1      28.233  17.767   8.452  0.00  0.00     0.073 A 
HETATM   20  C   UNK N   1      29.523  18.019   8.912  0.00  0.00     0.125 A 
HETATM   21  C   UNK N   1      30.631  17.769   8.088  0.00  0.00    -0.016 A 
HETATM   22  C   UNK N   1      30.444  17.262   6.785  0.00  0.00    -0.036 A 
HETATM   23  C   UNK N   1      29.137  17.015   6.312  0.00  0.00     0.007 A 
HETATM   24  C   UNK N   1      28.909  16.508   5.001  0.00  0.00    -0.013 A 
HETATM   25  C   UNK N   1      30.065  16.272   4.045  0.00  0.00     0.109 C 
HETATM   26  C   UNK N   1      31.286  17.105   4.442  0.00  0.00     0.034 C 
HETATM   27  C   UNK N   1      31.629  16.949   5.913  0.00  0.00     0.042 C 
HETATM   28  C   UNK N   1      32.005  18.038   8.612  0.00  0.00     0.052 C 
HETATM   29  F   UNK N   1      29.694  18.501  10.169  0.00  0.00    -0.205 F 
ENDROOT
BRANCH   1  30
HETATM   30  C   UNK N   1      21.417  15.597   6.402  0.00  0.00     0.049 C 
HETATM   31  C   UNK N   1      20.964  16.465   7.568  0.00  0.00     0.009 C 
ENDBRANCH   1  30
BRANCH   1  32
HETATM   32  O   UNK N   1      21.481  17.751   5.348  0.00  0.00    -0.375 OA
HETATM   33  H   UNK N   1      21.771  18.594   5.733  0.00  0.00     0.211 HD
ENDBRANCH   1  32
BRANCH  25  34
HETATM   34  N   UNK N   1      29.705  16.665   2.692  0.00  0.00    -0.422 N 
HETATM   35  H   UNK N   1      30.300  16.861   1.887  0.00  0.00     0.150 HD
HETATM   36  H   UNK N   1      28.704  16.760   2.521  0.00  0.00     0.150 HD
ENDBRANCH  25  34
TORSDOF 3
ENDMDL
MODEL 4
REMARK VINA RESULT:      -8.1      1.475      2.152
REMARK  3 active torsions:
REMARK  status: ('A' for Active; 'I' for Inactive)
REMARK    1  A    between atoms: C_3  and  C_2 
REMARK    2  A    between atoms: C_3  and  O_33 
REMARK    3  A    between atoms: C_27  and  N_30 
ROOT
HETATM    1  C   UNK N   1      34.979  15.038   9.375  0.00  0.00     0.173 A 
HETATM    2  C   UNK N   1      35.070  13.695  10.047  0.00  0.00     0.002 A 
HETATM    3  C   UNK N   1      35.040  13.652  11.448  0.00  0.00     0.043 A 
HETATM    4  C   UNK N   1      35.165  12.429  12.078  0.00  0.00     0.066 A 
HETATM    5  N   UNK N   1      35.325  11.284  11.392  0.00  0.00    -0.307 N 
HETATM    6  C   UNK N   1      35.344  11.269  10.020  0.00  0.00     0.257 A 
HETATM    7  O   UNK N   1      35.486  10.217   9.418  0.00  0.00    -0.267 OA
HETATM    8  C   UNK N   1      35.213  12.491   9.317  0.00  0.00     0.044 A 
HETATM    9  C   UNK N   1      35.247  12.496   7.815  0.00  0.00     0.224 A 
HETATM   10  O   UNK N   1      35.149  13.743   7.227  0.00  0.00    -0.314 OA
HETATM   11  C   UNK N   1      35.038  14.935   7.866  0.00  0.00     0.298 A 
HETATM   12  O   UNK N   1      34.999  15.956   7.197  0.00  0.00    -0.261 OA
HETATM   13  C   UNK N   1      35.490  10.138  12.311  0.00  0.00     0.174 A 
HETATM   14  C   UNK N   1      35.406  10.839  13.659  0.00  0.00    -0.002 A 
HETATM   15  C   UNK N   1      35.192  12.175  13.470  0.00  0.00     0.068 A 
HETATM   16  N   UNK N   1      35.071  13.063  14.481  0.00  0.00    -0.353 N 
ATOM     17  HN  UNK N   1      34.918  14.052  14.282  1.00  0.00     0.166 HD
HETATM   18  C   UNK N   1      35.154  12.625  15.764  0.00  0.00     0.047 A 
HETATM   19  C   UNK N   1      35.008  13.536  16.806  0.00  0.00     0.073 A 
HETATM   20  C   UNK N   1      35.088  13.110  18.130  0.00  0.00     0.125 A 
HETATM   21  C   UNK N   1      35.313  11.757  18.428  0.00  0.00    -0.016 A 
HETATM   22  C   UNK N   1      35.462  10.819  17.385  0.00  0.00    -0.036 A 
HETATM   23  C   UNK N   1      35.392  11.249  16.042  0.00  0.00     0.007 A 
HETATM   24  C   UNK N   1      35.542  10.331  14.964  0.00  0.00    -0.013 A 
HETATM   25  C   UNK N   1      35.844   8.866  15.225  0.00  0.00     0.109 C 
HETATM   26  C   UNK N   1      36.462   8.669  16.610  0.00  0.00     0.034 C 
HETATM   27  C   UNK N   1      35.658   9.361  17.697  0.00  0.00     0.042 C 
HETATM   28  C   UNK N   1      35.383  11.328  19.858  0.00  0.00     0.052 C 
HETATM   29  F   UNK N   1      34.937  14.019  19.126  0.00  0.00    -0.205 F 
ENDROOT
BRANCH   1  30
HETATM   30  C   UNK N   1      33.667  15.707   9.816  0.00  0.00     0.049 C 
HETATM   31  C   UNK N   1      32.427  15.054   9.222  0.00  0.00     0.009 C 
ENDBRANCH   1  30
BRANCH   1  32
HETATM   32  O   UNK N   1      36.063  15.808   9.810  0.00  0.00    -0.375 OA
HETATM   33  H   UNK N   1      36.771  16.057  10.427  0.00  0.00     0.211 HD
ENDBRANCH   1  32
BRANCH  25  34
HETATM   34  N   UNK N   1      36.801   8.354  14.257  0.00  0.00    -0.422 N 
HETATM   35  H   UNK N   1      37.811   8.236  14.333  0.00  0.00     0.150 HD
HETATM   36  H   UNK N   1      36.400   8.070  13.362  0.00  0.00     0.150 HD
ENDBRANCH  25  34
TORSDOF 3
ENDMDL
MODEL 5
REMARK VINA RESULT:      -7.9      2.399      3.699
REMARK  3 active torsions:
REMARK  status: ('A' for Active; 'I' for Inactive)
REMARK    1  A    between atoms: C_3  and  C_2 
REMARK    2  A    between atoms: C_3  and  O_33 
REMARK    3  A    between atoms: C_27  and  N_30 
ROOT
HETATM    1  C   UNK N   1      37.768  13.770   9.416  0.00  0.00     0.173 A 
HETATM    2  C   UNK N   1      37.603  12.609  10.360  0.00  0.00     0.002 A 
HETATM    3  C   UNK N   1      37.165  12.873  11.665  0.00  0.00     0.043 A 
HETATM    4  C   UNK N   1      37.050  11.822  12.553  0.00  0.00     0.066 A 
HETATM    5  N   UNK N   1      37.355  10.559  12.210  0.00  0.00    -0.307 N 
HETATM    6  C   UNK N   1      37.772  10.243  10.941  0.00  0.00     0.257 A 
HETATM    7  O   UNK N   1      38.039   9.089  10.651  0.00  0.00    -0.267 OA
HETATM    8  C   UNK N   1      37.902  11.278   9.983  0.00  0.00     0.044 A 
HETATM    9  C   UNK N   1      38.373  10.954   8.594  0.00  0.00     0.224 A 
HETATM   10  O   UNK N   1      38.503  12.039   7.747  0.00  0.00    -0.314 OA
HETATM   11  C   UNK N   1      38.259  13.340   8.051  0.00  0.00     0.298 A 
HETATM   12  O   UNK N   1      38.459  14.187   7.195  0.00  0.00    -0.261 OA
HETATM   13  C   UNK N   1      37.197   9.647  13.362  0.00  0.00     0.174 A 
HETATM   14  C   UNK N   1      36.753  10.624  14.441  0.00  0.00    -0.002 A 
HETATM   15  C   UNK N   1      36.659  11.880  13.912  0.00  0.00     0.068 A 
HETATM   16  N   UNK N   1      36.286  12.965  14.626  0.00  0.00    -0.353 N 
ATOM     17  HN  UNK N   1      36.239  13.883  14.182  1.00  0.00     0.166 HD
HETATM   18  C   UNK N   1      35.973  12.822  15.940  0.00  0.00     0.047 A 
HETATM   19  C   UNK N   1      35.568  13.935  16.670  0.00  0.00     0.073 A 
HETATM   20  C   UNK N   1      35.241  13.812  18.018  0.00  0.00     0.125 A 
HETATM   21  C   UNK N   1      35.313  12.564  18.655  0.00  0.00    -0.016 A 
HETATM   22  C   UNK N   1      35.721  11.423  17.931  0.00  0.00    -0.036 A 
HETATM   23  C   UNK N   1      36.062  11.546  16.567  0.00  0.00     0.007 A 
HETATM   24  C   UNK N   1      36.482  10.418  15.806  0.00  0.00    -0.013 A 
HETATM   25  C   UNK N   1      36.633   9.054  16.455  0.00  0.00     0.109 C 
HETATM   26  C   UNK N   1      36.813   9.181  17.969  0.00  0.00     0.034 C 
HETATM   27  C   UNK N   1      35.756  10.075  18.595  0.00  0.00     0.042 C 
HETATM   28  C   UNK N   1      34.945  12.460  20.100  0.00  0.00     0.052 C 
HETATM   29  F   UNK N   1      34.845  14.914  18.705  0.00  0.00    -0.205 F 
ENDROOT
BRANCH   1  30
HETATM   30  C   UNK N   1      36.413  14.487   9.298  0.00  0.00     0.049 C 
HETATM   31  C   UNK N   1      35.358  13.666   8.569  0.00  0.00     0.009 C 
ENDBRANCH   1  30
BRANCH   1  32
HETATM   32  O   UNK N   1      38.709  14.642   9.973  0.00  0.00    -0.375 OA
HETATM   33  H   UNK N   1      39.030  15.505  10.281  0.00  0.00     0.211 HD
ENDBRANCH   1  32
BRANCH  25  34
HETATM   34  N   UNK N   1      37.809   8.366  15.945  0.00  0.00    -0.422 N 
HETATM   35  H   UNK N   1      37.977   7.370  15.809  0.00  0.00     0.150 HD
HETATM   36  H   UNK N   1      38.586   8.974  15.684  0.00  0.00     0.150 HD
ENDBRANCH  25  34
TORSDOF 3
ENDMDL
MODEL 6
REMARK VINA RESULT:      -7.9      3.896      8.154
REMARK  3 active torsions:
REMARK  status: ('A' for Active; 'I' for Inactive)
REMARK    1  A    between atoms: C_3  and  C_2 
REMARK    2  A    between atoms: C_3  and  O_33 
REMARK    3  A    between atoms: C_27  and  N_30 
ROOT
HETATM    1  C   UNK N   1      35.663  12.343  15.118  0.00  0.00     0.173 A 
HETATM    2  C   UNK N   1      35.375  11.932  13.699  0.00  0.00     0.002 A 
HETATM    3  C   UNK N   1      35.218  12.940  12.737  0.00  0.00     0.043 A 
HETATM    4  C   UNK N   1      34.911  12.578  11.440  0.00  0.00     0.066 A 
HETATM    5  N   UNK N   1      34.748  11.295  11.075  0.00  0.00    -0.307 N 
HETATM    6  C   UNK N   1      34.907  10.269  11.973  0.00  0.00     0.257 A 
HETATM    7  O   UNK N   1      34.759   9.112  11.618  0.00  0.00    -0.267 OA
HETATM    8  C   UNK N   1      35.230  10.578  13.318  0.00  0.00     0.044 A 
HETATM    9  C   UNK N   1      35.392   9.469  14.318  0.00  0.00     0.224 A 
HETATM   10  O   UNK N   1      35.668   9.878  15.610  0.00  0.00    -0.314 OA
HETATM   11  C   UNK N   1      35.794  11.156  16.048  0.00  0.00     0.298 A 
HETATM   12  O   UNK N   1      36.004  11.350  17.235  0.00  0.00    -0.261 OA
HETATM   13  C   UNK N   1      34.371  11.196   9.649  0.00  0.00     0.174 A 
HETATM   14  C   UNK N   1      34.335  12.667   9.261  0.00  0.00    -0.002 A 
HETATM   15  C   UNK N   1      34.682  13.435  10.337  0.00  0.00     0.068 A 
HETATM   16  N   UNK N   1      34.743  14.784  10.304  0.00  0.00    -0.353 N 
ATOM     17  HN  UNK N   1      35.001  15.309  11.140  1.00  0.00     0.166 HD
HETATM   18  C   UNK N   1      34.457  15.435   9.146  0.00  0.00     0.047 A 
HETATM   19  C   UNK N   1      34.541  16.823   9.106  0.00  0.00     0.073 A 
HETATM   20  C   UNK N   1      34.254  17.512   7.929  0.00  0.00     0.125 A 
HETATM   21  C   UNK N   1      33.881  16.813   6.771  0.00  0.00    -0.016 A 
HETATM   22  C   UNK N   1      33.792  15.405   6.792  0.00  0.00    -0.036 A 
HETATM   23  C   UNK N   1      34.072  14.704   7.985  0.00  0.00     0.007 A 
HETATM   24  C   UNK N   1      33.989  13.284   8.045  0.00  0.00    -0.013 A 
HETATM   25  C   UNK N   1      33.536  12.479   6.840  0.00  0.00     0.109 C 
HETATM   26  C   UNK N   1      32.728  13.346   5.871  0.00  0.00     0.034 C 
HETATM   27  C   UNK N   1      33.438  14.647   5.542  0.00  0.00     0.042 C 
HETATM   28  C   UNK N   1      33.590  17.578   5.520  0.00  0.00     0.052 C 
HETATM   29  F   UNK N   1      34.347  18.865   7.917  0.00  0.00    -0.205 F 
ENDROOT
BRANCH   1  30
HETATM   30  C   UNK N   1      36.957  13.173  15.123  0.00  0.00     0.049 C 
HETATM   31  C   UNK N   1      36.804  14.524  15.809  0.00  0.00     0.009 C 
ENDBRANCH   1  30
BRANCH   1  32
HETATM   32  O   UNK N   1      34.599  13.137  15.557  0.00  0.00    -0.375 OA
HETATM   33  H   UNK N   1      34.147  13.735  16.175  0.00  0.00     0.211 HD
ENDBRANCH   1  32
BRANCH  25  34
HETATM   34  N   UNK N   1      32.674  11.380   7.246  0.00  0.00    -0.422 N 
HETATM   35  H   UNK N   1      32.890  10.392   7.375  0.00  0.00     0.150 HD
HETATM   36  H   UNK N   1      31.704  11.638   7.430  0.00  0.00     0.150 HD
ENDBRANCH  25  34
TORSDOF 3
ENDMDL
MODEL 7
REMARK VINA RESULT:      -7.7      3.880      8.669
REMARK  3 active torsions:
REMARK  status: ('A' for Active; 'I' for Inactive)
REMARK    1  A    between atoms: C_3  and  C_2 
REMARK    2  A    between atoms: C_3  and  O_33 
REMARK    3  A    between atoms: C_27  and  N_30 
ROOT
HETATM    1  C   UNK N   1      36.155  10.495  13.194  0.00  0.00     0.173 A 
HETATM    2  C   UNK N   1      35.881  11.926  12.818  0.00  0.00     0.002 A 
HETATM    3  C   UNK N   1      35.211  12.178  11.613  0.00  0.00     0.043 A 
HETATM    4  C   UNK N   1      34.991  13.488  11.236  0.00  0.00     0.066 A 
HETATM    5  N   UNK N   1      35.407  14.526  11.980  0.00  0.00    -0.307 N 
HETATM    6  C   UNK N   1      36.052  14.336  13.177  0.00  0.00     0.257 A 
HETATM    7  O   UNK N   1      36.417  15.293  13.839  0.00  0.00    -0.267 OA
HETATM    8  C   UNK N   1      36.300  13.014  13.621  0.00  0.00     0.044 A 
HETATM    9  C   UNK N   1      37.019  12.786  14.920  0.00  0.00     0.224 A 
HETATM   10  O   UNK N   1      37.245  11.461  15.243  0.00  0.00    -0.314 OA
HETATM   11  C   UNK N   1      36.895  10.374  14.509  0.00  0.00     0.298 A 
HETATM   12  O   UNK N   1      37.202   9.266  14.920  0.00  0.00    -0.261 OA
HETATM   13  C   UNK N   1      35.092  15.810  11.319  0.00  0.00     0.174 A 
HETATM   14  C   UNK N   1      34.425  15.317  10.043  0.00  0.00    -0.002 A 
HETATM   15  C   UNK N   1      34.368  13.952  10.053  0.00  0.00     0.068 A 
HETATM   16  N   UNK N   1      33.828  13.220   9.054  0.00  0.00    -0.353 N 
ATOM     17  HN  UNK N   1      33.818  12.201   9.109  1.00  0.00     0.166 HD
HETATM   18  C   UNK N   1      33.298  13.854   7.975  0.00  0.00     0.047 A 
HETATM   19  C   UNK N   1      32.723  13.100   6.956  0.00  0.00     0.073 A 
HETATM   20  C   UNK N   1      32.172  13.729   5.841  0.00  0.00     0.125 A 
HETATM   21  C   UNK N   1      32.188  15.128   5.735  0.00  0.00    -0.016 A 
HETATM   22  C   UNK N   1      32.766  15.908   6.759  0.00  0.00    -0.036 A 
HETATM   23  C   UNK N   1      33.334  15.275   7.885  0.00  0.00     0.007 A 
HETATM   24  C   UNK N   1      33.930  16.030   8.936  0.00  0.00    -0.013 A 
HETATM   25  C   UNK N   1      34.026  17.542   8.849  0.00  0.00     0.109 C 
HETATM   26  C   UNK N   1      33.934  18.018   7.397  0.00  0.00     0.034 C 
HETATM   27  C   UNK N   1      32.745  17.410   6.673  0.00  0.00     0.042 C 
HETATM   28  C   UNK N   1      31.580  15.775   4.533  0.00  0.00     0.052 C 
HETATM   29  F   UNK N   1      31.614  12.970   4.865  0.00  0.00    -0.205 F 
ENDROOT
BRANCH   1  30
HETATM   30  C   UNK N   1      34.811   9.752  13.265  0.00  0.00     0.049 C 
HETATM   31  C   UNK N   1      33.834  10.366  14.257  0.00  0.00     0.009 C 
ENDBRANCH   1  30
BRANCH   1  32
HETATM   32  O   UNK N   1      36.945   9.933  12.186  0.00  0.00    -0.375 OA
HETATM   33  H   UNK N   1      37.147   9.292  11.484  0.00  0.00     0.211 HD
ENDBRANCH   1  32
BRANCH  25  34
HETATM   34  N   UNK N   1      35.303  18.009   9.368  0.00  0.00    -0.422 N 
HETATM   35  H   UNK N   1      35.692  18.951   9.398  0.00  0.00     0.150 HD
HETATM   36  H   UNK N   1      35.900  17.282   9.762  0.00  0.00     0.150 HD
ENDBRANCH  25  34
TORSDOF 3
ENDMDL
MODEL 8
REMARK VINA RESULT:      -7.7      5.759     10.644
REMARK  3 active torsions:
REMARK  status: ('A' for Active; 'I' for Inactive)
REMARK    1  A    between atoms: C_3  and  C_2 
REMARK    2  A    between atoms: C_3  and  O_33 
REMARK    3  A    between atoms: C_27  and  N_30 
ROOT
HETATM    1  C   UNK N   1      33.641  15.000   9.917  0.00  0.00     0.173 A 
HETATM    2  C   UNK N   1      32.918  14.875   8.603  0.00  0.00     0.002 A 
HETATM    3  C   UNK N   1      31.946  15.834   8.288  0.00  0.00     0.043 A 
HETATM    4  C   UNK N   1      31.245  15.706   7.104  0.00  0.00     0.066 A 
HETATM    5  N   UNK N   1      31.457  14.687   6.254  0.00  0.00    -0.307 N 
HETATM    6  C   UNK N   1      32.408  13.730   6.507  0.00  0.00     0.257 A 
HETATM    7  O   UNK N   1      32.587  12.817   5.718  0.00  0.00    -0.267 OA
HETATM    8  C   UNK N   1      33.165  13.813   7.701  0.00  0.00     0.044 A 
HETATM    9  C   UNK N   1      34.199  12.765   8.002  0.00  0.00     0.224 A 
HETATM   10  O   UNK N   1      34.855  12.915   9.210  0.00  0.00    -0.314 OA
HETATM   11  C   UNK N   1      34.649  13.892  10.130  0.00  0.00     0.298 A 
HETATM   12  O   UNK N   1      35.290  13.861  11.170  0.00  0.00    -0.261 OA
HETATM   13  C   UNK N   1      30.536  14.762   5.101  0.00  0.00     0.174 A 
HETATM   14  C   UNK N   1      29.742  16.012   5.451  0.00  0.00    -0.002 A 
HETATM   15  C   UNK N   1      30.211  16.542   6.620  0.00  0.00     0.068 A 
HETATM   16  N   UNK N   1      29.706  17.658   7.190  0.00  0.00    -0.353 N 
ATOM     17  HN  UNK N   1      30.091  18.006   8.069  1.00  0.00     0.166 HD
HETATM   18  C   UNK N   1      28.684  18.313   6.580  0.00  0.00     0.047 A 
HETATM   19  C   UNK N   1      28.179  19.475   7.156  0.00  0.00     0.073 A 
HETATM   20  C   UNK N   1      27.131  20.163   6.548  0.00  0.00     0.125 A 
HETATM   21  C   UNK N   1      26.577  19.696   5.347  0.00  0.00    -0.016 A 
HETATM   22  C   UNK N   1      27.076  18.520   4.748  0.00  0.00    -0.036 A 
HETATM   23  C   UNK N   1      28.131  17.814   5.366  0.00  0.00     0.007 A 
HETATM   24  C   UNK N   1      28.658  16.621   4.793  0.00  0.00    -0.013 A 
HETATM   25  C   UNK N   1      28.060  16.037   3.525  0.00  0.00     0.109 C 
HETATM   26  C   UNK N   1      26.626  16.528   3.315  0.00  0.00     0.034 C 
HETATM   27  C   UNK N   1      26.517  18.038   3.438  0.00  0.00     0.042 C 
HETATM   28  C   UNK N   1      25.461  20.461   4.712  0.00  0.00     0.052 C 
HETATM   29  F   UNK N   1      26.661  21.296   7.129  0.00  0.00    -0.205 F 
ENDROOT
BRANCH   1  30
HETATM   30  C   UNK N   1      34.337  16.371   9.951  0.00  0.00     0.049 C 
HETATM   31  C   UNK N   1      34.937  16.777   8.612  0.00  0.00     0.009 C 
ENDBRANCH   1  30
BRANCH   1  32
HETATM   32  O   UNK N   1      32.687  14.938  10.938  0.00  0.00    -0.375 OA
HETATM   33  H   UNK N   1      32.036  14.492  11.503  0.00  0.00     0.211 HD
ENDBRANCH   1  32
BRANCH  25  34
HETATM   34  N   UNK N   1      28.004  14.586   3.602  0.00  0.00    -0.422 N 
HETATM   35  H   UNK N   1      27.199  13.962   3.633  0.00  0.00     0.150 HD
HETATM   36  H   UNK N   1      28.912  14.119   3.628  0.00  0.00     0.150 HD
ENDBRANCH  25  34
TORSDOF 3
ENDMDL
MODEL 9
REMARK VINA RESULT:      -7.7      4.726      9.158
REMARK  3 active torsions:
REMARK  status: ('A' for Active; 'I' for Inactive)
REMARK    1  A    between atoms: C_3  and  C_2 
REMARK    2  A    between atoms: C_3  and  O_33 
REMARK    3  A    between atoms: C_27  and  N_30 
ROOT
HETATM    1  C   UNK N   1      36.430  14.080  10.027  0.00  0.00     0.173 A 
HETATM    2  C   UNK N   1      35.877  14.424   8.671  0.00  0.00     0.002 A 
HETATM    3  C   UNK N   1      34.647  15.094   8.606  0.00  0.00     0.043 A 
HETATM    4  C   UNK N   1      34.108  15.377   7.367  0.00  0.00     0.066 A 
HETATM    5  N   UNK N   1      34.719  15.022   6.223  0.00  0.00    -0.307 N 
HETATM    6  C   UNK N   1      35.933  14.380   6.230  0.00  0.00     0.257 A 
HETATM    7  O   UNK N   1      36.471  14.071   5.179  0.00  0.00    -0.267 OA
HETATM    8  C   UNK N   1      36.539  14.069   7.471  0.00  0.00     0.044 A 
HETATM    9  C   UNK N   1      37.859  13.352   7.498  0.00  0.00     0.224 A 
HETATM   10  O   UNK N   1      38.346  13.062   8.759  0.00  0.00    -0.314 OA
HETATM   11  C   UNK N   1      37.752  13.349   9.945  0.00  0.00     0.298 A 
HETATM   12  O   UNK N   1      38.299  12.989  10.976  0.00  0.00    -0.261 OA
HETATM   13  C   UNK N   1      33.901  15.395   5.050  0.00  0.00     0.174 A 
HETATM   14  C   UNK N   1      32.695  16.024   5.732  0.00  0.00    -0.002 A 
HETATM   15  C   UNK N   1      32.875  16.011   7.087  0.00  0.00     0.068 A 
HETATM   16  N   UNK N   1      31.973  16.503   7.964  0.00  0.00    -0.353 N 
ATOM     17  HN  UNK N   1      32.156  16.461   8.968  1.00  0.00     0.166 HD
HETATM   18  C   UNK N   1      30.822  17.053   7.498  0.00  0.00     0.047 A 
HETATM   19  C   UNK N   1      29.903  17.580   8.402  0.00  0.00     0.073 A 
HETATM   20  C   UNK N   1      28.717  18.150   7.947  0.00  0.00     0.125 A 
HETATM   21  C   UNK N   1      28.437  18.205   6.572  0.00  0.00    -0.016 A 
HETATM   22  C   UNK N   1      29.357  17.677   5.642  0.00  0.00    -0.036 A 
HETATM   23  C   UNK N   1      30.556  17.089   6.100  0.00  0.00     0.007 A 
HETATM   24  C   UNK N   1      31.506  16.543   5.190  0.00  0.00    -0.013 A 
HETATM   25  C   UNK N   1      31.231  16.523   3.697  0.00  0.00     0.109 C 
HETATM   26  C   UNK N   1      29.731  16.625   3.411  0.00  0.00     0.034 C 
HETATM   27  C   UNK N   1      29.084  17.774   4.166  0.00  0.00     0.042 C 
HETATM   28  C   UNK N   1      27.161  18.833   6.113  0.00  0.00     0.052 C 
HETATM   29  F   UNK N   1      27.840  18.659   8.849  0.00  0.00    -0.205 F 
ENDROOT
BRANCH   1  30
HETATM   30  C   UNK N   1      36.588  15.386  10.825  0.00  0.00     0.049 C 
HETATM   31  C   UNK N   1      35.889  15.355  12.177  0.00  0.00     0.009 C 
ENDBRANCH   1  30
BRANCH   1  32
HETATM   32  O   UNK N   1      35.502  13.253  10.669  0.00  0.00    -0.375 OA
HETATM   33  H   UNK N   1      34.966  12.450  10.770  0.00  0.00     0.211 HD
ENDBRANCH   1  32
BRANCH  25  34
HETATM   34  N   UNK N   1      31.692  15.278   3.103  0.00  0.00    -0.422 N 
HETATM   35  H   UNK N   1      32.356  15.119   2.347  0.00  0.00     0.150 HD
HETATM   36  H   UNK N   1      31.287  14.432   3.506  0.00  0.00     0.150 HD
ENDBRANCH  25  34
TORSDOF 3
ENDMDL
