REMARK  3 active torsions:
REMARK  status: ('A' for Active; 'I' for Inactive)
REMARK    1  A    between atoms: C_3  and  C_2 
REMARK    2  A    between atoms: C_3  and  O_33 
REMARK    3  A    between atoms: C_27  and  N_30 
ROOT
HETATM    1  C   UNK N   1       6.401   0.999   0.460  0.00  0.00     0.173 A 
HETATM    2  C   UNK N   1       5.536  -0.201   0.184  0.00  0.00     0.002 A 
HETATM    3  C   UNK N   1       4.146  -0.023   0.154  0.00  0.00     0.043 A 
HETATM    4  C   UNK N   1       3.339  -1.124  -0.056  0.00  0.00     0.066 A 
HETATM    5  N   UNK N   1       3.843  -2.359  -0.220  0.00  0.00    -0.307 N 
HETATM    6  C   UNK N   1       5.197  -2.586  -0.216  0.00  0.00     0.257 A 
HETATM    7  O   UNK N   1       5.632  -3.715  -0.372  0.00  0.00    -0.267 OA
HETATM    8  C   UNK N   1       6.076  -1.494  -0.013  0.00  0.00     0.044 A 
HETATM    9  C   UNK N   1       7.560  -1.726   0.011  0.00  0.00     0.224 A 
HETATM   10  O   UNK N   1       8.328  -0.602   0.254  0.00  0.00    -0.314 OA
HETATM   11  C   UNK N   1       7.875   0.658   0.477  0.00  0.00     0.298 A 
HETATM   12  O   UNK N   1       8.688   1.538   0.714  0.00  0.00    -0.261 OA
HETATM   13  C   UNK N   1       2.761  -3.355  -0.369  0.00  0.00     0.174 A 
HETATM   14  C   UNK N   1       1.534  -2.463  -0.248  0.00  0.00    -0.002 A 
HETATM   15  C   UNK N   1       1.925  -1.163  -0.090  0.00  0.00     0.068 A 
HETATM   16  N   UNK N   1       1.060  -0.134   0.044  0.00  0.00    -0.353 N 
ATOM     17  HN  UNK N   1       1.407   0.818   0.166  1.00  0.00     0.166 HD
HETATM   18  C   UNK N   1      -0.276  -0.379   0.013  0.00  0.00     0.047 A 
HETATM   19  C   UNK N   1      -1.167   0.684   0.129  0.00  0.00     0.073 A 
HETATM   20  C   UNK N   1      -2.541   0.457   0.099  0.00  0.00     0.125 A 
HETATM   21  C   UNK N   1      -3.042  -0.845  -0.053  0.00  0.00    -0.016 A 
HETATM   22  C   UNK N   1      -2.154  -1.935  -0.173  0.00  0.00    -0.036 A 
HETATM   23  C   UNK N   1      -0.761  -1.710  -0.133  0.00  0.00     0.007 A 
HETATM   24  C   UNK N   1       0.165  -2.786  -0.247  0.00  0.00    -0.013 A 
HETATM   25  C   UNK N   1      -0.319  -4.221  -0.356  0.00  0.00     0.109 C 
HETATM   26  C   UNK N   1      -1.739  -4.367   0.195  0.00  0.00     0.034 C 
HETATM   27  C   UNK N   1      -2.684  -3.327  -0.382  0.00  0.00     0.042 C 
HETATM   28  C   UNK N   1      -4.521  -1.057  -0.093  0.00  0.00     0.052 C 
HETATM   29  F   UNK N   1      -3.387   1.512   0.210  0.00  0.00    -0.205 F 
ENDROOT
BRANCH   1  30
HETATM   30  C   UNK N   1       6.108   2.058  -0.616  0.00  0.00     0.049 C 
HETATM   31  C   UNK N   1       6.663   3.434  -0.275  0.00  0.00     0.009 C 
ENDBRANCH   1  30
BRANCH   1  32
HETATM   32  O   UNK N   1       6.046   1.502   1.716  0.00  0.00    -0.375 OA
HETATM   33  H   UNK N   1       6.225   1.890   2.588  0.00  0.00     0.211 HD
ENDBRANCH   1  32
BRANCH  25  34
HETATM   34  N   UNK N   1       0.530  -5.113   0.418  0.00  0.00    -0.422 N 
HETATM   35  H   UNK N   1       0.287  -5.941   0.961  0.00  0.00     0.150 HD
HETATM   36  H   UNK N   1       1.522  -4.873   0.418  0.00  0.00     0.150 HD
ENDBRANCH  25  34
TORSDOF 3
