REMARK  16 active torsions:
REMARK  status: ('A' for Active; 'I' for Inactive)
REMARK    1  A    between atoms: C_2  and  C_3 
REMARK    2  A    between atoms: C_5  and  C_3 
REMARK    3  A    between atoms: C_9  and  C_55 
REMARK    4  A    between atoms: C_13  and  C_51 
REMARK    5  A    between atoms: C_17  and  C_40 
REMARK    6  A    between atoms: C_26  and  C_30 
REMARK    7  A    between atoms: C_30  and  C_31 
REMARK       I    between atoms: C_40  and  N_42 
REMARK    8  A    between atoms: C_44  and  N_42 
REMARK    9  A    between atoms: C_44  and  C_45 
REMARK   10  A    between atoms: C_44  and  C_49 
REMARK   11  A    between atoms: C_45  and  C_46 
REMARK   12  A    between atoms: C_46  and  C_47 
REMARK   13  A    between atoms: C_47  and  N_48 
REMARK   14  A    between atoms: C_49  and  O_50 
REMARK   15  A    between atoms: C_51  and  C_52 
REMARK       I    between atoms: C_52  and  N_54 
REMARK   16  A    between atoms: C_55  and  C_57 
ROOT
HETATM    1  C   UNK N   1      -1.302   7.074   0.383  0.00  0.00     0.180 C 
HETATM    2  C   UNK N   1      -0.129   7.845  -0.131  0.00  0.00     0.241 C 
HETATM    3  O   UNK N   1      -0.180   8.296  -1.270  0.00  0.00    -0.271 OA
HETATM    4  N   UNK N   1       1.073   7.568   0.430  0.00  0.00    -0.346 N 
HETATM    5  C   UNK N   1       2.211   7.367  -0.428  0.00  0.00     0.180 C 
HETATM    6  C   UNK N   1       2.193   5.953  -0.970  0.00  0.00     0.241 C 
HETATM    7  O   UNK N   1       1.415   5.713  -1.877  0.00  0.00    -0.271 OA
HETATM    8  N   UNK N   1       2.882   4.915  -0.432  0.00  0.00    -0.346 N 
HETATM    9  C   UNK N   1       3.944   4.985   0.537  0.00  0.00     0.185 C 
HETATM   10  C   UNK N   1       4.232   3.581   1.008  0.00  0.00     0.241 C 
HETATM   11  O   UNK N   1       4.906   3.410   2.015  0.00  0.00    -0.271 OA
HETATM   12  N   UNK N   1       4.025   2.558   0.130  0.00  0.00    -0.346 N 
HETATM   13  C   UNK N   1       4.803   1.338   0.106  0.00  0.00     0.177 C 
HETATM   14  C   UNK N   1       4.542   0.452   1.324  0.00  0.00     0.045 C 
HETATM   15  C   UNK N   1       4.249  -0.996   0.924  0.00  0.00     0.076 C 
HETATM   16  S   UNK N   1       2.794  -1.137  -0.179  0.00  0.00    -0.169 SA
HETATM   17  C   UNK N   1       1.560  -0.750   1.111  0.00  0.00     0.083 C 
HETATM   18  C   UNK N   1       1.606   0.728   1.485  0.00  0.00     0.113 C 
HETATM   19  C   UNK N   1       1.127   1.634   0.397  0.00  0.00     0.219 C 
HETATM   20  O   UNK N   1       1.616   1.579  -0.723  0.00  0.00    -0.274 OA
HETATM   21  N   UNK N   1       0.170   2.543   0.681  0.00  0.00    -0.347 N 
HETATM   22  C   UNK N   1      -0.353   3.476  -0.299  0.00  0.00     0.180 C 
HETATM   23  C   UNK N   1      -0.948   4.665   0.405  0.00  0.00     0.241 C 
HETATM   24  O   UNK N   1      -1.041   4.664   1.626  0.00  0.00    -0.271 OA
HETATM   25  N   UNK N   1      -1.198   5.796  -0.289  0.00  0.00    -0.346 N 
HETATM   26  H   UNK N   1       1.166   7.505   1.408  0.00  0.00     0.163 HD
HETATM   27  H   UNK N   1       2.627   4.014  -0.738  0.00  0.00     0.163 HD
HETATM   28  H   UNK N   1       3.301   2.655  -0.530  0.00  0.00     0.163 HD
HETATM   29  H   UNK N   1      -0.190   2.573   1.597  0.00  0.00     0.163 HD
HETATM   30  H   UNK N   1      -1.311   5.750  -1.266  0.00  0.00     0.163 HD
ENDROOT
BRANCH  13  31
HETATM   31  C   UNK N   1       6.202   1.796  -0.233  0.00  0.00     0.242 C 
HETATM   32  O   UNK N   1       6.331   2.387  -1.305  0.00  0.00    -0.271 OA
HETATM   33  N   UNK N   1       7.273   1.728   0.614  0.00  0.00    -0.348 N 
HETATM   34  C   UNK N   1       7.222   1.020   1.873  0.00  0.00     0.153 C 
BRANCH  33  35
HETATM   35  C   UNK N   1       8.470   2.479   0.314  0.00  0.00     0.110 C 
BRANCH  35  36
HETATM   36  C   UNK N   1       9.191   2.224  -0.998  0.00  0.00     0.029 C 
BRANCH  36  37
HETATM   37  C   UNK N   1      10.415   1.371  -0.756  0.00  0.00     0.021 C 
BRANCH  37  38
HETATM   38  C   UNK N   1      11.670   2.181  -1.022  0.00  0.00     0.111 C 
BRANCH  38  39
HETATM   39  N   UNK N   1      11.842   3.195   0.003  0.00  0.00    -0.430 N 
HETATM   40  H   UNK N   1      12.519   3.447   0.724  0.00  0.00     0.149 HD
HETATM   41  H   UNK N   1      11.056   3.846   0.003  0.00  0.00     0.149 HD
ENDBRANCH  38  39
ENDBRANCH  37  38
ENDBRANCH  36  37
ENDBRANCH  35  36
BRANCH  35  42
HETATM   42  C   UNK N   1       8.953   3.509   1.328  0.00  0.00     0.189 C 
BRANCH  42  43
HETATM   43  O   UNK N   1       7.939   4.425   1.610  0.00  0.00    -0.399 OA
HETATM   44  H   UNK N   1       8.138   5.354   1.807  0.00  0.00     0.209 HD
ENDBRANCH  42  43
ENDBRANCH  35  42
ENDBRANCH  33  35
ENDBRANCH  13  31
BRANCH   9  45
HETATM   45  C   UNK N   1       5.182   5.341  -0.293  0.00  0.00     0.137 C 
BRANCH  45  46
HETATM   46  C   UNK N   1       6.105   6.381   0.246  0.00  0.00     0.217 C 
HETATM   47  O   UNK N   1       5.879   6.938   1.307  0.00  0.00    -0.274 OA
HETATM   48  N   UNK N   1       7.180   6.735  -0.484  0.00  0.00    -0.370 N 
HETATM   49  H   UNK N   1       7.798   6.184  -1.017  0.00  0.00     0.159 HD
HETATM   50  H   UNK N   1       7.381   7.699  -0.484  0.00  0.00     0.159 HD
ENDBRANCH  45  46
ENDBRANCH   9  45
BRANCH   5  51
HETATM   51  C   UNK N   1       3.446   8.267  -0.293  0.00  0.00     0.013 C 
HETATM   52  C   UNK N   1       4.270   8.132  -1.559  0.00  0.00     0.012 C 
BRANCH  51  53
HETATM   53  C   UNK N   1       3.051   9.739  -0.213  0.00  0.00     0.002 C 
HETATM   54  C   UNK N   1       2.641  10.140   1.189  0.00  0.00     0.005 C 
ENDBRANCH  51  53
ENDBRANCH   5  51
BRANCH  22  55
HETATM   55  C   UNK N   1      -1.248   2.831  -1.386  0.00  0.00     0.075 C 
BRANCH  55  56
HETATM   56  C   UNK N   1      -1.453   1.364  -1.152  0.00  0.00    -0.028 A 
HETATM   57  C   UNK N   1      -0.919   0.305  -1.882  0.00  0.00     0.096 A 
HETATM   58  N   UNK N   1      -1.237  -0.868  -1.273  0.00  0.00    -0.365 N 
HETATM   59  C   UNK N   1      -1.956  -0.537  -0.183  0.00  0.00     0.042 A 
HETATM   60  H   UNK N   1      -0.992  -1.774  -1.569  0.00  0.00     0.165 HD
HETATM   61  C   UNK N   1      -2.110   0.813  -0.089  0.00  0.00    -0.002 A 
HETATM   62  C   UNK N   1      -2.478  -1.399   0.777  0.00  0.00     0.030 A 
HETATM   63  C   UNK N   1      -2.795   1.414   0.963  0.00  0.00     0.014 A 
HETATM   64  C   UNK N   1      -3.344   0.575   1.945  0.00  0.00     0.001 A 
HETATM   65  C   UNK N   1      -3.184  -0.827   1.855  0.00  0.00     0.002 A 
ENDBRANCH  55  56
ENDBRANCH  22  55
BRANCH   1  66
HETATM   66  C   UNK N   1      -2.646   7.771   0.152  0.00  0.00     0.013 C 
HETATM   67  C   UNK N   1      -2.695   9.021   1.013  0.00  0.00     0.012 C 
BRANCH  66  68
HETATM   68  C   UNK N   1      -3.818   6.887   0.554  0.00  0.00     0.002 C 
HETATM   69  C   UNK N   1      -4.158   5.903  -0.551  0.00  0.00     0.005 C 
ENDBRANCH  66  68
ENDBRANCH   1  66
TORSDOF 16
