MODEL 1
REMARK VINA RESULT:      -6.3      0.000      0.000
REMARK  5 active torsions:
REMARK  status: ('A' for Active; 'I' for Inactive)
REMARK    1  A    between atoms: C_7  and  C_5 
REMARK    2  A    between atoms: C_5  and  O_14 
REMARK    3  A    between atoms: C_6  and  C_9 
REMARK    4  A    between atoms: C_12  and  C_8 
REMARK    5  A    between atoms: O_17  and  C_12 
ROOT
HETATM    1  C   UNK N   1      35.912  14.810  10.491  0.00  0.00     0.130 A 
HETATM    2  C   UNK N   1      34.464  16.705   8.139  0.00  0.00     0.108 C 
HETATM    3  C   UNK N   1      34.672  15.908   7.066  0.00  0.00     0.037 C 
HETATM    4  C   UNK N   1      35.425  16.216  10.324  0.00  0.00     0.214 A 
HETATM    5  C   UNK N   1      34.849  14.582   9.281  0.00  0.00     0.153 A 
HETATM    6  N   UNK N   1      34.614  15.978   9.332  0.00  0.00    -0.197 NA
HETATM    7  O   UNK N   1      36.022  17.266  10.520  0.00  0.00    -0.279 OA
HETATM    8  S   UNK N   1      35.376  14.294   7.555  0.00  0.00    -0.108 SA
ENDROOT
BRANCH   3   9
HETATM    9  C   UNK N   1      34.446  16.164   5.584  0.00  0.00     0.163 C 
HETATM   10  C   UNK N   1      34.612  14.840   4.864  0.00  0.00     0.039 C 
HETATM   11  C   UNK N   1      33.775  14.994   3.636  0.00  0.00     0.029 C 
HETATM   12  C   UNK N   1      32.928  16.207   3.939  0.00  0.00     0.168 C 
HETATM   13  O   UNK N   1      33.160  16.611   5.265  0.00  0.00    -0.381 OA
ENDBRANCH   3   9
BRANCH   2  14
HETATM   14  C   UNK N   1      34.097  18.158   8.184  0.00  0.00     0.189 C 
HETATM   15  O   UNK N   1      32.919  18.474   8.151  0.00  0.00    -0.645 OA
BRANCH  14  16
HETATM   16  O   UNK N   1      35.014  19.124   8.358  0.00  0.00    -0.772 OA
HETATM   17  H   UNK N   1      35.107  19.574   9.174  0.00  0.00     0.167 HD
ENDBRANCH  14  16
ENDBRANCH   2  14
BRANCH   1  18
HETATM   18  C   UNK N   1      35.470  14.142  11.815  0.00  0.00     0.129 C 
HETATM   19  C   UNK N   1      36.153  14.760  13.021  0.00  0.00     0.040 C 
BRANCH  18  20
HETATM   20  O   UNK N   1      34.088  14.143  12.012  0.00  0.00    -0.395 OA
HETATM   21  H   UNK N   1      33.191  13.923  12.311  0.00  0.00     0.210 HD
ENDBRANCH  18  20
ENDBRANCH   1  18
TORSDOF 5
ENDMDL
MODEL 2
REMARK VINA RESULT:      -6.0     10.981     13.256
REMARK  5 active torsions:
REMARK  status: ('A' for Active; 'I' for Inactive)
REMARK    1  A    between atoms: C_7  and  C_5 
REMARK    2  A    between atoms: C_5  and  O_14 
REMARK    3  A    between atoms: C_6  and  C_9 
REMARK    4  A    between atoms: C_12  and  C_8 
REMARK    5  A    between atoms: O_17  and  C_12 
ROOT
HETATM    1  C   UNK N   1      25.966  19.548   3.637  0.00  0.00     0.130 A 
HETATM    2  C   UNK N   1      22.654  19.749   3.178  0.00  0.00     0.108 C 
HETATM    3  C   UNK N   1      22.294  18.551   3.691  0.00  0.00     0.037 C 
HETATM    4  C   UNK N   1      24.987  20.383   2.873  0.00  0.00     0.214 A 
HETATM    5  C   UNK N   1      24.632  19.278   4.529  0.00  0.00     0.153 A 
HETATM    6  N   UNK N   1      23.945  20.104   3.604  0.00  0.00    -0.197 NA
HETATM    7  O   UNK N   1      24.968  20.647   1.678  0.00  0.00    -0.279 OA
HETATM    8  S   UNK N   1      23.713  17.700   4.467  0.00  0.00    -0.108 SA
ENDROOT
BRANCH   3   9
HETATM    9  C   UNK N   1      20.954  17.833   3.684  0.00  0.00     0.163 C 
HETATM   10  C   UNK N   1      21.066  16.671   2.717  0.00  0.00     0.039 C 
HETATM   11  C   UNK N   1      20.063  15.686   3.224  0.00  0.00     0.029 C 
HETATM   12  C   UNK N   1      19.747  16.191   4.612  0.00  0.00     0.168 C 
HETATM   13  O   UNK N   1      20.595  17.270   4.914  0.00  0.00    -0.381 OA
ENDBRANCH   3   9
BRANCH   2  14
HETATM   14  C   UNK N   1      21.873  20.674   2.294  0.00  0.00     0.189 C 
HETATM   15  O   UNK N   1      21.716  20.382   1.120  0.00  0.00    -0.645 OA
BRANCH  14  16
HETATM   16  O   UNK N   1      21.254  21.768   2.769  0.00  0.00    -0.772 OA
HETATM   17  H   UNK N   1      21.053  21.865   3.679  0.00  0.00     0.167 HD
ENDBRANCH  14  16
ENDBRANCH   2  14
BRANCH   1  18
HETATM   18  C   UNK N   1      27.040  20.366   4.393  0.00  0.00     0.129 C 
HETATM   19  C   UNK N   1      26.722  20.494   5.872  0.00  0.00     0.040 C 
BRANCH  18  20
HETATM   20  O   UNK N   1      28.336  19.872   4.237  0.00  0.00    -0.395 OA
HETATM   21  H   UNK N   1      29.143  19.338   4.312  0.00  0.00     0.210 HD
ENDBRANCH  18  20
ENDBRANCH   1  18
TORSDOF 5
ENDMDL
MODEL 3
REMARK VINA RESULT:      -5.9     13.574     15.530
REMARK  5 active torsions:
REMARK  status: ('A' for Active; 'I' for Inactive)
REMARK    1  A    between atoms: C_7  and  C_5 
REMARK    2  A    between atoms: C_5  and  O_14 
REMARK    3  A    between atoms: C_6  and  C_9 
REMARK    4  A    between atoms: C_12  and  C_8 
REMARK    5  A    between atoms: O_17  and  C_12 
ROOT
HETATM    1  C   UNK N   1      19.760  15.061   4.610  0.00  0.00     0.130 A 
HETATM    2  C   UNK N   1      20.157  15.762   7.861  0.00  0.00     0.108 C 
HETATM    3  C   UNK N   1      20.959  14.730   8.205  0.00  0.00     0.037 C 
HETATM    4  C   UNK N   1      19.138  15.934   5.653  0.00  0.00     0.214 A 
HETATM    5  C   UNK N   1      21.005  15.156   5.653  0.00  0.00     0.153 A 
HETATM    6  N   UNK N   1      20.156  15.946   6.468  0.00  0.00    -0.197 NA
HETATM    7  O   UNK N   1      17.962  16.024   5.982  0.00  0.00    -0.279 OA
HETATM    8  S   UNK N   1      21.480  13.767   6.742  0.00  0.00    -0.108 SA
ENDROOT
BRANCH   3   9
HETATM    9  C   UNK N   1      21.438  14.260   9.570  0.00  0.00     0.163 C 
HETATM   10  C   UNK N   1      20.388  13.315  10.119  0.00  0.00     0.039 C 
HETATM   11  C   UNK N   1      21.155  12.429  11.046  0.00  0.00     0.029 C 
HETATM   12  C   UNK N   1      22.594  12.689  10.669  0.00  0.00     0.168 C 
HETATM   13  O   UNK N   1      22.630  13.529   9.543  0.00  0.00    -0.381 OA
ENDBRANCH   3   9
BRANCH   2  14
HETATM   14  C   UNK N   1      19.352  16.672   8.740  0.00  0.00     0.189 C 
HETATM   15  O   UNK N   1      19.834  17.736   9.091  0.00  0.00    -0.645 OA
BRANCH  14  16
HETATM   16  O   UNK N   1      18.080  16.403   9.077  0.00  0.00    -0.772 OA
HETATM   17  H   UNK N   1      17.540  15.841   8.556  0.00  0.00     0.167 HD
ENDBRANCH  14  16
ENDBRANCH   2  14
BRANCH   1  18
HETATM   18  C   UNK N   1      20.042  15.781   3.269  0.00  0.00     0.129 C 
HETATM   19  C   UNK N   1      19.778  14.883   2.074  0.00  0.00     0.040 C 
BRANCH  18  20
HETATM   20  O   UNK N   1      19.340  16.978   3.115  0.00  0.00    -0.395 OA
HETATM   21  H   UNK N   1      18.978  17.803   2.756  0.00  0.00     0.210 HD
ENDBRANCH  18  20
ENDBRANCH   1  18
TORSDOF 5
ENDMDL
MODEL 4
REMARK VINA RESULT:      -5.8     14.248     16.690
REMARK  5 active torsions:
REMARK  status: ('A' for Active; 'I' for Inactive)
REMARK    1  A    between atoms: C_7  and  C_5 
REMARK    2  A    between atoms: C_5  and  O_14 
REMARK    3  A    between atoms: C_6  and  C_9 
REMARK    4  A    between atoms: C_12  and  C_8 
REMARK    5  A    between atoms: O_17  and  C_12 
ROOT
HETATM    1  C   UNK N   1      26.700  25.431  -4.895  0.00  0.00     0.130 A 
HETATM    2  C   UNK N   1      29.232  23.717  -3.526  0.00  0.00     0.108 C 
HETATM    3  C   UNK N   1      29.882  23.359  -4.656  0.00  0.00     0.037 C 
HETATM    4  C   UNK N   1      27.064  24.831  -3.574  0.00  0.00     0.214 A 
HETATM    5  C   UNK N   1      28.318  25.380  -5.063  0.00  0.00     0.153 A 
HETATM    6  N   UNK N   1      28.351  24.783  -3.778  0.00  0.00    -0.197 NA
HETATM    7  O   UNK N   1      26.425  24.053  -2.878  0.00  0.00    -0.279 OA
HETATM    8  S   UNK N   1      29.155  24.155  -6.131  0.00  0.00    -0.108 SA
ENDROOT
BRANCH   3   9
HETATM    9  C   UNK N   1      31.051  22.410  -4.867  0.00  0.00     0.163 C 
HETATM   10  C   UNK N   1      30.488  21.005  -4.941  0.00  0.00     0.039 C 
HETATM   11  C   UNK N   1      31.488  20.262  -5.767  0.00  0.00     0.029 C 
HETATM   12  C   UNK N   1      32.313  21.362  -6.391  0.00  0.00     0.168 C 
HETATM   13  O   UNK N   1      31.744  22.605  -6.066  0.00  0.00    -0.381 OA
ENDBRANCH   3   9
BRANCH   2  14
HETATM   14  C   UNK N   1      29.360  23.159  -2.141  0.00  0.00     0.189 C 
HETATM   15  O   UNK N   1      30.463  23.099  -1.624  0.00  0.00    -0.645 OA
BRANCH  14  16
HETATM   16  O   UNK N   1      28.289  22.812  -1.406  0.00  0.00    -0.772 OA
HETATM   17  H   UNK N   1      27.433  22.754  -1.780  0.00  0.00     0.167 HD
ENDBRANCH  14  16
ENDBRANCH   2  14
BRANCH   1  18
HETATM   18  C   UNK N   1      26.150  26.875  -4.804  0.00  0.00     0.129 C 
HETATM   19  C   UNK N   1      24.943  27.082  -5.701  0.00  0.00     0.040 C 
BRANCH  18  20
HETATM   20  O   UNK N   1      25.839  27.277  -3.504  0.00  0.00    -0.395 OA
HETATM   21  H   UNK N   1      25.903  27.560  -2.579  0.00  0.00     0.210 HD
ENDBRANCH  18  20
ENDBRANCH   1  18
TORSDOF 5
ENDMDL
MODEL 5
REMARK VINA RESULT:      -5.7     16.679     18.993
REMARK  5 active torsions:
REMARK  status: ('A' for Active; 'I' for Inactive)
REMARK    1  A    between atoms: C_7  and  C_5 
REMARK    2  A    between atoms: C_5  and  O_14 
REMARK    3  A    between atoms: C_6  and  C_9 
REMARK    4  A    between atoms: C_12  and  C_8 
REMARK    5  A    between atoms: O_17  and  C_12 
ROOT
HETATM    1  C   UNK N   1      26.101  28.621  -4.208  0.00  0.00     0.130 A 
HETATM    2  C   UNK N   1      27.220  25.487  -4.585  0.00  0.00     0.108 C 
HETATM    3  C   UNK N   1      26.850  25.281  -5.869  0.00  0.00     0.037 C 
HETATM    4  C   UNK N   1      26.577  27.489  -3.353  0.00  0.00     0.214 A 
HETATM    5  C   UNK N   1      26.975  27.805  -5.311  0.00  0.00     0.153 A 
HETATM    6  N   UNK N   1      27.234  26.860  -4.287  0.00  0.00    -0.197 NA
HETATM    7  O   UNK N   1      26.029  26.965  -2.392  0.00  0.00    -0.279 OA
HETATM    8  S   UNK N   1      26.202  26.808  -6.633  0.00  0.00    -0.108 SA
ENDROOT
BRANCH   3   9
HETATM    9  C   UNK N   1      26.864  24.016  -6.713  0.00  0.00     0.163 C 
HETATM   10  C   UNK N   1      25.750  23.121  -6.208  0.00  0.00     0.039 C 
HETATM   11  C   UNK N   1      25.390  22.292  -7.398  0.00  0.00     0.029 C 
HETATM   12  C   UNK N   1      26.045  23.023  -8.545  0.00  0.00     0.168 C 
HETATM   13  O   UNK N   1      26.597  24.225  -8.070  0.00  0.00    -0.381 OA
ENDBRANCH   3   9
BRANCH   2  14
HETATM   14  C   UNK N   1      27.610  24.486  -3.538  0.00  0.00     0.189 C 
HETATM   15  O   UNK N   1      28.783  24.173  -3.424  0.00  0.00    -0.645 OA
BRANCH  14  16
HETATM   16  O   UNK N   1      26.727  23.993  -2.654  0.00  0.00    -0.772 OA
HETATM   17  H   UNK N   1      25.885  24.385  -2.527  0.00  0.00     0.167 HD
ENDBRANCH  14  16
ENDBRANCH   2  14
BRANCH   1  18
HETATM   18  C   UNK N   1      26.720  29.992  -3.844  0.00  0.00     0.129 C 
HETATM   19  C   UNK N   1      27.700  30.472  -4.899  0.00  0.00     0.040 C 
BRANCH  18  20
HETATM   20  O   UNK N   1      25.774  30.989  -3.599  0.00  0.00    -0.395 OA
HETATM   21  H   UNK N   1      24.943  31.460  -3.429  0.00  0.00     0.210 HD
ENDBRANCH  18  20
ENDBRANCH   1  18
TORSDOF 5
ENDMDL
MODEL 6
REMARK VINA RESULT:      -5.7     13.919     15.915
REMARK  5 active torsions:
REMARK  status: ('A' for Active; 'I' for Inactive)
REMARK    1  A    between atoms: C_7  and  C_5 
REMARK    2  A    between atoms: C_5  and  O_14 
REMARK    3  A    between atoms: C_6  and  C_9 
REMARK    4  A    between atoms: C_12  and  C_8 
REMARK    5  A    between atoms: O_17  and  C_12 
ROOT
HETATM    1  C   UNK N   1      21.050  18.536   2.386  0.00  0.00     0.130 A 
HETATM    2  C   UNK N   1      19.965  16.586   4.884  0.00  0.00     0.108 C 
HETATM    3  C   UNK N   1      21.040  16.667   5.700  0.00  0.00     0.037 C 
HETATM    4  C   UNK N   1      19.963  17.541   2.641  0.00  0.00     0.214 A 
HETATM    5  C   UNK N   1      20.984  18.625   4.009  0.00  0.00     0.153 A 
HETATM    6  N   UNK N   1      19.979  17.629   3.942  0.00  0.00    -0.197 NA
HETATM    7  O   UNK N   1      19.666  16.542   1.999  0.00  0.00    -0.279 OA
HETATM    8  S   UNK N   1      22.260  17.880   5.085  0.00  0.00    -0.108 SA
ENDROOT
BRANCH   3   9
HETATM    9  C   UNK N   1      21.377  15.905   6.972  0.00  0.00     0.163 C 
HETATM   10  C   UNK N   1      20.475  16.433   8.070  0.00  0.00     0.039 C 
HETATM   11  C   UNK N   1      20.365  15.288   9.023  0.00  0.00     0.029 C 
HETATM   12  C   UNK N   1      20.885  14.116   8.225  0.00  0.00     0.168 C 
HETATM   13  O   UNK N   1      21.129  14.530   6.904  0.00  0.00    -0.381 OA
ENDBRANCH   3   9
BRANCH   2  14
HETATM   14  C   UNK N   1      18.839  15.597   4.894  0.00  0.00     0.189 C 
HETATM   15  O   UNK N   1      17.923  15.747   5.686  0.00  0.00    -0.645 OA
BRANCH  14  16
HETATM   16  O   UNK N   1      18.751  14.602   3.995  0.00  0.00    -0.772 OA
HETATM   17  H   UNK N   1      19.494  14.316   3.502  0.00  0.00     0.167 HD
ENDBRANCH  14  16
ENDBRANCH   2  14
BRANCH   1  18
HETATM   18  C   UNK N   1      20.570  19.833   1.692  0.00  0.00     0.129 C 
HETATM   19  C   UNK N   1      21.241  21.068   2.266  0.00  0.00     0.040 C 
BRANCH  18  20
HETATM   20  O   UNK N   1      20.727  19.821   0.305  0.00  0.00    -0.395 OA
HETATM   21  H   UNK N   1      20.936  19.554  -0.604  0.00  0.00     0.210 HD
ENDBRANCH  18  20
ENDBRANCH   1  18
TORSDOF 5
ENDMDL
MODEL 7
REMARK VINA RESULT:      -5.6      5.354      6.908
REMARK  5 active torsions:
REMARK  status: ('A' for Active; 'I' for Inactive)
REMARK    1  A    between atoms: C_7  and  C_5 
REMARK    2  A    between atoms: C_5  and  O_14 
REMARK    3  A    between atoms: C_6  and  C_9 
REMARK    4  A    between atoms: C_12  and  C_8 
REMARK    5  A    between atoms: O_17  and  C_12 
ROOT
HETATM    1  C   UNK N   1      35.666  12.603  16.595  0.00  0.00     0.130 A 
HETATM    2  C   UNK N   1      35.148  12.920  13.300  0.00  0.00     0.108 C 
HETATM    3  C   UNK N   1      34.875  11.629  13.003  0.00  0.00     0.037 C 
HETATM    4  C   UNK N   1      35.902  13.610  15.513  0.00  0.00     0.214 A 
HETATM    5  C   UNK N   1      34.545  12.111  15.524  0.00  0.00     0.153 A 
HETATM    6  N   UNK N   1      35.011  13.149  14.680  0.00  0.00    -0.197 NA
HETATM    7  O   UNK N   1      36.941  14.178  15.202  0.00  0.00    -0.279 OA
HETATM    8  S   UNK N   1      34.752  10.604  14.510  0.00  0.00    -0.108 SA
ENDROOT
BRANCH   3   9
HETATM    9  C   UNK N   1      34.700  10.939  11.659  0.00  0.00     0.163 C 
HETATM   10  C   UNK N   1      33.648   9.862  11.836  0.00  0.00     0.039 C 
HETATM   11  C   UNK N   1      33.066   9.704  10.468  0.00  0.00     0.029 C 
HETATM   12  C   UNK N   1      33.555  10.930   9.735  0.00  0.00     0.168 C 
HETATM   13  O   UNK N   1      34.225  11.771  10.640  0.00  0.00    -0.381 OA
ENDBRANCH   3   9
BRANCH   2  14
HETATM   14  C   UNK N   1      35.525  14.045  12.384  0.00  0.00     0.189 C 
HETATM   15  O   UNK N   1      34.646  14.745  11.911  0.00  0.00    -0.645 OA
BRANCH  14  16
HETATM   16  O   UNK N   1      36.805  14.373  12.142  0.00  0.00    -0.772 OA
HETATM   17  H   UNK N   1      37.262  14.998  12.670  0.00  0.00     0.167 HD
ENDBRANCH  14  16
ENDBRANCH   2  14
BRANCH   1  18
HETATM   18  C   UNK N   1      35.048  13.195  17.884  0.00  0.00     0.129 C 
HETATM   19  C   UNK N   1      35.226  12.271  19.076  0.00  0.00     0.040 C 
BRANCH  18  20
HETATM   20  O   UNK N   1      35.527  14.466  18.206  0.00  0.00    -0.395 OA
HETATM   21  H   UNK N   1      35.875  15.234  18.686  0.00  0.00     0.210 HD
ENDBRANCH  18  20
ENDBRANCH   1  18
TORSDOF 5
ENDMDL
MODEL 8
REMARK VINA RESULT:      -5.5     13.394     16.346
REMARK  5 active torsions:
REMARK  status: ('A' for Active; 'I' for Inactive)
REMARK    1  A    between atoms: C_7  and  C_5 
REMARK    2  A    between atoms: C_5  and  O_14 
REMARK    3  A    between atoms: C_6  and  C_9 
REMARK    4  A    between atoms: C_12  and  C_8 
REMARK    5  A    between atoms: O_17  and  C_12 
ROOT
HETATM    1  C   UNK N   1      31.207  23.008  -2.737  0.00  0.00     0.130 A 
HETATM    2  C   UNK N   1      28.636  24.693  -4.069  0.00  0.00     0.108 C 
HETATM    3  C   UNK N   1      29.261  25.862  -4.332  0.00  0.00     0.037 C 
HETATM    4  C   UNK N   1      29.717  22.892  -2.833  0.00  0.00     0.214 A 
HETATM    5  C   UNK N   1      30.953  23.923  -4.057  0.00  0.00     0.153 A 
HETATM    6  N   UNK N   1      29.572  23.663  -3.874  0.00  0.00    -0.197 NA
HETATM    7  O   UNK N   1      28.897  22.743  -1.937  0.00  0.00    -0.279 OA
HETATM    8  S   UNK N   1      31.058  25.748  -4.021  0.00  0.00    -0.108 SA
ENDROOT
BRANCH   3   9
HETATM    9  C   UNK N   1      28.705  27.200  -4.793  0.00  0.00     0.163 C 
HETATM   10  C   UNK N   1      28.234  27.028  -6.223  0.00  0.00     0.039 C 
HETATM   11  C   UNK N   1      27.167  28.063  -6.375  0.00  0.00     0.029 C 
HETATM   12  C   UNK N   1      26.866  28.468  -4.951  0.00  0.00     0.168 C 
HETATM   13  O   UNK N   1      27.588  27.639  -4.075  0.00  0.00    -0.381 OA
ENDBRANCH   3   9
BRANCH   2  14
HETATM   14  C   UNK N   1      27.168  24.398  -3.993  0.00  0.00     0.189 C 
HETATM   15  O   UNK N   1      26.549  24.199  -5.025  0.00  0.00    -0.645 OA
BRANCH  14  16
HETATM   16  O   UNK N   1      26.526  24.248  -2.822  0.00  0.00    -0.772 OA
HETATM   17  H   UNK N   1      26.974  23.981  -2.045  0.00  0.00     0.167 HD
ENDBRANCH  14  16
ENDBRANCH   2  14
BRANCH   1  18
HETATM   18  C   UNK N   1      31.964  21.695  -3.050  0.00  0.00     0.129 C 
HETATM   19  C   UNK N   1      32.871  21.837  -4.259  0.00  0.00     0.040 C 
BRANCH  18  20
HETATM   20  O   UNK N   1      32.700  21.199  -1.973  0.00  0.00    -0.395 OA
HETATM   21  H   UNK N   1      33.208  20.621  -1.382  0.00  0.00     0.210 HD
ENDBRANCH  18  20
ENDBRANCH   1  18
TORSDOF 5
ENDMDL
MODEL 9
REMARK VINA RESULT:      -5.5     16.845     19.368
REMARK  5 active torsions:
REMARK  status: ('A' for Active; 'I' for Inactive)
REMARK    1  A    between atoms: C_7  and  C_5 
REMARK    2  A    between atoms: C_5  and  O_14 
REMARK    3  A    between atoms: C_6  and  C_9 
REMARK    4  A    between atoms: C_12  and  C_8 
REMARK    5  A    between atoms: O_17  and  C_12 
ROOT
HETATM    1  C   UNK N   1      26.526  23.539  -8.162  0.00  0.00     0.130 A 
HETATM    2  C   UNK N   1      26.920  24.881  -5.118  0.00  0.00     0.108 C 
HETATM    3  C   UNK N   1      26.921  26.189  -5.460  0.00  0.00     0.037 C 
HETATM    4  C   UNK N   1      26.918  23.103  -6.785  0.00  0.00     0.214 A 
HETATM    5  C   UNK N   1      25.831  24.729  -7.298  0.00  0.00     0.153 A 
HETATM    6  N   UNK N   1      26.370  24.100  -6.148  0.00  0.00    -0.197 NA
HETATM    7  O   UNK N   1      27.915  22.491  -6.425  0.00  0.00    -0.279 OA
HETATM    8  S   UNK N   1      26.518  26.421  -7.227  0.00  0.00    -0.108 SA
ENDROOT
BRANCH   3   9
HETATM    9  C   UNK N   1      27.228  27.429  -4.635  0.00  0.00     0.163 C 
HETATM   10  C   UNK N   1      27.319  28.601  -5.592  0.00  0.00     0.039 C 
HETATM   11  C   UNK N   1      26.959  29.780  -4.748  0.00  0.00     0.029 C 
HETATM   12  C   UNK N   1      26.343  29.156  -3.518  0.00  0.00     0.168 C 
HETATM   13  O   UNK N   1      26.233  27.768  -3.712  0.00  0.00    -0.381 OA
ENDBRANCH   3   9
BRANCH   2  14
HETATM   14  C   UNK N   1      27.384  24.233  -3.848  0.00  0.00     0.189 C 
HETATM   15  O   UNK N   1      26.580  24.042  -2.951  0.00  0.00    -0.645 OA
BRANCH  14  16
HETATM   16  O   UNK N   1      28.635  23.765  -3.698  0.00  0.00    -0.772 OA
HETATM   17  H   UNK N   1      29.348  24.328  -3.469  0.00  0.00     0.167 HD
ENDBRANCH  14  16
ENDBRANCH   2  14
BRANCH   1  18
HETATM   18  C   UNK N   1      25.495  22.612  -8.848  0.00  0.00     0.129 C 
HETATM   19  C   UNK N   1      26.044  21.214  -9.069  0.00  0.00     0.040 C 
BRANCH  18  20
HETATM   20  O   UNK N   1      24.275  22.531  -8.175  0.00  0.00    -0.395 OA
HETATM   21  H   UNK N   1      23.571  22.620  -7.513  0.00  0.00     0.210 HD
ENDBRANCH  18  20
ENDBRANCH   1  18
TORSDOF 5
ENDMDL
