MODEL 1
REMARK VINA RESULT:      -9.0      0.000      0.000
REMARK  8 active torsions:
REMARK  status: ('A' for Active; 'I' for Inactive)
REMARK    1  A    between atoms: N_4  and  C_9 
REMARK    2  A    between atoms: C_12  and  C_15 
REMARK       I    between atoms: C_15  and  N_17 
REMARK    3  A    between atoms: N_17  and  C_18 
REMARK    4  A    between atoms: C_20  and  C_24 
REMARK    5  A    between atoms: C_24  and  C_25 
REMARK    6  A    between atoms: C_25  and  C_26 
REMARK    7  A    between atoms: C_28  and  O_34 
REMARK    8  A    between atoms: C_30  and  O_32 
ROOT
HETATM    1  C   UNK N   1      34.921  16.270  10.385  0.00  0.00     0.124 A 
HETATM    2  C   UNK N   1      35.770  15.595  11.251  0.00  0.00     0.076 A 
HETATM    3  C   UNK N   1      35.013  14.481  11.622  0.00  0.00     0.029 A 
HETATM    4  N   UNK N   1      33.815  14.518  11.019  0.00  0.00    -0.303 N 
HETATM    5  N   UNK N   1      33.760  15.598  10.272  0.00  0.00    -0.285 N 
ATOM      6  HN  UNK N   1      32.966  15.881   9.698  1.00  0.00     0.188 HD
HETATM    7  H   UNK N   1      33.098  13.850  11.120  0.00  0.00     0.186 HD
ENDROOT
BRANCH   1   8
HETATM    8  N   UNK N   1      35.100  17.491   9.687  0.00  0.00    -0.308 N 
HETATM    9  C   UNK N   1      34.595  18.182   8.626  0.00  0.00     0.257 C 
HETATM   10  O   UNK N   1      35.142  19.246   8.375  0.00  0.00    -0.267 OA
HETATM   11  H   UNK N   1      35.826  18.008  10.104  0.00  0.00     0.170 HD
BRANCH   9  12
HETATM   12  C   UNK N   1      33.466  17.789   7.718  0.00  0.00     0.032 A 
HETATM   13  C   UNK N   1      33.561  17.443   6.355  0.00  0.00     0.019 A 
HETATM   14  C   UNK N   1      32.389  17.109   5.624  0.00  0.00     0.030 A 
HETATM   15  C   UNK N   1      31.120  17.130   6.251  0.00  0.00     0.030 A 
HETATM   16  C   UNK N   1      31.055  17.462   7.604  0.00  0.00     0.030 A 
HETATM   17  C   UNK N   1      32.197  17.775   8.314  0.00  0.00     0.019 A 
BRANCH  15  18
HETATM   18  N   UNK N   1      29.895  16.886   5.546  0.00  0.00    -0.377 N 
HETATM   19  C   UNK N   1      29.223  15.604   5.565  0.00  0.00     0.147 C 
HETATM   20  C   UNK N   1      27.703  15.820   5.704  0.00  0.00     0.091 C 
HETATM   21  C   UNK N   1      26.986  14.503   5.490  0.00  0.00     0.033 C 
HETATM   22  N   UNK N   1      27.214  16.787   4.716  0.00  0.00    -0.411 N 
HETATM   23  C   UNK N   1      27.871  18.073   4.943  0.00  0.00     0.091 C 
HETATM   24  H   UNK N   1      26.527  16.594   3.987  0.00  0.00     0.154 HD
HETATM   25  C   UNK N   1      29.356  17.914   4.675  0.00  0.00     0.147 C 
HETATM   26  C   UNK N   1      27.303  19.111   3.997  0.00  0.00     0.033 C 
ENDBRANCH  15  18
ENDBRANCH   9  12
ENDBRANCH   1   8
BRANCH   3  27
HETATM   27  C   UNK N   1      35.401  13.385  12.559  0.00  0.00     0.063 C 
BRANCH  27  28
HETATM   28  C   UNK N   1      36.027  13.953  13.834  0.00  0.00     0.045 C 
BRANCH  28  29
HETATM   29  C   UNK N   1      36.001  13.016  15.012  0.00  0.00    -0.052 A 
HETATM   30  C   UNK N   1      36.324  11.670  14.810  0.00  0.00     0.044 A 
HETATM   31  C   UNK N   1      36.233  10.746  15.856  0.00  0.00     0.071 A 
HETATM   32  C   UNK N   1      35.795  11.176  17.119  0.00  0.00     0.073 A 
HETATM   33  C   UNK N   1      35.454  12.523  17.336  0.00  0.00     0.071 A 
HETATM   34  C   UNK N   1      35.561  13.440  16.277  0.00  0.00     0.044 A 
BRANCH  31  35
HETATM   35  O   UNK N   1      36.556   9.451  15.620  0.00  0.00    -0.356 OA
HETATM   36  C   UNK N   1      37.382   8.718  16.441  0.00  0.00     0.210 C 
ENDBRANCH  31  35
BRANCH  33  37
HETATM   37  O   UNK N   1      35.007  12.949  18.543  0.00  0.00    -0.356 OA
HETATM   38  C   UNK N   1      35.392  12.373  19.735  0.00  0.00     0.210 C 
ENDBRANCH  33  37
ENDBRANCH  28  29
ENDBRANCH  27  28
ENDBRANCH   3  27
TORSDOF 8
ENDMDL
MODEL 2
REMARK VINA RESULT:      -9.0      0.854      2.435
REMARK  8 active torsions:
REMARK  status: ('A' for Active; 'I' for Inactive)
REMARK    1  A    between atoms: N_4  and  C_9 
REMARK    2  A    between atoms: C_12  and  C_15 
REMARK       I    between atoms: C_15  and  N_17 
REMARK    3  A    between atoms: N_17  and  C_18 
REMARK    4  A    between atoms: C_20  and  C_24 
REMARK    5  A    between atoms: C_24  and  C_25 
REMARK    6  A    between atoms: C_25  and  C_26 
REMARK    7  A    between atoms: C_28  and  O_34 
REMARK    8  A    between atoms: C_30  and  O_32 
ROOT
HETATM    1  C   UNK N   1      34.804  16.231  10.282  0.00  0.00     0.124 A 
HETATM    2  C   UNK N   1      35.668  15.491  11.077  0.00  0.00     0.076 A 
HETATM    3  C   UNK N   1      34.881  14.402  11.463  0.00  0.00     0.029 A 
HETATM    4  N   UNK N   1      33.653  14.514  10.934  0.00  0.00    -0.303 N 
HETATM    5  N   UNK N   1      33.606  15.617  10.220  0.00  0.00    -0.285 N 
ATOM      6  HN  UNK N   1      32.795  15.954   9.702  1.00  0.00     0.188 HD
HETATM    7  H   UNK N   1      32.912  13.877  11.059  0.00  0.00     0.186 HD
ENDROOT
BRANCH   1   8
HETATM    8  N   UNK N   1      35.000  17.463   9.608  0.00  0.00    -0.308 N 
HETATM    9  C   UNK N   1      34.523  18.169   8.545  0.00  0.00     0.257 C 
HETATM   10  O   UNK N   1      35.076  19.237   8.325  0.00  0.00    -0.267 OA
HETATM   11  H   UNK N   1      35.714  17.974  10.053  0.00  0.00     0.170 HD
BRANCH   9  12
HETATM   12  C   UNK N   1      33.420  17.790   7.600  0.00  0.00     0.032 A 
HETATM   13  C   UNK N   1      33.552  17.468   6.235  0.00  0.00     0.019 A 
HETATM   14  C   UNK N   1      32.401  17.145   5.467  0.00  0.00     0.030 A 
HETATM   15  C   UNK N   1      31.115  17.151   6.061  0.00  0.00     0.030 A 
HETATM   16  C   UNK N   1      31.013  17.460   7.417  0.00  0.00     0.030 A 
HETATM   17  C   UNK N   1      32.135  17.763   8.162  0.00  0.00     0.019 A 
BRANCH  15  18
HETATM   18  N   UNK N   1      29.910  16.918   5.319  0.00  0.00    -0.377 N 
HETATM   19  C   UNK N   1      28.725  17.736   5.474  0.00  0.00     0.147 C 
HETATM   20  C   UNK N   1      28.104  18.011   4.090  0.00  0.00     0.091 C 
HETATM   21  C   UNK N   1      26.748  18.663   4.268  0.00  0.00     0.033 C 
HETATM   22  N   UNK N   1      27.932  16.768   3.331  0.00  0.00    -0.411 N 
HETATM   23  C   UNK N   1      29.241  16.155   3.119  0.00  0.00     0.091 C 
HETATM   24  H   UNK N   1      27.042  16.391   3.005  0.00  0.00     0.154 HD
HETATM   25  C   UNK N   1      29.811  15.749   4.466  0.00  0.00     0.147 C 
HETATM   26  C   UNK N   1      29.094  14.923   2.250  0.00  0.00     0.033 C 
ENDBRANCH  15  18
ENDBRANCH   9  12
ENDBRANCH   1   8
BRANCH   3  27
HETATM   27  C   UNK N   1      35.270  13.262  12.344  0.00  0.00     0.063 C 
BRANCH  27  28
HETATM   28  C   UNK N   1      35.924  13.766  13.631  0.00  0.00     0.045 C 
BRANCH  28  29
HETATM   29  C   UNK N   1      35.776  12.842  14.809  0.00  0.00    -0.052 A 
HETATM   30  C   UNK N   1      35.416  13.381  16.049  0.00  0.00     0.044 A 
HETATM   31  C   UNK N   1      35.348  12.575  17.190  0.00  0.00     0.071 A 
HETATM   32  C   UNK N   1      35.662  11.211  17.089  0.00  0.00     0.073 A 
HETATM   33  C   UNK N   1      36.037  10.653  15.854  0.00  0.00     0.071 A 
HETATM   34  C   UNK N   1      36.091  11.476  14.716  0.00  0.00     0.044 A 
BRANCH  31  35
HETATM   35  O   UNK N   1      34.995  13.137  18.372  0.00  0.00    -0.356 OA
HETATM   36  C   UNK N   1      35.299  12.580  19.593  0.00  0.00     0.210 C 
ENDBRANCH  31  35
BRANCH  33  37
HETATM   37  O   UNK N   1      36.366   9.343  15.745  0.00  0.00    -0.356 OA
HETATM   38  C   UNK N   1      37.591   8.840  16.129  0.00  0.00     0.210 C 
ENDBRANCH  33  37
ENDBRANCH  28  29
ENDBRANCH  27  28
ENDBRANCH   3  27
TORSDOF 8
ENDMDL
MODEL 3
REMARK VINA RESULT:      -8.5      8.026     12.667
REMARK  8 active torsions:
REMARK  status: ('A' for Active; 'I' for Inactive)
REMARK    1  A    between atoms: N_4  and  C_9 
REMARK    2  A    between atoms: C_12  and  C_15 
REMARK       I    between atoms: C_15  and  N_17 
REMARK    3  A    between atoms: N_17  and  C_18 
REMARK    4  A    between atoms: C_20  and  C_24 
REMARK    5  A    between atoms: C_24  and  C_25 
REMARK    6  A    between atoms: C_25  and  C_26 
REMARK    7  A    between atoms: C_28  and  O_34 
REMARK    8  A    between atoms: C_30  and  O_32 
ROOT
HETATM    1  C   UNK N   1      21.689  18.860   3.653  0.00  0.00     0.124 A 
HETATM    2  C   UNK N   1      21.716  18.248   4.899  0.00  0.00     0.076 A 
HETATM    3  C   UNK N   1      20.630  17.370   4.838  0.00  0.00     0.029 A 
HETATM    4  N   UNK N   1      20.020  17.476   3.647  0.00  0.00    -0.303 N 
HETATM    5  N   UNK N   1      20.660  18.374   2.932  0.00  0.00    -0.285 N 
ATOM      6  HN  UNK N   1      20.417  18.658   1.983  1.00  0.00     0.188 HD
HETATM    7  H   UNK N   1      19.228  16.967   3.359  0.00  0.00     0.186 HD
ENDROOT
BRANCH   1   8
HETATM    8  N   UNK N   1      22.522  19.867   3.104  0.00  0.00    -0.308 N 
HETATM    9  C   UNK N   1      23.821  20.279   3.114  0.00  0.00     0.257 C 
HETATM   10  O   UNK N   1      24.062  21.292   2.471  0.00  0.00    -0.267 OA
HETATM   11  H   UNK N   1      21.989  20.461   2.530  0.00  0.00     0.170 HD
BRANCH   9  12
HETATM   12  C   UNK N   1      24.985  19.659   3.829  0.00  0.00     0.032 A 
HETATM   13  C   UNK N   1      25.333  18.294   3.849  0.00  0.00     0.019 A 
HETATM   14  C   UNK N   1      26.463  17.859   4.593  0.00  0.00     0.030 A 
HETATM   15  C   UNK N   1      27.242  18.788   5.326  0.00  0.00     0.030 A 
HETATM   16  C   UNK N   1      26.885  20.135   5.279  0.00  0.00     0.030 A 
HETATM   17  C   UNK N   1      25.792  20.554   4.546  0.00  0.00     0.019 A 
BRANCH  15  18
HETATM   18  N   UNK N   1      28.340  18.399   6.162  0.00  0.00    -0.377 N 
HETATM   19  C   UNK N   1      28.494  18.872   7.521  0.00  0.00     0.147 C 
HETATM   20  C   UNK N   1      28.953  17.710   8.424  0.00  0.00     0.091 C 
HETATM   21  C   UNK N   1      29.336  18.251   9.786  0.00  0.00     0.033 C 
HETATM   22  N   UNK N   1      30.112  17.020   7.849  0.00  0.00    -0.411 N 
HETATM   23  C   UNK N   1      29.737  16.458   6.553  0.00  0.00     0.091 C 
HETATM   24  H   UNK N   1      31.032  16.945   8.282  0.00  0.00     0.154 HD
HETATM   25  C   UNK N   1      29.414  17.598   5.605  0.00  0.00     0.147 C 
HETATM   26  C   UNK N   1      30.892  15.656   5.990  0.00  0.00     0.033 C 
ENDBRANCH  15  18
ENDBRANCH   9  12
ENDBRANCH   1   8
BRANCH   3  27
HETATM   27  C   UNK N   1      20.147  16.442   5.902  0.00  0.00     0.063 C 
BRANCH  27  28
HETATM   28  C   UNK N   1      20.979  16.590   7.176  0.00  0.00     0.045 C 
BRANCH  28  29
HETATM   29  C   UNK N   1      21.356  15.288   7.830  0.00  0.00    -0.052 A 
HETATM   30  C   UNK N   1      20.538  14.782   8.846  0.00  0.00     0.044 A 
HETATM   31  C   UNK N   1      20.891  13.620   9.540  0.00  0.00     0.071 A 
HETATM   32  C   UNK N   1      22.092  12.967   9.222  0.00  0.00     0.073 A 
HETATM   33  C   UNK N   1      22.933  13.468   8.213  0.00  0.00     0.071 A 
HETATM   34  C   UNK N   1      22.558  14.631   7.519  0.00  0.00     0.044 A 
BRANCH  31  35
HETATM   35  O   UNK N   1      20.071  13.162  10.516  0.00  0.00    -0.356 OA
HETATM   36  C   UNK N   1      20.448  12.208  11.434  0.00  0.00     0.210 C 
ENDBRANCH  31  35
BRANCH  33  37
HETATM   37  O   UNK N   1      24.107  12.862   7.910  0.00  0.00    -0.356 OA
HETATM   38  C   UNK N   1      25.245  13.557   7.561  0.00  0.00     0.210 C 
ENDBRANCH  33  37
ENDBRANCH  28  29
ENDBRANCH  27  28
ENDBRANCH   3  27
TORSDOF 8
ENDMDL
MODEL 4
REMARK VINA RESULT:      -8.4      7.913     12.623
REMARK  8 active torsions:
REMARK  status: ('A' for Active; 'I' for Inactive)
REMARK    1  A    between atoms: N_4  and  C_9 
REMARK    2  A    between atoms: C_12  and  C_15 
REMARK       I    between atoms: C_15  and  N_17 
REMARK    3  A    between atoms: N_17  and  C_18 
REMARK    4  A    between atoms: C_20  and  C_24 
REMARK    5  A    between atoms: C_24  and  C_25 
REMARK    6  A    between atoms: C_25  and  C_26 
REMARK    7  A    between atoms: C_28  and  O_34 
REMARK    8  A    between atoms: C_30  and  O_32 
ROOT
HETATM    1  C   UNK N   1      21.983  19.008   3.600  0.00  0.00     0.124 A 
HETATM    2  C   UNK N   1      21.968  18.313   4.801  0.00  0.00     0.076 A 
HETATM    3  C   UNK N   1      20.772  17.593   4.729  0.00  0.00     0.029 A 
HETATM    4  N   UNK N   1      20.143  17.863   3.574  0.00  0.00    -0.303 N 
HETATM    5  N   UNK N   1      20.875  18.716   2.892  0.00  0.00    -0.285 N 
ATOM      6  HN  UNK N   1      20.642  19.095   1.975  1.00  0.00     0.188 HD
HETATM    7  H   UNK N   1      19.280  17.485   3.287  0.00  0.00     0.186 HD
ENDROOT
BRANCH   1   8
HETATM    8  N   UNK N   1      22.927  19.931   3.083  0.00  0.00    -0.308 N 
HETATM    9  C   UNK N   1      24.262  20.203   3.119  0.00  0.00     0.257 C 
HETATM   10  O   UNK N   1      24.618  21.196   2.501  0.00  0.00    -0.267 OA
HETATM   11  H   UNK N   1      22.469  20.590   2.514  0.00  0.00     0.170 HD
BRANCH   9  12
HETATM   12  C   UNK N   1      25.343  19.449   3.837  0.00  0.00     0.032 A 
HETATM   13  C   UNK N   1      25.823  18.162   3.525  0.00  0.00     0.019 A 
HETATM   14  C   UNK N   1      26.846  17.573   4.317  0.00  0.00     0.030 A 
HETATM   15  C   UNK N   1      27.384  18.269   5.428  0.00  0.00     0.030 A 
HETATM   16  C   UNK N   1      26.901  19.547   5.707  0.00  0.00     0.030 A 
HETATM   17  C   UNK N   1      25.915  20.119   4.928  0.00  0.00     0.019 A 
BRANCH  15  18
HETATM   18  N   UNK N   1      28.355  17.694   6.313  0.00  0.00    -0.377 N 
HETATM   19  C   UNK N   1      29.372  16.768   5.863  0.00  0.00     0.147 C 
HETATM   20  C   UNK N   1      30.714  17.105   6.543  0.00  0.00     0.091 C 
HETATM   21  C   UNK N   1      31.714  16.004   6.256  0.00  0.00     0.033 C 
HETATM   22  N   UNK N   1      30.555  17.229   7.996  0.00  0.00    -0.411 N 
HETATM   23  C   UNK N   1      29.624  18.318   8.281  0.00  0.00     0.091 C 
HETATM   24  H   UNK N   1      31.018  16.649   8.694  0.00  0.00     0.154 HD
HETATM   25  C   UNK N   1      28.256  17.942   7.739  0.00  0.00     0.147 C 
HETATM   26  C   UNK N   1      29.525  18.527   9.778  0.00  0.00     0.033 C 
ENDBRANCH  15  18
ENDBRANCH   9  12
ENDBRANCH   1   8
BRANCH   3  27
HETATM   27  C   UNK N   1      20.202  16.665   5.750  0.00  0.00     0.063 C 
BRANCH  27  28
HETATM   28  C   UNK N   1      20.891  16.852   7.103  0.00  0.00     0.045 C 
BRANCH  28  29
HETATM   29  C   UNK N   1      21.286  15.570   7.784  0.00  0.00    -0.052 A 
HETATM   30  C   UNK N   1      22.385  14.856   7.295  0.00  0.00     0.044 A 
HETATM   31  C   UNK N   1      22.739  13.619   7.841  0.00  0.00     0.071 A 
HETATM   32  C   UNK N   1      21.967  13.081   8.884  0.00  0.00     0.073 A 
HETATM   33  C   UNK N   1      20.852  13.778   9.381  0.00  0.00     0.071 A 
HETATM   34  C   UNK N   1      20.517  15.025   8.826  0.00  0.00     0.044 A 
BRANCH  31  35
HETATM   35  O   UNK N   1      23.810  12.960   7.339  0.00  0.00    -0.356 OA
HETATM   36  C   UNK N   1      23.790  12.290   6.137  0.00  0.00     0.210 C 
ENDBRANCH  31  35
BRANCH  33  37
HETATM   37  O   UNK N   1      20.083  13.262  10.370  0.00  0.00    -0.356 OA
HETATM   38  C   UNK N   1      20.539  12.314  11.262  0.00  0.00     0.210 C 
ENDBRANCH  33  37
ENDBRANCH  28  29
ENDBRANCH  27  28
ENDBRANCH   3  27
TORSDOF 8
ENDMDL
MODEL 5
REMARK VINA RESULT:      -8.4      8.481     13.446
REMARK  8 active torsions:
REMARK  status: ('A' for Active; 'I' for Inactive)
REMARK    1  A    between atoms: N_4  and  C_9 
REMARK    2  A    between atoms: C_12  and  C_15 
REMARK       I    between atoms: C_15  and  N_17 
REMARK    3  A    between atoms: N_17  and  C_18 
REMARK    4  A    between atoms: C_20  and  C_24 
REMARK    5  A    between atoms: C_24  and  C_25 
REMARK    6  A    between atoms: C_25  and  C_26 
REMARK    7  A    between atoms: C_28  and  O_34 
REMARK    8  A    between atoms: C_30  and  O_32 
ROOT
HETATM    1  C   UNK N   1      21.197  18.361   3.133  0.00  0.00     0.124 A 
HETATM    2  C   UNK N   1      21.662  17.139   3.597  0.00  0.00     0.076 A 
HETATM    3  C   UNK N   1      20.502  16.360   3.641  0.00  0.00     0.029 A 
HETATM    4  N   UNK N   1      19.447  17.086   3.238  0.00  0.00    -0.303 N 
HETATM    5  N   UNK N   1      19.867  18.294   2.931  0.00  0.00    -0.285 N 
ATOM      6  HN  UNK N   1      19.280  19.056   2.593  1.00  0.00     0.188 HD
HETATM    7  H   UNK N   1      18.517  16.768   3.183  0.00  0.00     0.186 HD
ENDROOT
BRANCH   1   8
HETATM    8  N   UNK N   1      21.886  19.577   2.893  0.00  0.00    -0.308 N 
HETATM    9  C   UNK N   1      23.093  20.166   3.122  0.00  0.00     0.257 C 
HETATM   10  O   UNK N   1      23.205  21.319   2.731  0.00  0.00    -0.267 OA
HETATM   11  H   UNK N   1      21.301  20.197   2.401  0.00  0.00     0.170 HD
BRANCH   9  12
HETATM   12  C   UNK N   1      24.293  19.583   3.810  0.00  0.00     0.032 A 
HETATM   13  C   UNK N   1      24.477  18.239   4.191  0.00  0.00     0.019 A 
HETATM   14  C   UNK N   1      25.670  17.846   4.855  0.00  0.00     0.030 A 
HETATM   15  C   UNK N   1      26.678  18.798   5.147  0.00  0.00     0.030 A 
HETATM   16  C   UNK N   1      26.477  20.118   4.747  0.00  0.00     0.030 A 
HETATM   17  C   UNK N   1      25.321  20.495   4.093  0.00  0.00     0.019 A 
BRANCH  15  18
HETATM   18  N   UNK N   1      27.863  18.479   5.888  0.00  0.00    -0.377 N 
HETATM   19  C   UNK N   1      28.109  18.982   7.223  0.00  0.00     0.147 C 
HETATM   20  C   UNK N   1      28.705  17.859   8.096  0.00  0.00     0.091 C 
HETATM   21  C   UNK N   1      29.176  18.442   9.413  0.00  0.00     0.033 C 
HETATM   22  N   UNK N   1      29.844  17.220   7.430  0.00  0.00    -0.411 N 
HETATM   23  C   UNK N   1      29.387  16.618   6.179  0.00  0.00     0.091 C 
HETATM   24  H   UNK N   1      30.801  17.198   7.782  0.00  0.00     0.154 HD
HETATM   25  C   UNK N   1      28.925  17.725   5.249  0.00  0.00     0.147 C 
HETATM   26  C   UNK N   1      30.529  15.866   5.527  0.00  0.00     0.033 C 
ENDBRANCH  15  18
ENDBRANCH   9  12
ENDBRANCH   1   8
BRANCH   3  27
HETATM   27  C   UNK N   1      20.373  14.939   4.078  0.00  0.00     0.063 C 
BRANCH  27  28
HETATM   28  C   UNK N   1      21.519  14.549   5.012  0.00  0.00     0.045 C 
BRANCH  28  29
HETATM   29  C   UNK N   1      21.183  14.627   6.477  0.00  0.00    -0.052 A 
HETATM   30  C   UNK N   1      20.964  15.883   7.053  0.00  0.00     0.044 A 
HETATM   31  C   UNK N   1      20.733  16.012   8.426  0.00  0.00     0.071 A 
HETATM   32  C   UNK N   1      20.738  14.865   9.236  0.00  0.00     0.073 A 
HETATM   33  C   UNK N   1      20.968  13.596   8.677  0.00  0.00     0.071 A 
HETATM   34  C   UNK N   1      21.189  13.484   7.294  0.00  0.00     0.044 A 
BRANCH  31  35
HETATM   35  O   UNK N   1      20.524  17.246   8.945  0.00  0.00    -0.356 OA
HETATM   36  C   UNK N   1      19.293  17.861   8.961  0.00  0.00     0.210 C 
ENDBRANCH  31  35
BRANCH  33  37
HETATM   37  O   UNK N   1      21.000  12.483   9.449  0.00  0.00    -0.356 OA
HETATM   38  C   UNK N   1      21.269  12.511  10.801  0.00  0.00     0.210 C 
ENDBRANCH  33  37
ENDBRANCH  28  29
ENDBRANCH  27  28
ENDBRANCH   3  27
TORSDOF 8
ENDMDL
MODEL 6
REMARK VINA RESULT:      -8.3      2.366      3.692
REMARK  8 active torsions:
REMARK  status: ('A' for Active; 'I' for Inactive)
REMARK    1  A    between atoms: N_4  and  C_9 
REMARK    2  A    between atoms: C_12  and  C_15 
REMARK       I    between atoms: C_15  and  N_17 
REMARK    3  A    between atoms: N_17  and  C_18 
REMARK    4  A    between atoms: C_20  and  C_24 
REMARK    5  A    between atoms: C_24  and  C_25 
REMARK    6  A    between atoms: C_25  and  C_26 
REMARK    7  A    between atoms: C_28  and  O_34 
REMARK    8  A    between atoms: C_30  and  O_32 
ROOT
HETATM    1  C   UNK N   1      35.676  12.852  12.131  0.00  0.00     0.124 A 
HETATM    2  C   UNK N   1      35.564  12.703  13.506  0.00  0.00     0.076 A 
HETATM    3  C   UNK N   1      34.535  11.766  13.634  0.00  0.00     0.029 A 
HETATM    4  N   UNK N   1      34.085  11.409  12.421  0.00  0.00    -0.303 N 
HETATM    5  N   UNK N   1      34.774  12.064  11.513  0.00  0.00    -0.285 N 
ATOM      6  HN  UNK N   1      34.648  11.987  10.505  1.00  0.00     0.188 HD
HETATM    7  H   UNK N   1      33.361  10.766  12.241  0.00  0.00     0.186 HD
ENDROOT
BRANCH   1   8
HETATM    8  N   UNK N   1      36.530  13.682  11.362  0.00  0.00    -0.308 N 
HETATM    9  C   UNK N   1      36.484  14.580  10.338  0.00  0.00     0.257 C 
HETATM   10  O   UNK N   1      37.562  15.030   9.976  0.00  0.00    -0.267 OA
HETATM   11  H   UNK N   1      37.459  13.574  11.667  0.00  0.00     0.170 HD
BRANCH   9  12
HETATM   12  C   UNK N   1      35.279  15.068   9.587  0.00  0.00     0.032 A 
HETATM   13  C   UNK N   1      34.628  14.416   8.522  0.00  0.00     0.019 A 
HETATM   14  C   UNK N   1      33.502  15.021   7.900  0.00  0.00     0.030 A 
HETATM   15  C   UNK N   1      33.031  16.283   8.338  0.00  0.00     0.030 A 
HETATM   16  C   UNK N   1      33.686  16.901   9.403  0.00  0.00     0.030 A 
HETATM   17  C   UNK N   1      34.773  16.305  10.011  0.00  0.00     0.019 A 
BRANCH  15  18
HETATM   18  N   UNK N   1      31.956  16.982   7.696  0.00  0.00    -0.377 N 
HETATM   19  C   UNK N   1      31.814  17.046   6.257  0.00  0.00     0.147 C 
HETATM   20  C   UNK N   1      30.331  16.862   5.876  0.00  0.00     0.091 C 
HETATM   21  C   UNK N   1      30.149  17.160   4.402  0.00  0.00     0.033 C 
HETATM   22  N   UNK N   1      29.471  17.766   6.648  0.00  0.00    -0.411 N 
HETATM   23  C   UNK N   1      29.609  17.456   8.069  0.00  0.00     0.091 C 
HETATM   24  H   UNK N   1      28.874  18.494   6.256  0.00  0.00     0.154 HD
HETATM   25  C   UNK N   1      31.033  17.764   8.497  0.00  0.00     0.147 C 
HETATM   26  C   UNK N   1      28.653  18.312   8.874  0.00  0.00     0.033 C 
ENDBRANCH  15  18
ENDBRANCH   9  12
ENDBRANCH   1   8
BRANCH   3  27
HETATM   27  C   UNK N   1      33.955  11.214  14.894  0.00  0.00     0.063 C 
BRANCH  27  28
HETATM   28  C   UNK N   1      35.050  10.642  15.795  0.00  0.00     0.045 C 
BRANCH  28  29
HETATM   29  C   UNK N   1      35.176  11.321  17.132  0.00  0.00    -0.052 A 
HETATM   30  C   UNK N   1      35.087  10.545  18.293  0.00  0.00     0.044 A 
HETATM   31  C   UNK N   1      35.114  11.141  19.558  0.00  0.00     0.071 A 
HETATM   32  C   UNK N   1      35.215  12.538  19.659  0.00  0.00     0.073 A 
HETATM   33  C   UNK N   1      35.293  13.334  18.503  0.00  0.00     0.071 A 
HETATM   34  C   UNK N   1      35.275  12.718  17.240  0.00  0.00     0.044 A 
BRANCH  31  35
HETATM   35  O   UNK N   1      35.026  10.355  20.658  0.00  0.00    -0.356 OA
HETATM   36  C   UNK N   1      36.111   9.725  21.224  0.00  0.00     0.210 C 
ENDBRANCH  31  35
BRANCH  33  37
HETATM   37  O   UNK N   1      35.367  14.685  18.583  0.00  0.00    -0.356 OA
HETATM   38  C   UNK N   1      36.188  15.444  17.777  0.00  0.00     0.210 C 
ENDBRANCH  33  37
ENDBRANCH  28  29
ENDBRANCH  27  28
ENDBRANCH   3  27
TORSDOF 8
ENDMDL
MODEL 7
REMARK VINA RESULT:      -8.3      8.245     12.876
REMARK  8 active torsions:
REMARK  status: ('A' for Active; 'I' for Inactive)
REMARK    1  A    between atoms: N_4  and  C_9 
REMARK    2  A    between atoms: C_12  and  C_15 
REMARK       I    between atoms: C_15  and  N_17 
REMARK    3  A    between atoms: N_17  and  C_18 
REMARK    4  A    between atoms: C_20  and  C_24 
REMARK    5  A    between atoms: C_24  and  C_25 
REMARK    6  A    between atoms: C_25  and  C_26 
REMARK    7  A    between atoms: C_28  and  O_34 
REMARK    8  A    between atoms: C_30  and  O_32 
ROOT
HETATM    1  C   UNK N   1      21.193  18.519   3.500  0.00  0.00     0.124 A 
HETATM    2  C   UNK N   1      21.059  17.995   4.778  0.00  0.00     0.076 A 
HETATM    3  C   UNK N   1      20.132  16.964   4.596  0.00  0.00     0.029 A 
HETATM    4  N   UNK N   1      19.756  16.907   3.309  0.00  0.00    -0.303 N 
HETATM    5  N   UNK N   1      20.397  17.845   2.647  0.00  0.00    -0.285 N 
ATOM      6  HN  UNK N   1      20.308  18.031   1.648  1.00  0.00     0.188 HD
HETATM    7  H   UNK N   1      19.110  16.271   2.925  0.00  0.00     0.186 HD
ENDROOT
BRANCH   1   8
HETATM    8  N   UNK N   1      21.975  19.602   3.027  0.00  0.00    -0.308 N 
HETATM    9  C   UNK N   1      23.246  20.091   3.093  0.00  0.00     0.257 C 
HETATM   10  O   UNK N   1      23.439  21.150   2.512  0.00  0.00    -0.267 OA
HETATM   11  H   UNK N   1      21.420  20.194   2.470  0.00  0.00     0.170 HD
BRANCH   9  12
HETATM   12  C   UNK N   1      24.429  19.504   3.806  0.00  0.00     0.032 A 
HETATM   13  C   UNK N   1      24.624  18.149   4.141  0.00  0.00     0.019 A 
HETATM   14  C   UNK N   1      25.799  17.752   4.836  0.00  0.00     0.030 A 
HETATM   15  C   UNK N   1      26.775  18.710   5.204  0.00  0.00     0.030 A 
HETATM   16  C   UNK N   1      26.563  20.042   4.849  0.00  0.00     0.030 A 
HETATM   17  C   UNK N   1      25.426  20.422   4.164  0.00  0.00     0.019 A 
BRANCH  15  18
HETATM   18  N   UNK N   1      27.936  18.384   5.980  0.00  0.00    -0.377 N 
HETATM   19  C   UNK N   1      28.162  18.910   7.310  0.00  0.00     0.147 C 
HETATM   20  C   UNK N   1      28.714  17.795   8.219  0.00  0.00     0.091 C 
HETATM   21  C   UNK N   1      29.167  18.395   9.534  0.00  0.00     0.033 C 
HETATM   22  N   UNK N   1      29.856  17.119   7.593  0.00  0.00    -0.411 N 
HETATM   23  C   UNK N   1      29.416  16.501   6.344  0.00  0.00     0.091 C 
HETATM   24  H   UNK N   1      30.804  17.087   7.968  0.00  0.00     0.154 HD
HETATM   25  C   UNK N   1      28.997  17.596   5.381  0.00  0.00     0.147 C 
HETATM   26  C   UNK N   1      30.558  15.713   5.734  0.00  0.00     0.033 C 
ENDBRANCH  15  18
ENDBRANCH   9  12
ENDBRANCH   1   8
BRANCH   3  27
HETATM   27  C   UNK N   1      19.579  16.041   5.630  0.00  0.00     0.063 C 
BRANCH  27  28
HETATM   28  C   UNK N   1      19.982  16.491   7.035  0.00  0.00     0.045 C 
BRANCH  28  29
HETATM   29  C   UNK N   1      20.800  15.486   7.801  0.00  0.00    -0.052 A 
HETATM   30  C   UNK N   1      22.058  15.123   7.308  0.00  0.00     0.044 A 
HETATM   31  C   UNK N   1      22.818  14.133   7.939  0.00  0.00     0.071 A 
HETATM   32  C   UNK N   1      22.300  13.486   9.072  0.00  0.00     0.073 A 
HETATM   33  C   UNK N   1      21.033  13.828   9.574  0.00  0.00     0.071 A 
HETATM   34  C   UNK N   1      20.287  14.833   8.934  0.00  0.00     0.044 A 
BRANCH  31  35
HETATM   35  O   UNK N   1      24.032  13.812   7.430  0.00  0.00    -0.356 OA
HETATM   36  C   UNK N   1      24.860  14.725   6.819  0.00  0.00     0.210 C 
ENDBRANCH  31  35
BRANCH  33  37
HETATM   37  O   UNK N   1      20.509  13.196  10.653  0.00  0.00    -0.356 OA
HETATM   38  C   UNK N   1      21.133  12.140  11.284  0.00  0.00     0.210 C 
ENDBRANCH  33  37
ENDBRANCH  28  29
ENDBRANCH  27  28
ENDBRANCH   3  27
TORSDOF 8
ENDMDL
MODEL 8
REMARK VINA RESULT:      -8.2      8.556     13.573
REMARK  8 active torsions:
REMARK  status: ('A' for Active; 'I' for Inactive)
REMARK    1  A    between atoms: N_4  and  C_9 
REMARK    2  A    between atoms: C_12  and  C_15 
REMARK       I    between atoms: C_15  and  N_17 
REMARK    3  A    between atoms: N_17  and  C_18 
REMARK    4  A    between atoms: C_20  and  C_24 
REMARK    5  A    between atoms: C_24  and  C_25 
REMARK    6  A    between atoms: C_25  and  C_26 
REMARK    7  A    between atoms: C_28  and  O_34 
REMARK    8  A    between atoms: C_30  and  O_32 
ROOT
HETATM    1  C   UNK N   1      21.112  18.324   2.994  0.00  0.00     0.124 A 
HETATM    2  C   UNK N   1      21.206  17.376   4.004  0.00  0.00     0.076 A 
HETATM    3  C   UNK N   1      20.267  16.415   3.617  0.00  0.00     0.029 A 
HETATM    4  N   UNK N   1      19.673  16.789   2.473  0.00  0.00    -0.303 N 
HETATM    5  N   UNK N   1      20.183  17.940   2.096  0.00  0.00    -0.285 N 
ATOM      6  HN  UNK N   1      19.920  18.459   1.259  1.00  0.00     0.188 HD
HETATM    7  H   UNK N   1      18.972  16.286   1.997  0.00  0.00     0.186 HD
ENDROOT
BRANCH   1   8
HETATM    8  N   UNK N   1      21.794  19.554   2.820  0.00  0.00    -0.308 N 
HETATM    9  C   UNK N   1      23.000  20.135   3.077  0.00  0.00     0.257 C 
HETATM   10  O   UNK N   1      23.104  21.309   2.752  0.00  0.00    -0.267 OA
HETATM   11  H   UNK N   1      21.204  20.199   2.368  0.00  0.00     0.170 HD
BRANCH   9  12
HETATM   12  C   UNK N   1      24.206  19.519   3.726  0.00  0.00     0.032 A 
HETATM   13  C   UNK N   1      24.463  18.144   3.894  0.00  0.00     0.019 A 
HETATM   14  C   UNK N   1      25.651  17.719   4.549  0.00  0.00     0.030 A 
HETATM   15  C   UNK N   1      26.578  18.669   5.044  0.00  0.00     0.030 A 
HETATM   16  C   UNK N   1      26.305  20.023   4.853  0.00  0.00     0.030 A 
HETATM   17  C   UNK N   1      25.156  20.432   4.207  0.00  0.00     0.019 A 
BRANCH  15  18
HETATM   18  N   UNK N   1      27.749  18.303   5.787  0.00  0.00    -0.377 N 
HETATM   19  C   UNK N   1      28.082  18.899   7.064  0.00  0.00     0.147 C 
HETATM   20  C   UNK N   1      28.593  17.807   8.025  0.00  0.00     0.091 C 
HETATM   21  C   UNK N   1      29.157  18.457   9.272  0.00  0.00     0.033 C 
HETATM   22  N   UNK N   1      29.645  17.001   7.398  0.00  0.00    -0.411 N 
HETATM   23  C   UNK N   1      29.095  16.336   6.219  0.00  0.00     0.091 C 
HETATM   24  H   UNK N   1      30.605  16.917   7.731  0.00  0.00     0.154 HD
HETATM   25  C   UNK N   1      28.714  17.394   5.199  0.00  0.00     0.147 C 
HETATM   26  C   UNK N   1      30.140  15.419   5.616  0.00  0.00     0.033 C 
ENDBRANCH  15  18
ENDBRANCH   9  12
ENDBRANCH   1   8
BRANCH   3  27
HETATM   27  C   UNK N   1      19.908  15.152   4.328  0.00  0.00     0.063 C 
BRANCH  27  28
HETATM   28  C   UNK N   1      21.044  14.701   5.247  0.00  0.00     0.045 C 
BRANCH  28  29
HETATM   29  C   UNK N   1      20.749  14.839   6.716  0.00  0.00    -0.052 A 
HETATM   30  C   UNK N   1      20.964  13.738   7.553  0.00  0.00     0.044 A 
HETATM   31  C   UNK N   1      20.627  13.791   8.909  0.00  0.00     0.071 A 
HETATM   32  C   UNK N   1      20.049  14.960   9.429  0.00  0.00     0.073 A 
HETATM   33  C   UNK N   1      19.814  16.071   8.601  0.00  0.00     0.071 A 
HETATM   34  C   UNK N   1      20.169  16.004   7.243  0.00  0.00     0.044 A 
BRANCH  31  35
HETATM   35  O   UNK N   1      20.852  12.704   9.686  0.00  0.00    -0.356 OA
HETATM   36  C   UNK N   1      22.018  12.507  10.390  0.00  0.00     0.210 C 
ENDBRANCH  31  35
BRANCH  33  37
HETATM   37  O   UNK N   1      19.235  17.198   9.083  0.00  0.00    -0.356 OA
HETATM   38  C   UNK N   1      17.888  17.293   9.362  0.00  0.00     0.210 C 
ENDBRANCH  33  37
ENDBRANCH  28  29
ENDBRANCH  27  28
ENDBRANCH   3  27
TORSDOF 8
ENDMDL
MODEL 9
REMARK VINA RESULT:      -8.2      3.744     12.155
REMARK  8 active torsions:
REMARK  status: ('A' for Active; 'I' for Inactive)
REMARK    1  A    between atoms: N_4  and  C_9 
REMARK    2  A    between atoms: C_12  and  C_15 
REMARK       I    between atoms: C_15  and  N_17 
REMARK    3  A    between atoms: N_17  and  C_18 
REMARK    4  A    between atoms: C_20  and  C_24 
REMARK    5  A    between atoms: C_24  and  C_25 
REMARK    6  A    between atoms: C_25  and  C_26 
REMARK    7  A    between atoms: C_28  and  O_34 
REMARK    8  A    between atoms: C_30  and  O_32 
ROOT
HETATM    1  C   UNK N   1      31.986  17.295   7.627  0.00  0.00     0.124 A 
HETATM    2  C   UNK N   1      30.704  17.159   7.114  0.00  0.00     0.076 A 
HETATM    3  C   UNK N   1      29.917  17.811   8.067  0.00  0.00     0.029 A 
HETATM    4  N   UNK N   1      30.690  18.281   9.058  0.00  0.00    -0.303 N 
HETATM    5  N   UNK N   1      31.940  17.970   8.792  0.00  0.00    -0.285 N 
ATOM      6  HN  UNK N   1      32.744  18.203   9.373  1.00  0.00     0.188 HD
HETATM    7  H   UNK N   1      30.376  18.774   9.850  0.00  0.00     0.186 HD
ENDROOT
BRANCH   1   8
HETATM    8  N   UNK N   1      33.230  16.827   7.133  0.00  0.00    -0.308 N 
HETATM    9  C   UNK N   1      34.346  16.165   7.548  0.00  0.00     0.257 C 
HETATM   10  O   UNK N   1      35.223  16.023   6.708  0.00  0.00    -0.267 OA
HETATM   11  H   UNK N   1      33.314  17.054   6.179  0.00  0.00     0.170 HD
BRANCH   9  12
HETATM   12  C   UNK N   1      34.640  15.608   8.910  0.00  0.00     0.032 A 
HETATM   13  C   UNK N   1      35.138  16.317  10.022  0.00  0.00     0.019 A 
HETATM   14  C   UNK N   1      35.381  15.638  11.246  0.00  0.00     0.030 A 
HETATM   15  C   UNK N   1      35.136  14.247  11.358  0.00  0.00     0.030 A 
HETATM   16  C   UNK N   1      34.631  13.572  10.248  0.00  0.00     0.030 A 
HETATM   17  C   UNK N   1      34.386  14.237   9.063  0.00  0.00     0.019 A 
BRANCH  15  18
HETATM   18  N   UNK N   1      35.442  13.492  12.539  0.00  0.00    -0.377 N 
HETATM   19  C   UNK N   1      36.274  14.010  13.604  0.00  0.00     0.147 C 
HETATM   20  C   UNK N   1      35.664  13.627  14.967  0.00  0.00     0.091 C 
HETATM   21  C   UNK N   1      36.647  13.962  16.070  0.00  0.00     0.033 C 
HETATM   22  N   UNK N   1      35.361  12.193  15.027  0.00  0.00    -0.411 N 
HETATM   23  C   UNK N   1      34.381  11.871  13.993  0.00  0.00     0.091 C 
HETATM   24  H   UNK N   1      35.769  11.528  15.684  0.00  0.00     0.154 HD
HETATM   25  C   UNK N   1      35.013  12.109  12.634  0.00  0.00     0.147 C 
HETATM   26  C   UNK N   1      33.981  10.414  14.105  0.00  0.00     0.033 C 
ENDBRANCH  15  18
ENDBRANCH   9  12
ENDBRANCH   1   8
BRANCH   3  27
HETATM   27  C   UNK N   1      28.434  17.982   8.063  0.00  0.00     0.063 C 
BRANCH  27  28
HETATM   28  C   UNK N   1      28.030  19.237   7.289  0.00  0.00     0.045 C 
BRANCH  28  29
HETATM   29  C   UNK N   1      27.357  18.967   5.970  0.00  0.00    -0.052 A 
HETATM   30  C   UNK N   1      26.331  19.820   5.549  0.00  0.00     0.044 A 
HETATM   31  C   UNK N   1      25.621  19.563   4.373  0.00  0.00     0.071 A 
HETATM   32  C   UNK N   1      25.933  18.422   3.616  0.00  0.00     0.073 A 
HETATM   33  C   UNK N   1      26.952  17.547   4.030  0.00  0.00     0.071 A 
HETATM   34  C   UNK N   1      27.663  17.827   5.210  0.00  0.00     0.044 A 
BRANCH  31  35
HETATM   35  O   UNK N   1      24.635  20.414   3.999  0.00  0.00    -0.356 OA
HETATM   36  C   UNK N   1      24.280  20.629   2.687  0.00  0.00     0.210 C 
ENDBRANCH  31  35
BRANCH  33  37
HETATM   37  O   UNK N   1      27.249  16.428   3.324  0.00  0.00    -0.356 OA
HETATM   38  C   UNK N   1      26.354  15.814   2.474  0.00  0.00     0.210 C 
ENDBRANCH  33  37
ENDBRANCH  28  29
ENDBRANCH  27  28
ENDBRANCH   3  27
TORSDOF 8
ENDMDL
