REMARK  9 active torsions:
REMARK  status: ('A' for Active; 'I' for Inactive)
REMARK    1  A    between atoms: C_7  and  C_6 
REMARK    2  A    between atoms: C_8  and  C_7 
REMARK    3  A    between atoms: C_9  and  C_8 
REMARK    4  A    between atoms: C_12  and  C_9 
REMARK    5  A    between atoms: C_24  and  C_12 
REMARK    6  A    between atoms: C_23  and  C_16 
REMARK    7  A    between atoms: C_24  and  C_17 
REMARK    8  A    between atoms: O_26  and  C_20 
REMARK    9  A    between atoms: O_28  and  C_23 
ROOT
HETATM    1  C   UNK N   1       2.385   3.801   1.734  0.00  0.00     0.046 C 
HETATM    2  C   UNK N   1       2.760   5.358  -0.133  0.00  0.00     0.046 C 
HETATM    3  C   UNK N   1       5.219   1.577   0.177  0.00  0.00    -0.012 C 
HETATM    4  C   UNK N   1       4.598   2.929  -0.118  0.00  0.00     0.036 C 
HETATM    5  C   UNK N   1       3.009   0.778   0.845  0.00  0.00     0.055 C 
HETATM    6  C   UNK N   1      -1.141   0.267  -0.111  0.00  0.00     0.045 A 
HETATM    7  C   UNK N   1      -1.110   2.680   0.059  0.00  0.00     0.045 A 
HETATM    8  C   UNK N   1       4.470   0.559   0.634  0.00  0.00     0.012 C 
HETATM    9  C   UNK N   1      -1.829   1.471   0.103  0.00  0.00    -0.045 A 
HETATM   10  C   UNK N   1       2.463   1.465  -0.400  0.00  0.00     0.036 C 
HETATM   11  C   UNK N   1       3.094   2.887  -0.538  0.00  0.00     0.032 C 
HETATM   12  C   UNK N   1       0.239   0.261  -0.307  0.00  0.00     0.075 A 
HETATM   13  C   UNK N   1       0.268   2.688  -0.145  0.00  0.00     0.079 A 
HETATM   14  C   UNK N   1       0.959   1.473  -0.301  0.00  0.00     0.013 A 
HETATM   15  C   UNK N   1       2.271   3.961   0.222  0.00  0.00     0.065 C 
HETATM   16  O   UNK N   1       0.936   3.868  -0.129  0.00  0.00    -0.340 OA
ENDROOT
BRANCH   9  17
HETATM   17  C   UNK N   1      -3.282   1.449   0.551  0.00  0.00    -0.020 C 
HETATM   18  C   UNK N   1      -3.494   0.312   1.541  0.00  0.00     0.020 C 
HETATM   19  C   UNK N   1      -3.610   2.721   1.334  0.00  0.00     0.020 C 
BRANCH  17  20
HETATM   20  C   UNK N   1      -4.219   1.197  -0.645  0.00  0.00     0.013 C 
BRANCH  20  21
HETATM   21  C   UNK N   1      -5.210   2.321  -0.968  0.00  0.00     0.001 C 
BRANCH  21  22
HETATM   22  C   UNK N   1      -6.428   2.256  -0.053  0.00  0.00     0.000 C 
BRANCH  22  23
HETATM   23  C   UNK N   1      -6.496   3.456   0.888  0.00  0.00    -0.000 C 
BRANCH  23  24
HETATM   24  C   UNK N   1      -7.122   4.670   0.220  0.00  0.00    -0.005 C 
HETATM   25  C   UNK N   1      -6.126   5.369  -0.685  0.00  0.00     0.005 C 
ENDBRANCH  23  24
ENDBRANCH  22  23
ENDBRANCH  21  22
ENDBRANCH  20  21
ENDBRANCH  17  20
ENDBRANCH   9  17
BRANCH  12  26
HETATM   26  O   UNK N   1       0.876  -0.914  -0.465  0.00  0.00    -0.360 OA
HETATM   27  H   UNK N   1       0.390  -1.707  -0.575  0.00  0.00     0.217 HD
ENDBRANCH  12  26
BRANCH   8  28
HETATM   28  C   UNK N   1       5.035  -0.794   0.826  0.00  0.00     0.171 C 
HETATM   29  O   UNK N   1       6.217  -1.009   0.623  0.00  0.00    -0.646 OA
BRANCH  28  30
HETATM   30  O   UNK N   1       4.229  -1.809   1.198  0.00  0.00    -0.773 OA
HETATM   31  H   UNK N   1       3.338  -1.677   1.457  0.00  0.00     0.167 HD
ENDBRANCH  28  30
ENDBRANCH   8  28
TORSDOF 9
