REMARK  2 active torsions:
REMARK  status: ('A' for Active; 'I' for Inactive)
REMARK    1  A    between atoms: C_2  and  N_18 
REMARK    2  A    between atoms: C_6  and  C_26 
ROOT
HETATM    1  C   UNK N   1       1.772   0.467   0.000  0.00  0.00     0.042 A 
HETATM    2  C   UNK N   1       1.011   0.786   0.000  0.00  0.00     0.172 A 
HETATM    3  C   UNK N   1       1.054   1.610   0.000  0.00  0.00     0.240 A 
HETATM    4  O   UNK N   1       0.413   2.129   0.000  0.00  0.00    -0.271 OA
HETATM    5  N   UNK N   1       1.851   1.824   0.000  0.00  0.00    -0.345 N 
HETATM    6  C   UNK N   1       2.300   1.132   0.000  0.00  0.00     0.186 A 
HETATM    7  C   UNK N   1       2.928   0.860   0.000  0.00  0.00     0.120 A 
HETATM    8  S   UNK N   1       3.142   0.064   0.000  0.00  0.00    -0.095 SA
HETATM    9  S   UNK N   1       3.939  -0.150   0.000  0.00  0.00    -0.097 SA
HETATM   10  C   UNK N   1       4.152  -0.947   0.000  0.00  0.00     0.090 A 
HETATM   11  C   UNK N   1       3.569  -1.530   0.000  0.00  0.00     0.038 A 
HETATM   12  C   UNK N   1       2.772  -1.317   0.000  0.00  0.00    -0.027 A 
HETATM   13  C   UNK N   1       2.188  -1.900   0.000  0.00  0.00     0.002 A 
HETATM   14  C   UNK N   1       1.625  -1.687   0.000  0.00  0.00     0.163 A 
HETATM   15  C   UNK N   1       1.411  -0.890   0.000  0.00  0.00     0.139 A 
HETATM   16  C   UNK N   1       0.615  -0.676   0.000  0.00  0.00     0.221 A 
HETATM   17  O   UNK N   1       0.031  -1.260   0.000  0.00  0.00    -0.273 OA
HETATM   18  N   UNK N   1       0.401   0.121   0.000  0.00  0.00    -0.348 N 
HETATM   19  O   UNK N   1       2.550  -1.900   0.000  0.00  0.00    -0.311 OA
HETATM   20  C   UNK N   1       3.134  -1.317   0.000  0.00  0.00     0.262 A 
HETATM   21  O   UNK N   1       2.920  -0.520   0.000  0.00  0.00    -0.265 OA
HETATM   22  C   UNK N   1       3.930  -1.530   0.000  0.00  0.00     0.144 A 
HETATM   23  C   UNK N   1       4.514  -0.947   0.000  0.00  0.00     0.150 A 
HETATM   24  C   UNK N   1       4.300  -0.150   0.000  0.00  0.00     0.117 A 
HETATM   25  N   UNK N   1       3.503   0.064   0.000  0.00  0.00    -0.352 N 
HETATM   26  C   UNK N   1       3.290   0.860   0.000  0.00  0.00     0.241 A 
HETATM   27  O   UNK N   1       3.875   1.442   0.000  0.00  0.00    -0.271 OA
HETATM   28  C   UNK N   1       4.884   0.433   0.000  0.00  0.00     0.003 A 
HETATM   29  C   UNK N   1       4.670   1.230   0.000  0.00  0.00     0.011 A 
HETATM   30  C   UNK N   1       5.681   0.220   0.000  0.00  0.00     0.011 A 
HETATM   31  O   UNK N   1       5.311  -1.161   0.000  0.00  0.00    -0.393 OA
HETATM   32  H   UNK N   1       2.204   2.743   0.000  0.00  0.00     0.163 HD
HETATM   33  H   UNK N   1      -0.555   0.355   0.000  0.00  0.00     0.163 HD
HETATM   34  H   UNK N   1       2.807  -0.633   0.000  0.00  0.00     0.163 HD
HETATM   35  H   UNK N   1       5.562  -2.097   0.000  0.00  0.00     0.210 HD
ENDROOT
TORSDOF 2
