REMARK  10 active torsions:
REMARK  status: ('A' for Active; 'I' for Inactive)
REMARK    1  A    between atoms: N_2  and  C_3 
REMARK       I    between atoms: N_2  and  C_19 
REMARK    2  A    between atoms: C_3  and  C_4 
REMARK    3  A    between atoms: C_4  and  C_5 
REMARK    4  A    between atoms: C_7  and  C_15 
REMARK    5  A    between atoms: C_9  and  C_11 
REMARK    6  A    between atoms: C_21  and  C_19 
REMARK    7  A    between atoms: C_21  and  C_22 
REMARK    8  A    between atoms: C_21  and  N_28 
REMARK    9  A    between atoms: N_31  and  C_34 
REMARK   10  A    between atoms: C_34  and  C_35 
ROOT
HETATM    1  C   UNK N   1       2.099  -3.374   1.568  0.00  0.00     0.152 C 
HETATM    2  N   UNK N   1       3.077  -3.137   0.534  0.00  0.00    -0.354 N 
HETATM    3  C   UNK N   1       4.351  -3.595   0.673  0.00  0.00     0.246 C 
HETATM    4  O   UNK N   1       4.664  -4.227   1.675  0.00  0.00    -0.271 OA
ENDROOT
BRANCH   3   5
HETATM    5  C   UNK N   1       5.405  -3.216  -0.340  0.00  0.00     0.206 C 
BRANCH   5   6
HETATM    6  C   UNK N   1       5.929  -1.835  -0.070  0.00  0.00    -0.027 A 
HETATM    7  C   UNK N   1       5.464  -0.768  -0.846  0.00  0.00     0.010 A 
HETATM    8  C   UNK N   1       5.810   0.545  -0.516  0.00  0.00     0.001 A 
HETATM    9  C   UNK N   1       6.614   0.795   0.599  0.00  0.00     0.000 A 
HETATM   10  C   UNK N   1       7.074  -0.268   1.382  0.00  0.00     0.001 A 
HETATM   11  C   UNK N   1       6.721  -1.580   1.057  0.00  0.00     0.010 A 
ENDBRANCH   5   6
BRANCH   5  12
HETATM   12  N   UNK N   1       6.315  -4.259  -0.893  0.00  0.00    -0.393 N 
HETATM   13  C   UNK N   1       7.745  -3.941  -0.939  0.00  0.00     0.137 C 
HETATM   14  C   UNK N   1       8.406  -4.149   0.422  0.00  0.00     0.136 C 
HETATM   15  N   UNK N   1       8.133  -5.474   0.988  0.00  0.00    -0.409 N 
HETATM   16  C   UNK N   1       6.735  -5.914   0.911  0.00  0.00     0.136 C 
HETATM   17  C   UNK N   1       6.095  -5.642  -0.458  0.00  0.00     0.137 C 
BRANCH  15  18
HETATM   18  C   UNK N   1       9.128  -6.492   0.636  0.00  0.00     0.121 C 
BRANCH  18  19
HETATM   19  C   UNK N   1       8.904  -7.134  -0.725  0.00  0.00     0.003 A 
HETATM   20  C   UNK N   1       9.654  -8.450  -0.761  0.00  0.00     0.007 A 
HETATM   21  C   UNK N   1       8.155  -8.441  -0.547  0.00  0.00     0.007 A 
ENDBRANCH  18  19
ENDBRANCH  15  18
ENDBRANCH   5  12
ENDBRANCH   3   5
BRANCH   2  22
HETATM   22  C   UNK N   1       2.696  -2.339  -0.621  0.00  0.00     0.130 C 
BRANCH  22  23
HETATM   23  C   UNK N   1       2.196  -3.231  -1.758  0.00  0.00     0.058 C 
BRANCH  23  24
HETATM   24  C   UNK N   1       1.009  -3.979  -1.270  0.00  0.00    -0.055 A 
HETATM   25  C   UNK N   1       1.115  -5.348  -1.019  0.00  0.00     0.023 A 
HETATM   26  C   UNK N   1       0.076  -6.024  -0.370  0.00  0.00     0.049 A 
HETATM   27  C   UNK N   1      -1.075  -5.317   0.015  0.00  0.00     0.032 A 
HETATM   28  C   UNK N   1      -1.192  -3.947  -0.261  0.00  0.00     0.049 A 
HETATM   29  C   UNK N   1      -0.140  -3.282  -0.892  0.00  0.00     0.023 A 
BRANCH  26  30
HETATM   30  C   UNK N   1       0.233  -7.482  -0.052  0.00  0.00     0.417 C 
HETATM   31  F   UNK N   1      -0.793  -7.925   0.765  0.00  0.00    -0.166 F 
HETATM   32  F   UNK N   1       0.225  -8.214  -1.223  0.00  0.00    -0.166 F 
HETATM   33  F   UNK N   1       1.437  -7.686   0.602  0.00  0.00    -0.166 F 
ENDBRANCH  26  30
BRANCH  28  34
HETATM   34  C   UNK N   1      -2.424  -3.195   0.148  0.00  0.00     0.417 C 
HETATM   35  F   UNK N   1      -2.600  -3.302   1.515  0.00  0.00    -0.166 F 
HETATM   36  F   UNK N   1      -3.523  -3.727  -0.498  0.00  0.00    -0.166 F 
HETATM   37  F   UNK N   1      -2.320  -1.853  -0.182  0.00  0.00    -0.166 F 
ENDBRANCH  28  34
ENDBRANCH  23  24
ENDBRANCH  22  23
ENDBRANCH   2  22
TORSDOF 10
