MODEL 1
REMARK VINA RESULT:      -5.8      0.000      0.000
REMARK  5 active torsions:
REMARK  status: ('A' for Active; 'I' for Inactive)
REMARK    1  A    between atoms: C_3  and  N_18 
REMARK    2  A    between atoms: C_7  and  C_8 
REMARK    3  A    between atoms: C_8  and  O_9 
REMARK    4  A    between atoms: O_9  and  C_10 
REMARK    5  A    between atoms: C_13  and  S_16 
ROOT
HETATM    1  C   UNK N   1      21.297  18.824   3.021  0.00  0.00     0.159 C 
HETATM    2  N   UNK N   1      22.518  18.738   3.808  0.00  0.00    -0.319 N 
HETATM    3  C   UNK N   1      23.602  19.532   3.743  0.00  0.00     0.192 A 
HETATM    4  C   UNK N   1      24.537  19.099   4.662  0.00  0.00     0.144 A 
HETATM    5  N   UNK N   1      24.023  18.025   5.303  0.00  0.00    -0.350 N 
ATOM      6  HN  UNK N   1      24.466  17.477   6.039  1.00  0.00     0.166 HD
HETATM    7  C   UNK N   1      22.800  17.830   4.764  0.00  0.00     0.109 A 
ENDROOT
BRANCH   7   8
HETATM    8  C   UNK N   1      21.900  16.708   5.171  0.00  0.00     0.252 C 
BRANCH   8   9
HETATM    9  O   UNK N   1      21.491  16.858   6.477  0.00  0.00    -0.344 OA
BRANCH   9  10
HETATM   10  C   UNK N   1      21.555  15.851   7.381  0.00  0.00     0.069 A 
HETATM   11  C   UNK N   1      20.690  15.801   8.490  0.00  0.00     0.038 A 
HETATM   12  C   UNK N   1      20.806  14.770   9.427  0.00  0.00     0.021 A 
HETATM   13  C   UNK N   1      21.786  13.786   9.268  0.00  0.00    -0.000 A 
HETATM   14  C   UNK N   1      22.637  13.824   8.157  0.00  0.00     0.021 A 
HETATM   15  C   UNK N   1      22.521  14.853   7.218  0.00  0.00     0.038 A 
BRANCH  13  16
HETATM   16  S   UNK N   1      21.936  12.471  10.475  0.00  0.00    -0.134 SA
HETATM   17  C   UNK N   1      23.066  11.487   9.444  0.00  0.00     0.095 C 
ENDBRANCH  13  16
ENDBRANCH   9  10
ENDBRANCH   8   9
ENDBRANCH   7   8
BRANCH   3  18
HETATM   18  N   UNK N   1      23.764  20.639   2.866  0.00  0.00    -0.096 N 
HETATM   19  O   UNK N   1      23.018  21.568   2.913  0.00  0.00    -0.530 OA
HETATM   20  O   UNK N   1      24.747  20.642   1.990  0.00  0.00    -0.530 OA
ENDBRANCH   3  18
TORSDOF 5
ENDMDL
MODEL 2
REMARK VINA RESULT:      -5.7      1.476      2.295
REMARK  5 active torsions:
REMARK  status: ('A' for Active; 'I' for Inactive)
REMARK    1  A    between atoms: C_3  and  N_18 
REMARK    2  A    between atoms: C_7  and  C_8 
REMARK    3  A    between atoms: C_8  and  O_9 
REMARK    4  A    between atoms: O_9  and  C_10 
REMARK    5  A    between atoms: C_13  and  S_16 
ROOT
HETATM    1  C   UNK N   1      22.882  18.360   3.898  0.00  0.00     0.159 C 
HETATM    2  N   UNK N   1      21.488  18.402   3.483  0.00  0.00    -0.319 N 
HETATM    3  C   UNK N   1      20.882  19.322   2.709  0.00  0.00     0.192 A 
HETATM    4  C   UNK N   1      19.551  18.987   2.566  0.00  0.00     0.144 A 
HETATM    5  N   UNK N   1      19.332  17.846   3.257  0.00  0.00    -0.350 N 
ATOM      6  HN  UNK N   1      18.452  17.339   3.348  1.00  0.00     0.166 HD
HETATM    7  C   UNK N   1      20.523  17.517   3.802  0.00  0.00     0.109 A 
ENDROOT
BRANCH   7   8
HETATM    8  C   UNK N   1      20.714  16.324   4.683  0.00  0.00     0.252 C 
BRANCH   8   9
HETATM    9  O   UNK N   1      20.776  16.699   6.007  0.00  0.00    -0.344 OA
BRANCH   9  10
HETATM   10  C   UNK N   1      21.063  15.823   6.999  0.00  0.00     0.069 A 
HETATM   11  C   UNK N   1      20.273  15.742   8.161  0.00  0.00     0.038 A 
HETATM   12  C   UNK N   1      20.616  14.854   9.186  0.00  0.00     0.021 A 
HETATM   13  C   UNK N   1      21.750  14.046   9.061  0.00  0.00    -0.000 A 
HETATM   14  C   UNK N   1      22.528  14.113   7.900  0.00  0.00     0.021 A 
HETATM   15  C   UNK N   1      22.185  14.998   6.873  0.00  0.00     0.038 A 
BRANCH  13  16
HETATM   16  S   UNK N   1      22.191  12.916  10.379  0.00  0.00    -0.134 SA
HETATM   17  C   UNK N   1      23.940  12.831   9.887  0.00  0.00     0.095 C 
ENDBRANCH  13  16
ENDBRANCH   9  10
ENDBRANCH   8   9
ENDBRANCH   7   8
BRANCH   3  18
HETATM   18  N   UNK N   1      21.510  20.461   2.135  0.00  0.00    -0.096 N 
HETATM   19  O   UNK N   1      21.970  21.316   2.827  0.00  0.00    -0.530 OA
HETATM   20  O   UNK N   1      21.585  20.577   0.826  0.00  0.00    -0.530 OA
ENDBRANCH   3  18
TORSDOF 5
ENDMDL
MODEL 3
REMARK VINA RESULT:      -5.7      8.411     10.394
REMARK  5 active torsions:
REMARK  status: ('A' for Active; 'I' for Inactive)
REMARK    1  A    between atoms: C_3  and  N_18 
REMARK    2  A    between atoms: C_7  and  C_8 
REMARK    3  A    between atoms: C_8  and  O_9 
REMARK    4  A    between atoms: O_9  and  C_10 
REMARK    5  A    between atoms: C_13  and  S_16 
ROOT
HETATM    1  C   UNK N   1      31.732  17.738   8.755  0.00  0.00     0.159 C 
HETATM    2  N   UNK N   1      32.661  17.055   7.867  0.00  0.00    -0.319 N 
HETATM    3  C   UNK N   1      34.000  17.182   7.813  0.00  0.00     0.192 A 
HETATM    4  C   UNK N   1      34.494  16.356   6.825  0.00  0.00     0.144 A 
HETATM    5  N   UNK N   1      33.449  15.708   6.264  0.00  0.00    -0.350 N 
ATOM      6  HN  UNK N   1      33.481  15.026   5.506  1.00  0.00     0.166 HD
HETATM    7  C   UNK N   1      32.352  16.152   6.915  0.00  0.00     0.109 A 
ENDROOT
BRANCH   7   8
HETATM    8  C   UNK N   1      30.966  15.708   6.574  0.00  0.00     0.252 C 
BRANCH   8   9
HETATM    9  O   UNK N   1      30.538  16.293   5.403  0.00  0.00    -0.344 OA
BRANCH   9  10
HETATM   10  C   UNK N   1      29.504  17.167   5.361  0.00  0.00     0.069 A 
HETATM   11  C   UNK N   1      28.868  17.498   4.150  0.00  0.00     0.038 A 
HETATM   12  C   UNK N   1      27.828  18.432   4.133  0.00  0.00     0.021 A 
HETATM   13  C   UNK N   1      27.419  19.046   5.320  0.00  0.00    -0.000 A 
HETATM   14  C   UNK N   1      28.039  18.707   6.528  0.00  0.00     0.021 A 
HETATM   15  C   UNK N   1      29.077  17.771   6.548  0.00  0.00     0.038 A 
BRANCH  13  16
HETATM   16  S   UNK N   1      26.092  20.249   5.292  0.00  0.00    -0.134 SA
HETATM   17  C   UNK N   1      27.058  21.515   6.171  0.00  0.00     0.095 C 
ENDBRANCH  13  16
ENDBRANCH   9  10
ENDBRANCH   8   9
ENDBRANCH   7   8
BRANCH   3  18
HETATM   18  N   UNK N   1      34.782  18.037   8.638  0.00  0.00    -0.096 N 
HETATM   19  O   UNK N   1      35.019  19.156   8.304  0.00  0.00    -0.530 OA
HETATM   20  O   UNK N   1      35.252  17.589   9.784  0.00  0.00    -0.530 OA
ENDBRANCH   3  18
TORSDOF 5
ENDMDL
MODEL 4
REMARK VINA RESULT:      -5.7      7.295      9.447
REMARK  5 active torsions:
REMARK  status: ('A' for Active; 'I' for Inactive)
REMARK    1  A    between atoms: C_3  and  N_18 
REMARK    2  A    between atoms: C_7  and  C_8 
REMARK    3  A    between atoms: C_8  and  O_9 
REMARK    4  A    between atoms: O_9  and  C_10 
REMARK    5  A    between atoms: C_13  and  S_16 
ROOT
HETATM    1  C   UNK N   1      30.924  16.324   5.677  0.00  0.00     0.159 C 
HETATM    2  N   UNK N   1      31.316  16.956   6.928  0.00  0.00    -0.319 N 
HETATM    3  C   UNK N   1      32.557  17.118   7.421  0.00  0.00     0.192 A 
HETATM    4  C   UNK N   1      32.481  17.765   8.638  0.00  0.00     0.144 A 
HETATM    5  N   UNK N   1      31.177  18.009   8.898  0.00  0.00    -0.350 N 
ATOM      6  HN  UNK N   1      30.788  18.474   9.718  1.00  0.00     0.166 HD
HETATM    7  C   UNK N   1      30.495  17.506   7.846  0.00  0.00     0.109 A 
ENDROOT
BRANCH   7   8
HETATM    8  C   UNK N   1      29.004  17.536   7.752  0.00  0.00     0.252 C 
BRANCH   8   9
HETATM    9  O   UNK N   1      28.548  18.828   7.610  0.00  0.00    -0.344 OA
BRANCH   9  10
HETATM   10  C   UNK N   1      27.886  19.251   6.506  0.00  0.00     0.069 A 
HETATM   11  C   UNK N   1      27.077  20.402   6.528  0.00  0.00     0.038 A 
HETATM   12  C   UNK N   1      26.376  20.792   5.383  0.00  0.00     0.021 A 
HETATM   13  C   UNK N   1      26.474  20.036   4.212  0.00  0.00    -0.000 A 
HETATM   14  C   UNK N   1      27.291  18.900   4.182  0.00  0.00     0.021 A 
HETATM   15  C   UNK N   1      27.994  18.510   5.325  0.00  0.00     0.038 A 
BRANCH  13  16
HETATM   16  S   UNK N   1      25.567  20.534   2.749  0.00  0.00    -0.134 SA
HETATM   17  C   UNK N   1      23.962  19.993   3.410  0.00  0.00     0.095 C 
ENDBRANCH  13  16
ENDBRANCH   9  10
ENDBRANCH   8   9
ENDBRANCH   7   8
BRANCH   3  18
HETATM   18  N   UNK N   1      33.758  16.686   6.793  0.00  0.00    -0.096 N 
HETATM   19  O   UNK N   1      34.125  15.557   6.893  0.00  0.00    -0.530 OA
HETATM   20  O   UNK N   1      34.474  17.541   6.094  0.00  0.00    -0.530 OA
ENDBRANCH   3  18
TORSDOF 5
ENDMDL
MODEL 5
REMARK VINA RESULT:      -5.6      7.657      9.666
REMARK  5 active torsions:
REMARK  status: ('A' for Active; 'I' for Inactive)
REMARK    1  A    between atoms: C_3  and  N_18 
REMARK    2  A    between atoms: C_7  and  C_8 
REMARK    3  A    between atoms: C_8  and  O_9 
REMARK    4  A    between atoms: O_9  and  C_10 
REMARK    5  A    between atoms: C_13  and  S_16 
ROOT
HETATM    1  C   UNK N   1      31.324  17.890   8.635  0.00  0.00     0.159 C 
HETATM    2  N   UNK N   1      32.169  17.594   7.487  0.00  0.00    -0.319 N 
HETATM    3  C   UNK N   1      33.510  17.674   7.404  0.00  0.00     0.192 A 
HETATM    4  C   UNK N   1      33.907  17.308   6.134  0.00  0.00     0.144 A 
HETATM    5  N   UNK N   1      32.799  16.996   5.426  0.00  0.00    -0.350 N 
ATOM      6  HN  UNK N   1      32.755  16.687   4.455  1.00  0.00     0.166 HD
HETATM    7  C   UNK N   1      31.762  17.180   6.271  0.00  0.00     0.109 A 
ENDROOT
BRANCH   7   8
HETATM    8  C   UNK N   1      30.337  16.977   5.868  0.00  0.00     0.252 C 
BRANCH   8   9
HETATM    9  O   UNK N   1      29.936  17.948   4.977  0.00  0.00    -0.344 OA
BRANCH   9  10
HETATM   10  C   UNK N   1      28.633  18.206   4.718  0.00  0.00     0.069 A 
HETATM   11  C   UNK N   1      28.159  19.523   4.563  0.00  0.00     0.038 A 
HETATM   12  C   UNK N   1      26.801  19.760   4.334  0.00  0.00     0.021 A 
HETATM   13  C   UNK N   1      25.906  18.689   4.263  0.00  0.00    -0.000 A 
HETATM   14  C   UNK N   1      26.375  17.378   4.400  0.00  0.00     0.021 A 
HETATM   15  C   UNK N   1      27.734  17.139   4.627  0.00  0.00     0.038 A 
BRANCH  13  16
HETATM   16  S   UNK N   1      24.164  18.998   3.977  0.00  0.00    -0.134 SA
HETATM   17  C   UNK N   1      23.622  17.616   5.028  0.00  0.00     0.095 C 
ENDBRANCH  13  16
ENDBRANCH   9  10
ENDBRANCH   8   9
ENDBRANCH   7   8
BRANCH   3  18
HETATM   18  N   UNK N   1      34.380  18.077   8.454  0.00  0.00    -0.096 N 
HETATM   19  O   UNK N   1      34.504  17.407   9.432  0.00  0.00    -0.530 OA
HETATM   20  O   UNK N   1      35.057  19.201   8.348  0.00  0.00    -0.530 OA
ENDBRANCH   3  18
TORSDOF 5
ENDMDL
MODEL 6
REMARK VINA RESULT:      -5.6      6.056      7.497
REMARK  5 active torsions:
REMARK  status: ('A' for Active; 'I' for Inactive)
REMARK    1  A    between atoms: C_3  and  N_18 
REMARK    2  A    between atoms: C_7  and  C_8 
REMARK    3  A    between atoms: C_8  and  O_9 
REMARK    4  A    between atoms: O_9  and  C_10 
REMARK    5  A    between atoms: C_13  and  S_16 
ROOT
HETATM    1  C   UNK N   1      25.727  17.522   3.327  0.00  0.00     0.159 C 
HETATM    2  N   UNK N   1      25.970  18.603   4.271  0.00  0.00    -0.319 N 
HETATM    3  C   UNK N   1      25.521  19.870   4.211  0.00  0.00     0.192 A 
HETATM    4  C   UNK N   1      25.988  20.568   5.307  0.00  0.00     0.144 A 
HETATM    5  N   UNK N   1      26.732  19.721   6.053  0.00  0.00    -0.350 N 
ATOM      6  HN  UNK N   1      27.214  19.930   6.927  1.00  0.00     0.166 HD
HETATM    7  C   UNK N   1      26.704  18.539   5.400  0.00  0.00     0.109 A 
ENDROOT
BRANCH   7   8
HETATM    8  C   UNK N   1      27.439  17.327   5.876  0.00  0.00     0.252 C 
BRANCH   8   9
HETATM    9  O   UNK N   1      28.112  17.592   7.048  0.00  0.00    -0.344 OA
BRANCH   9  10
HETATM   10  C   UNK N   1      29.463  17.574   7.132  0.00  0.00     0.069 A 
HETATM   11  C   UNK N   1      30.264  17.162   6.051  0.00  0.00     0.038 A 
HETATM   12  C   UNK N   1      31.655  17.118   6.180  0.00  0.00     0.021 A 
HETATM   13  C   UNK N   1      32.257  17.480   7.389  0.00  0.00    -0.000 A 
HETATM   14  C   UNK N   1      31.465  17.906   8.461  0.00  0.00     0.021 A 
HETATM   15  C   UNK N   1      30.073  17.953   8.332  0.00  0.00     0.038 A 
BRANCH  13  16
HETATM   16  S   UNK N   1      34.040  17.414   7.554  0.00  0.00    -0.134 SA
HETATM   17  C   UNK N   1      33.983  16.504   9.127  0.00  0.00     0.095 C 
ENDBRANCH  13  16
ENDBRANCH   9  10
ENDBRANCH   8   9
ENDBRANCH   7   8
BRANCH   3  18
HETATM   18  N   UNK N   1      24.701  20.408   3.182  0.00  0.00    -0.096 N 
HETATM   19  O   UNK N   1      25.186  20.874   2.198  0.00  0.00    -0.530 OA
HETATM   20  O   UNK N   1      23.391  20.395   3.315  0.00  0.00    -0.530 OA
ENDBRANCH   3  18
TORSDOF 5
ENDMDL
MODEL 7
REMARK VINA RESULT:      -5.6      6.963      9.190
REMARK  5 active torsions:
REMARK  status: ('A' for Active; 'I' for Inactive)
REMARK    1  A    between atoms: C_3  and  N_18 
REMARK    2  A    between atoms: C_7  and  C_8 
REMARK    3  A    between atoms: C_8  and  O_9 
REMARK    4  A    between atoms: O_9  and  C_10 
REMARK    5  A    between atoms: C_13  and  S_16 
ROOT
HETATM    1  C   UNK N   1      31.006  16.497   7.111  0.00  0.00     0.159 C 
HETATM    2  N   UNK N   1      31.474  17.006   5.830  0.00  0.00    -0.319 N 
HETATM    3  C   UNK N   1      32.737  17.299   5.468  0.00  0.00     0.192 A 
HETATM    4  C   UNK N   1      32.739  17.758   4.166  0.00  0.00     0.144 A 
HETATM    5  N   UNK N   1      31.464  17.746   3.718  0.00  0.00    -0.350 N 
ATOM      6  HN  UNK N   1      31.132  18.025   2.796  1.00  0.00     0.166 HD
HETATM    7  C   UNK N   1      30.720  17.287   4.748  0.00  0.00     0.109 A 
ENDROOT
BRANCH   7   8
HETATM    8  C   UNK N   1      29.233  17.151   4.683  0.00  0.00     0.252 C 
BRANCH   8   9
HETATM    9  O   UNK N   1      28.616  18.256   5.224  0.00  0.00    -0.344 OA
BRANCH   9  10
HETATM   10  C   UNK N   1      27.457  18.757   4.735  0.00  0.00     0.069 A 
HETATM   11  C   UNK N   1      26.219  18.143   4.999  0.00  0.00     0.038 A 
HETATM   12  C   UNK N   1      25.043  18.661   4.448  0.00  0.00     0.021 A 
HETATM   13  C   UNK N   1      25.095  19.792   3.627  0.00  0.00    -0.000 A 
HETATM   14  C   UNK N   1      26.322  20.415   3.376  0.00  0.00     0.021 A 
HETATM   15  C   UNK N   1      27.498  19.899   3.928  0.00  0.00     0.038 A 
BRANCH  13  16
HETATM   16  S   UNK N   1      23.587  20.448   2.916  0.00  0.00    -0.134 SA
HETATM   17  C   UNK N   1      22.530  19.183   3.683  0.00  0.00     0.095 C 
ENDBRANCH  13  16
ENDBRANCH   9  10
ENDBRANCH   8   9
ENDBRANCH   7   8
BRANCH   3  18
HETATM   18  N   UNK N   1      33.886  17.164   6.294  0.00  0.00    -0.096 N 
HETATM   19  O   UNK N   1      34.449  18.126   6.715  0.00  0.00    -0.530 OA
HETATM   20  O   UNK N   1      34.335  15.965   6.600  0.00  0.00    -0.530 OA
ENDBRANCH   3  18
TORSDOF 5
ENDMDL
MODEL 8
REMARK VINA RESULT:      -5.5     13.813     15.930
REMARK  5 active torsions:
REMARK  status: ('A' for Active; 'I' for Inactive)
REMARK    1  A    between atoms: C_3  and  N_18 
REMARK    2  A    between atoms: C_7  and  C_8 
REMARK    3  A    between atoms: C_8  and  O_9 
REMARK    4  A    between atoms: O_9  and  C_10 
REMARK    5  A    between atoms: C_13  and  S_16 
ROOT
HETATM    1  C   UNK N   1      34.497  11.956  14.004  0.00  0.00     0.159 C 
HETATM    2  N   UNK N   1      35.458  12.978  14.391  0.00  0.00    -0.319 N 
HETATM    3  C   UNK N   1      35.946  13.233  15.619  0.00  0.00     0.192 A 
HETATM    4  C   UNK N   1      36.830  14.291  15.544  0.00  0.00     0.144 A 
HETATM    5  N   UNK N   1      36.892  14.690  14.254  0.00  0.00    -0.350 N 
ATOM      6  HN  UNK N   1      37.456  15.448  13.870  1.00  0.00     0.166 HD
HETATM    7  C   UNK N   1      36.049  13.878  13.580  0.00  0.00     0.109 A 
ENDROOT
BRANCH   7   8
HETATM    8  C   UNK N   1      35.792  14.007  12.113  0.00  0.00     0.252 C 
BRANCH   8   9
HETATM    9  O   UNK N   1      35.633  15.328  11.758  0.00  0.00    -0.344 OA
BRANCH   9  10
HETATM   10  C   UNK N   1      34.871  15.714  10.707  0.00  0.00     0.069 A 
HETATM   11  C   UNK N   1      35.114  16.920  10.024  0.00  0.00     0.038 A 
HETATM   12  C   UNK N   1      34.287  17.310   8.967  0.00  0.00     0.021 A 
HETATM   13  C   UNK N   1      33.210  16.503   8.587  0.00  0.00    -0.000 A 
HETATM   14  C   UNK N   1      32.975  15.296   9.254  0.00  0.00     0.021 A 
HETATM   15  C   UNK N   1      33.803  14.903  10.310  0.00  0.00     0.038 A 
BRANCH  13  16
HETATM   16  S   UNK N   1      32.146  17.011   7.237  0.00  0.00    -0.134 SA
HETATM   17  C   UNK N   1      33.534  17.467   6.154  0.00  0.00     0.095 C 
ENDBRANCH  13  16
ENDBRANCH   9  10
ENDBRANCH   8   9
ENDBRANCH   7   8
BRANCH   3  18
HETATM   18  N   UNK N   1      35.602  12.532  16.807  0.00  0.00    -0.096 N 
HETATM   19  O   UNK N   1      34.887  13.028  17.622  0.00  0.00    -0.530 OA
HETATM   20  O   UNK N   1      36.077  11.321  17.012  0.00  0.00    -0.530 OA
ENDBRANCH   3  18
TORSDOF 5
ENDMDL
MODEL 9
REMARK VINA RESULT:      -5.5     11.180     13.009
REMARK  5 active torsions:
REMARK  status: ('A' for Active; 'I' for Inactive)
REMARK    1  A    between atoms: C_3  and  N_18 
REMARK    2  A    between atoms: C_7  and  C_8 
REMARK    3  A    between atoms: C_8  and  O_9 
REMARK    4  A    between atoms: O_9  and  C_10 
REMARK    5  A    between atoms: C_13  and  S_16 
ROOT
HETATM    1  C   UNK N   1      35.024  14.901   7.947  0.00  0.00     0.159 C 
HETATM    2  N   UNK N   1      35.139  15.557   9.241  0.00  0.00    -0.319 N 
HETATM    3  C   UNK N   1      35.477  15.006  10.422  0.00  0.00     0.192 A 
HETATM    4  C   UNK N   1      35.461  15.982  11.398  0.00  0.00     0.144 A 
HETATM    5  N   UNK N   1      35.110  17.149  10.813  0.00  0.00    -0.350 N 
ATOM      6  HN  UNK N   1      35.009  18.058  11.264  1.00  0.00     0.166 HD
HETATM    7  C   UNK N   1      34.920  16.860   9.508  0.00  0.00     0.109 A 
ENDROOT
BRANCH   7   8
HETATM    8  C   UNK N   1      34.482  17.877   8.504  0.00  0.00     0.252 C 
BRANCH   8   9
HETATM    9  O   UNK N   1      33.116  17.844   8.337  0.00  0.00    -0.344 OA
BRANCH   9  10
HETATM   10  C   UNK N   1      32.533  17.533   7.154  0.00  0.00     0.069 A 
HETATM   11  C   UNK N   1      31.181  17.153   7.077  0.00  0.00     0.038 A 
HETATM   12  C   UNK N   1      30.617  16.800   5.847  0.00  0.00     0.021 A 
HETATM   13  C   UNK N   1      31.399  16.819   4.688  0.00  0.00    -0.000 A 
HETATM   14  C   UNK N   1      32.740  17.212   4.759  0.00  0.00     0.021 A 
HETATM   15  C   UNK N   1      33.304  17.567   5.988  0.00  0.00     0.038 A 
BRANCH  13  16
HETATM   16  S   UNK N   1      30.675  16.358   3.116  0.00  0.00    -0.134 SA
HETATM   17  C   UNK N   1      29.348  15.375   3.876  0.00  0.00     0.095 C 
ENDBRANCH  13  16
ENDBRANCH   9  10
ENDBRANCH   8   9
ENDBRANCH   7   8
BRANCH   3  18
HETATM   18  N   UNK N   1      35.797  13.637  10.633  0.00  0.00    -0.096 N 
HETATM   19  O   UNK N   1      36.918  13.249  10.523  0.00  0.00    -0.530 OA
HETATM   20  O   UNK N   1      34.845  12.785  10.954  0.00  0.00    -0.530 OA
ENDBRANCH   3  18
TORSDOF 5
ENDMDL
