REMARK  2 active torsions:
REMARK  status: ('A' for Active; 'I' for Inactive)
REMARK    1  A    between atoms: C_9  and  N_4 
REMARK    2  A    between atoms: C_11  and  C_19 
ROOT
HETATM    1  C   UNK N   1      -0.295   0.456  -0.487  0.00  0.00     0.257 C 
HETATM    2  C   UNK N   1      -1.114  -0.855  -0.503  0.00  0.00     0.055 C 
HETATM    3  C   UNK N   1      -0.346  -1.873   0.356  0.00  0.00     0.054 C 
HETATM    4  C   UNK N   1       1.047  -1.382   0.209  0.00  0.00    -0.041 A 
HETATM    5  C   UNK N   1       1.074  -0.090  -0.247  0.00  0.00    -0.016 A 
HETATM    6  C   UNK N   1       2.281   0.601  -0.387  0.00  0.00     0.033 A 
HETATM    7  C   UNK N   1       3.478  -0.054  -0.058  0.00  0.00     0.034 A 
HETATM    8  C   UNK N   1       3.449  -1.373   0.428  0.00  0.00     0.024 A 
HETATM    9  C   UNK N   1       2.225  -2.041   0.579  0.00  0.00     0.010 A 
HETATM   10 Cl   UNK N   1       5.008   0.779  -0.229  0.00  0.00    -0.084 Cl
ENDROOT
BRANCH   1  11
HETATM   11  N   UNK N   1      -0.737   1.262   0.667  0.00  0.00     0.101 N 
HETATM   12  C   UNK N   1       0.089   2.450   0.951  0.00  0.00     0.314 C 
HETATM   13  C   UNK N   1      -0.234   3.668   0.069  0.00  0.00     0.178 C 
HETATM   14  C   UNK N   1       0.498   4.852   0.680  0.00  0.00     0.051 C 
HETATM   15  N   UNK N   1      -1.692   3.921   0.081  0.00  0.00     0.096 N 
HETATM   16  C   UNK N   1       0.311   3.444  -1.342  0.00  0.00     0.051 C 
HETATM   17  C   UNK N   1      -2.421   2.744  -0.378  0.00  0.00     0.303 C 
HETATM   18  C   UNK N   1      -2.066   5.039  -0.779  0.00  0.00     0.310 C 
HETATM   19  C   UNK N   1      -2.167   1.599   0.592  0.00  0.00     0.303 C 
ENDBRANCH   1  11
BRANCH   3  20
HETATM   20  C   UNK N   1      -0.682  -3.291  -0.021  0.00  0.00    -0.050 A 
HETATM   21  C   UNK N   1       0.292  -4.200  -0.461  0.00  0.00     0.008 A 
HETATM   22  C   UNK N   1      -0.058  -5.525  -0.741  0.00  0.00     0.001 A 
HETATM   23  C   UNK N   1      -1.381  -5.950  -0.581  0.00  0.00     0.000 A 
HETATM   24  C   UNK N   1      -2.355  -5.049  -0.144  0.00  0.00     0.001 A 
HETATM   25  C   UNK N   1      -2.005  -3.728   0.140  0.00  0.00     0.008 A 
ENDBRANCH   3  20
TORSDOF 2
