MODEL 1
REMARK VINA RESULT:      -7.8      0.000      0.000
REMARK  0 active torsions:
REMARK  status: ('A' for Active; 'I' for Inactive)
ROOT
HETATM    1  C   UNK N   1      25.415  26.208  -5.493  0.00  0.00     0.044 C 
HETATM    2  C   UNK N   1      25.907  25.583  -6.759  0.00  0.00    -0.067 A 
HETATM    3  C   UNK N   1      25.563  26.186  -7.906  0.00  0.00     0.058 A 
HETATM    4  C   UNK N   1      25.955  25.633  -9.203  0.00  0.00     0.172 A 
HETATM    5  O   UNK N   1      25.618  26.188 -10.236  0.00  0.00    -0.289 OA
HETATM    6  C   UNK N   1      26.767  24.420  -9.252  0.00  0.00     0.058 A 
HETATM    7  C   UNK N   1      27.123  23.780  -8.132  0.00  0.00    -0.063 A 
HETATM    8  C   UNK N   1      26.719  24.270  -6.729  0.00  0.00     0.007 A 
HETATM    9  C   UNK N   1      28.040  24.408  -5.919  0.00  0.00     0.007 C 
HETATM   10  C   UNK N   1      27.959  25.104  -4.531  0.00  0.00     0.007 C 
HETATM   11  C   UNK N   1      28.395  24.250  -3.329  0.00  0.00     0.018 C 
HETATM   12  C   UNK N   1      29.740  23.608  -3.624  0.00  0.00     0.021 C 
HETATM   13  C   UNK N   1      29.481  22.638  -4.746  0.00  0.00     0.006 C 
HETATM   14  C   UNK N   1      29.097  23.254  -6.085  0.00  0.00    -0.004 C 
HETATM   15  C   UNK N   1      28.563  22.107  -6.953  0.00  0.00     0.010 C 
HETATM   16  C   UNK N   1      28.030  22.594  -8.290  0.00  0.00     0.036 C 
HETATM   17  C   UNK N   1      30.562  21.572  -4.680  0.00  0.00     0.013 C 
HETATM   18  C   UNK N   1      30.721  21.357  -3.174  0.00  0.00     0.079 C 
HETATM   19  C   UNK N   1      30.265  22.662  -2.608  0.00  0.00     0.135 C 
HETATM   20  O   UNK N   1      30.437  22.964  -1.438  0.00  0.00    -0.297 OA
HETATM   21  C   UNK N   1      30.815  24.652  -3.928  0.00  0.00     0.024 C 
HETATM   22  C   UNK N   1      25.842  23.205  -6.074  0.00  0.00     0.025 C 
ENDROOT
TORSDOF 0
ENDMDL
MODEL 2
REMARK VINA RESULT:      -7.3     12.055     15.428
REMARK  0 active torsions:
REMARK  status: ('A' for Active; 'I' for Inactive)
ROOT
HETATM    1  C   UNK N   1      33.569  16.073   4.890  0.00  0.00     0.044 C 
HETATM    2  C   UNK N   1      33.265  16.840   6.137  0.00  0.00    -0.067 A 
HETATM    3  C   UNK N   1      34.248  17.607   6.631  0.00  0.00     0.058 A 
HETATM    4  C   UNK N   1      34.069  18.366   7.869  0.00  0.00     0.172 A 
HETATM    5  O   UNK N   1      34.981  19.044   8.312  0.00  0.00    -0.289 OA
HETATM    6  C   UNK N   1      32.786  18.317   8.564  0.00  0.00     0.058 A 
HETATM    7  C   UNK N   1      31.782  17.557   8.112  0.00  0.00    -0.063 A 
HETATM    8  C   UNK N   1      31.898  16.696   6.840  0.00  0.00     0.007 A 
HETATM    9  C   UNK N   1      30.712  17.112   5.923  0.00  0.00     0.007 C 
HETATM   10  C   UNK N   1      30.706  16.566   4.468  0.00  0.00     0.007 C 
HETATM   11  C   UNK N   1      29.494  15.702   4.083  0.00  0.00     0.018 C 
HETATM   12  C   UNK N   1      28.215  16.418   4.482  0.00  0.00     0.021 C 
HETATM   13  C   UNK N   1      28.231  16.456   5.986  0.00  0.00     0.006 C 
HETATM   14  C   UNK N   1      29.316  17.319   6.620  0.00  0.00    -0.004 C 
HETATM   15  C   UNK N   1      29.356  16.944   8.107  0.00  0.00     0.010 C 
HETATM   16  C   UNK N   1      30.477  17.648   8.851  0.00  0.00     0.036 C 
HETATM   17  C   UNK N   1      26.790  16.581   6.452  0.00  0.00     0.013 C 
HETATM   18  C   UNK N   1      26.048  15.671   5.472  0.00  0.00     0.079 C 
HETATM   19  C   UNK N   1      26.944  15.678   4.277  0.00  0.00     0.135 C 
HETATM   20  O   UNK N   1      26.597  15.230   3.196  0.00  0.00    -0.297 OA
HETATM   21  C   UNK N   1      28.098  17.790   3.817  0.00  0.00     0.024 C 
HETATM   22  C   UNK N   1      31.736  15.228   7.227  0.00  0.00     0.025 C 
ENDROOT
TORSDOF 0
ENDMDL
MODEL 3
REMARK VINA RESULT:      -7.2     25.011     27.202
REMARK  0 active torsions:
REMARK  status: ('A' for Active; 'I' for Inactive)
ROOT
HETATM    1  C   UNK N   1      35.365   9.169  18.662  0.00  0.00     0.044 C 
HETATM    2  C   UNK N   1      35.341  10.615  18.282  0.00  0.00    -0.067 A 
HETATM    3  C   UNK N   1      35.170  11.499  19.275  0.00  0.00     0.058 A 
HETATM    4  C   UNK N   1      35.089  12.935  19.008  0.00  0.00     0.172 A 
HETATM    5  O   UNK N   1      34.916  13.723  19.923  0.00  0.00    -0.289 OA
HETATM    6  C   UNK N   1      35.231  13.421  17.638  0.00  0.00     0.058 A 
HETATM    7  C   UNK N   1      35.393  12.573  16.616  0.00  0.00    -0.063 A 
HETATM    8  C   UNK N   1      35.448  11.046  16.803  0.00  0.00     0.007 A 
HETATM    9  C   UNK N   1      36.775  10.574  16.142  0.00  0.00     0.007 C 
HETATM   10  C   UNK N   1      37.208   9.100  16.378  0.00  0.00     0.007 C 
HETATM   11  C   UNK N   1      37.351   8.235  15.114  0.00  0.00     0.018 C 
HETATM   12  C   UNK N   1      38.194   8.973  14.088  0.00  0.00     0.021 C 
HETATM   13  C   UNK N   1      37.372  10.166  13.680  0.00  0.00     0.006 C 
HETATM   14  C   UNK N   1      37.145  11.220  14.756  0.00  0.00    -0.004 C 
HETATM   15  C   UNK N   1      36.033  12.140  14.236  0.00  0.00     0.010 C 
HETATM   16  C   UNK N   1      35.618  13.181  15.261  0.00  0.00     0.036 C 
HETATM   17  C   UNK N   1      37.834  10.580  12.292  0.00  0.00     0.013 C 
HETATM   18  C   UNK N   1      38.069   9.233  11.609  0.00  0.00     0.079 C 
HETATM   19  C   UNK N   1      38.349   8.325  12.761  0.00  0.00     0.135 C 
HETATM   20  O   UNK N   1      38.792   7.197  12.614  0.00  0.00    -0.297 OA
HETATM   21  C   UNK N   1      39.580   9.318  14.632  0.00  0.00     0.024 C 
HETATM   22  C   UNK N   1      34.272  10.419  16.058  0.00  0.00     0.025 C 
ENDROOT
TORSDOF 0
ENDMDL
MODEL 4
REMARK VINA RESULT:      -7.2      3.422      5.756
REMARK  0 active torsions:
REMARK  status: ('A' for Active; 'I' for Inactive)
ROOT
HETATM    1  C   UNK N   1      28.720  29.274  -7.125  0.00  0.00     0.044 C 
HETATM    2  C   UNK N   1      27.855  29.051  -5.927  0.00  0.00    -0.067 A 
HETATM    3  C   UNK N   1      27.444  30.142  -5.264  0.00  0.00     0.058 A 
HETATM    4  C   UNK N   1      26.630  30.034  -4.053  0.00  0.00     0.172 A 
HETATM    5  O   UNK N   1      26.281  31.038  -3.455  0.00  0.00    -0.289 OA
HETATM    6  C   UNK N   1      26.224  28.715  -3.574  0.00  0.00     0.058 A 
HETATM    7  C   UNK N   1      26.620  27.600  -4.199  0.00  0.00    -0.063 A 
HETATM    8  C   UNK N   1      27.511  27.621  -5.454  0.00  0.00     0.007 A 
HETATM    9  C   UNK N   1      26.754  26.804  -6.540  0.00  0.00     0.007 C 
HETATM   10  C   UNK N   1      27.314  26.847  -7.990  0.00  0.00     0.007 C 
HETATM   11  C   UNK N   1      27.735  25.492  -8.583  0.00  0.00     0.018 C 
HETATM   12  C   UNK N   1      26.621  24.480  -8.378  0.00  0.00     0.021 C 
HETATM   13  C   UNK N   1      26.542  24.270  -6.890  0.00  0.00     0.006 C 
HETATM   14  C   UNK N   1      26.070  25.466  -6.071  0.00  0.00    -0.004 C 
HETATM   15  C   UNK N   1      26.389  25.141  -4.606  0.00  0.00     0.010 C 
HETATM   16  C   UNK N   1      26.075  26.301  -3.677  0.00  0.00     0.036 C 
HETATM   17  C   UNK N   1      25.928  22.899  -6.658  0.00  0.00     0.013 C 
HETATM   18  C   UNK N   1      26.570  22.061  -7.765  0.00  0.00     0.079 C 
HETATM   19  C   UNK N   1      26.901  23.085  -8.801  0.00  0.00     0.135 C 
HETATM   20  O   UNK N   1      27.242  22.784  -9.934  0.00  0.00    -0.297 OA
HETATM   21  C   UNK N   1      25.311  24.936  -9.022  0.00  0.00     0.024 C 
HETATM   22  C   UNK N   1      28.828  26.918  -5.132  0.00  0.00     0.025 C 
ENDROOT
TORSDOF 0
ENDMDL
MODEL 5
REMARK VINA RESULT:      -7.1     20.446     24.365
REMARK  0 active torsions:
REMARK  status: ('A' for Active; 'I' for Inactive)
ROOT
HETATM    1  C   UNK N   1      37.504  15.442  15.621  0.00  0.00     0.044 C 
HETATM    2  C   UNK N   1      36.578  14.400  16.161  0.00  0.00    -0.067 A 
HETATM    3  C   UNK N   1      36.155  14.561  17.424  0.00  0.00     0.058 A 
HETATM    4  C   UNK N   1      35.282  13.577  18.064  0.00  0.00     0.172 A 
HETATM    5  O   UNK N   1      34.922  13.733  19.219  0.00  0.00    -0.289 OA
HETATM    6  C   UNK N   1      34.831  12.414  17.305  0.00  0.00     0.058 A 
HETATM    7  C   UNK N   1      35.237  12.209  16.047  0.00  0.00    -0.063 A 
HETATM    8  C   UNK N   1      36.188  13.171  15.311  0.00  0.00     0.007 A 
HETATM    9  C   UNK N   1      35.469  13.568  13.990  0.00  0.00     0.007 C 
HETATM   10  C   UNK N   1      36.099  14.714  13.148  0.00  0.00     0.007 C 
HETATM   11  C   UNK N   1      36.525  14.336  11.720  0.00  0.00     0.018 C 
HETATM   12  C   UNK N   1      35.385  13.611  11.026  0.00  0.00     0.021 C 
HETATM   13  C   UNK N   1      35.230  12.310  11.766  0.00  0.00     0.006 C 
HETATM   14  C   UNK N   1      34.741  12.415  13.205  0.00  0.00    -0.004 C 
HETATM   15  C   UNK N   1      34.983  11.042  13.847  0.00  0.00     0.010 C 
HETATM   16  C   UNK N   1      34.645  11.030  15.328  0.00  0.00     0.036 C 
HETATM   17  C   UNK N   1      34.583  11.320  10.811  0.00  0.00     0.013 C 
HETATM   18  C   UNK N   1      35.262  11.653   9.482  0.00  0.00     0.079 C 
HETATM   19  C   UNK N   1      35.661  13.081   9.667  0.00  0.00     0.135 C 
HETATM   20  O   UNK N   1      36.050  13.777   8.743  0.00  0.00    -0.297 OA
HETATM   21  C   UNK N   1      34.116  14.462  10.974  0.00  0.00     0.024 C 
HETATM   22  C   UNK N   1      37.475  12.423  14.972  0.00  0.00     0.025 C 
ENDROOT
TORSDOF 0
ENDMDL
MODEL 6
REMARK VINA RESULT:      -7.1      3.175      6.554
REMARK  0 active torsions:
REMARK  status: ('A' for Active; 'I' for Inactive)
ROOT
HETATM    1  C   UNK N   1      28.210  23.550  -5.440  0.00  0.00     0.044 C 
HETATM    2  C   UNK N   1      29.338  23.047  -4.598  0.00  0.00    -0.067 A 
HETATM    3  C   UNK N   1      29.268  23.292  -3.282  0.00  0.00     0.058 A 
HETATM    4  C   UNK N   1      30.339  22.881  -2.374  0.00  0.00     0.172 A 
HETATM    5  O   UNK N   1      30.264  23.128  -1.181  0.00  0.00    -0.289 OA
HETATM    6  C   UNK N   1      31.493  22.158  -2.903  0.00  0.00     0.058 A 
HETATM    7  C   UNK N   1      31.609  21.902  -4.211  0.00  0.00    -0.063 A 
HETATM    8  C   UNK N   1      30.549  22.335  -5.241  0.00  0.00     0.007 A 
HETATM    9  C   UNK N   1      30.139  21.047  -6.011  0.00  0.00     0.007 C 
HETATM   10  C   UNK N   1      28.913  21.141  -6.963  0.00  0.00     0.007 C 
HETATM   11  C   UNK N   1      29.191  20.826  -8.442  0.00  0.00     0.018 C 
HETATM   12  C   UNK N   1      29.958  19.519  -8.546  0.00  0.00     0.021 C 
HETATM   13  C   UNK N   1      31.301  19.794  -7.926  0.00  0.00     0.006 C 
HETATM   14  C   UNK N   1      31.300  20.070  -6.427  0.00  0.00    -0.004 C 
HETATM   15  C   UNK N   1      32.682  20.645  -6.090  0.00  0.00     0.010 C 
HETATM   16  C   UNK N   1      32.789  21.077  -4.638  0.00  0.00     0.036 C 
HETATM   17  C   UNK N   1      32.286  18.798  -8.516  0.00  0.00     0.013 C 
HETATM   18  C   UNK N   1      31.843  18.726  -9.978  0.00  0.00     0.079 C 
HETATM   19  C   UNK N   1      30.402  19.111  -9.903  0.00  0.00     0.135 C 
HETATM   20  O   UNK N   1      29.637  18.973 -10.844  0.00  0.00    -0.297 OA
HETATM   21  C   UNK N   1      29.195  18.357  -7.909  0.00  0.00     0.024 C 
HETATM   22  C   UNK N   1      31.189  23.316  -6.219  0.00  0.00     0.025 C 
ENDROOT
TORSDOF 0
ENDMDL
MODEL 7
REMARK VINA RESULT:      -7.1     12.121     14.687
REMARK  0 active torsions:
REMARK  status: ('A' for Active; 'I' for Inactive)
ROOT
HETATM    1  C   UNK N   1      28.632  17.750   8.835  0.00  0.00     0.044 C 
HETATM    2  C   UNK N   1      28.680  18.065   7.374  0.00  0.00    -0.067 A 
HETATM    3  C   UNK N   1      27.778  18.944   6.914  0.00  0.00     0.058 A 
HETATM    4  C   UNK N   1      27.710  19.290   5.494  0.00  0.00     0.172 A 
HETATM    5  O   UNK N   1      26.871  20.079   5.092  0.00  0.00    -0.289 OA
HETATM    6  C   UNK N   1      28.664  18.695   4.562  0.00  0.00     0.058 A 
HETATM    7  C   UNK N   1      29.573  17.805   4.977  0.00  0.00    -0.063 A 
HETATM    8  C   UNK N   1      29.688  17.354   6.445  0.00  0.00     0.007 A 
HETATM    9  C   UNK N   1      31.164  17.609   6.865  0.00  0.00     0.007 C 
HETATM   10  C   UNK N   1      31.516  17.458   8.372  0.00  0.00     0.007 C 
HETATM   11  C   UNK N   1      32.574  16.394   8.707  0.00  0.00     0.018 C 
HETATM   12  C   UNK N   1      33.781  16.577   7.803  0.00  0.00     0.021 C 
HETATM   13  C   UNK N   1      33.295  16.251   6.416  0.00  0.00     0.006 C 
HETATM   14  C   UNK N   1      32.275  17.215   5.823  0.00  0.00    -0.004 C 
HETATM   15  C   UNK N   1      31.685  16.519   4.590  0.00  0.00     0.010 C 
HETATM   16  C   UNK N   1      30.562  17.321   3.955  0.00  0.00     0.036 C 
HETATM   17  C   UNK N   1      34.504  15.825   5.601  0.00  0.00     0.013 C 
HETATM   18  C   UNK N   1      35.308  15.003   6.610  0.00  0.00     0.079 C 
HETATM   19  C   UNK N   1      34.863  15.567   7.920  0.00  0.00     0.135 C 
HETATM   20  O   UNK N   1      35.432  15.314   8.969  0.00  0.00    -0.297 OA
HETATM   21  C   UNK N   1      34.393  17.971   7.945  0.00  0.00     0.024 C 
HETATM   22  C   UNK N   1      29.401  15.857   6.520  0.00  0.00     0.025 C 
ENDROOT
TORSDOF 0
ENDMDL
MODEL 8
REMARK VINA RESULT:      -7.0     27.920     31.264
REMARK  0 active torsions:
REMARK  status: ('A' for Active; 'I' for Inactive)
ROOT
HETATM    1  C   UNK N   1      32.109   6.059  19.502  0.00  0.00     0.044 C 
HETATM    2  C   UNK N   1      32.090   6.659  20.871  0.00  0.00    -0.067 A 
HETATM    3  C   UNK N   1      31.824   5.830  21.891  0.00  0.00     0.058 A 
HETATM    4  C   UNK N   1      31.740   6.322  23.267  0.00  0.00     0.172 A 
HETATM    5  O   UNK N   1      31.480   5.555  24.180  0.00  0.00    -0.289 OA
HETATM    6  C   UNK N   1      31.983   7.735  23.542  0.00  0.00     0.058 A 
HETATM    7  C   UNK N   1      32.240   8.599  22.553  0.00  0.00    -0.063 A 
HETATM    8  C   UNK N   1      32.307   8.174  21.074  0.00  0.00     0.007 A 
HETATM    9  C   UNK N   1      33.691   8.651  20.547  0.00  0.00     0.007 C 
HETATM   10  C   UNK N   1      34.130   8.157  19.139  0.00  0.00     0.007 C 
HETATM   11  C   UNK N   1      34.388   9.257  18.096  0.00  0.00     0.018 C 
HETATM   12  C   UNK N   1      35.297  10.318  18.693  0.00  0.00     0.021 C 
HETATM   13  C   UNK N   1      34.490  10.967  19.784  0.00  0.00     0.006 C 
HETATM   14  C   UNK N   1      34.160  10.088  20.984  0.00  0.00    -0.004 C 
HETATM   15  C   UNK N   1      33.076  10.827  21.780  0.00  0.00     0.010 C 
HETATM   16  C   UNK N   1      32.562  10.010  22.952  0.00  0.00     0.036 C 
HETATM   17  C   UNK N   1      35.054  12.363  19.995  0.00  0.00     0.013 C 
HETATM   18  C   UNK N   1      35.367  12.810  18.567  0.00  0.00     0.079 C 
HETATM   19  C   UNK N   1      35.569  11.513  17.854  0.00  0.00     0.135 C 
HETATM   20  O   UNK N   1      36.042  11.449  16.731  0.00  0.00    -0.297 OA
HETATM   21  C   UNK N   1      36.630   9.730  19.158  0.00  0.00     0.024 C 
HETATM   22  C   UNK N   1      31.206   8.901  20.306  0.00  0.00     0.025 C 
ENDROOT
TORSDOF 0
ENDMDL
MODEL 9
REMARK VINA RESULT:      -7.0      2.588      5.132
REMARK  0 active torsions:
REMARK  status: ('A' for Active; 'I' for Inactive)
ROOT
HETATM    1  C   UNK N   1      31.259  22.091  -5.739  0.00  0.00     0.044 C 
HETATM    2  C   UNK N   1      30.143  21.474  -6.520  0.00  0.00    -0.067 A 
HETATM    3  C   UNK N   1      30.246  20.165  -6.793  0.00  0.00     0.058 A 
HETATM    4  C   UNK N   1      29.231  19.472  -7.586  0.00  0.00     0.172 A 
HETATM    5  O   UNK N   1      29.351  18.285  -7.838  0.00  0.00    -0.289 OA
HETATM    6  C   UNK N   1      28.063  20.209  -8.063  0.00  0.00     0.058 A 
HETATM    7  C   UNK N   1      27.926  21.518  -7.822  0.00  0.00    -0.063 A 
HETATM    8  C   UNK N   1      28.966  22.333  -7.031  0.00  0.00     0.007 A 
HETATM    9  C   UNK N   1      28.189  23.024  -5.874  0.00  0.00     0.007 C 
HETATM   10  C   UNK N   1      29.027  23.734  -4.773  0.00  0.00     0.007 C 
HETATM   11  C   UNK N   1      28.771  25.241  -4.608  0.00  0.00     0.018 C 
HETATM   12  C   UNK N   1      27.276  25.494  -4.510  0.00  0.00     0.021 C 
HETATM   13  C   UNK N   1      26.721  25.129  -5.860  0.00  0.00     0.006 C 
HETATM   14  C   UNK N   1      26.793  23.653  -6.234  0.00  0.00    -0.004 C 
HETATM   15  C   UNK N   1      26.497  23.571  -7.738  0.00  0.00     0.010 C 
HETATM   16  C   UNK N   1      26.648  22.161  -8.280  0.00  0.00     0.036 C 
HETATM   17  C   UNK N   1      25.422  25.897  -6.038  0.00  0.00     0.013 C 
HETATM   18  C   UNK N   1      25.754  27.253  -5.415  0.00  0.00     0.079 C 
HETATM   19  C   UNK N   1      26.842  26.913  -4.450  0.00  0.00     0.135 C 
HETATM   20  O   UNK N   1      27.236  27.698  -3.603  0.00  0.00    -0.297 OA
HETATM   21  C   UNK N   1      26.645  24.736  -3.342  0.00  0.00     0.024 C 
HETATM   22  C   UNK N   1      29.548  23.405  -7.949  0.00  0.00     0.025 C 
ENDROOT
TORSDOF 0
ENDMDL
