REMARK  6 active torsions:
REMARK  status: ('A' for Active; 'I' for Inactive)
REMARK    1  A    between atoms: C_3  and  C_15 
REMARK    2  A    between atoms: C_5  and  C_9 
REMARK       I    between atoms: C_9  and  N_11 
REMARK    3  A    between atoms: N_11  and  C_12 
REMARK    4  A    between atoms: C_18  and  C_22 
REMARK       I    between atoms: C_22  and  N_24 
REMARK    5  A    between atoms: N_24  and  C_25 
REMARK    6  A    between atoms: C_25  and  C_26 
ROOT
HETATM    1  C   UNK N   1       5.666   0.193  -0.058  0.00  0.00     0.043 A 
HETATM    2  C   UNK N   1       5.893   1.567  -0.213  0.00  0.00     0.031 A 
HETATM    3  C   UNK N   1       7.206   2.050  -0.224  0.00  0.00     0.021 A 
HETATM    4  C   UNK N   1       8.288   1.172  -0.062  0.00  0.00     0.047 A 
HETATM    5  C   UNK N   1       8.014  -0.187   0.102  0.00  0.00     0.105 A 
HETATM    6  N   UNK N   1       6.736  -0.639   0.085  0.00  0.00    -0.364 N 
ATOM      7  HN  UNK N   1       6.570  -1.640   0.183  1.00  0.00     0.165 HD
ENDROOT
BRANCH   1   8
HETATM    8  C   UNK N   1       4.304  -0.411  -0.060  0.00  0.00     0.000 A 
HETATM    9  C   UNK N   1       3.078   0.307   0.009  0.00  0.00    -0.011 A 
HETATM   10  C   UNK N   1       3.034   1.798   0.106  0.00  0.00     0.052 C 
HETATM   11  C   UNK N   1       1.860  -0.403   0.010  0.00  0.00     0.124 A 
HETATM   12  C   UNK N   1       1.851  -1.802  -0.076  0.00  0.00     0.059 A 
HETATM   13  F   UNK N   1       0.680   0.262   0.090  0.00  0.00    -0.206 F 
HETATM   14  C   UNK N   1       3.055  -2.507  -0.159  0.00  0.00     0.035 A 
HETATM   15  C   UNK N   1       4.255  -1.804  -0.141  0.00  0.00     0.031 A 
BRANCH  14  16
HETATM   16  C   UNK N   1       3.103  -3.978  -0.303  0.00  0.00     0.252 C 
HETATM   17  O   UNK N   1       4.183  -4.529  -0.459  0.00  0.00    -0.268 OA
HETATM   18  N   UNK N   1       1.961  -4.714  -0.280  0.00  0.00    -0.352 N 
HETATM   19  H   UNK N   1       1.102  -4.254  -0.132  0.00  0.00     0.163 HD
BRANCH  18  20
HETATM   20  C   UNK N   1       1.961  -6.151  -0.467  0.00  0.00     0.084 A 
HETATM   21  C   UNK N   1       2.791  -6.843   0.606  0.00  0.00     0.027 A 
HETATM   22  C   UNK N   1       1.286  -6.808   0.721  0.00  0.00     0.027 A 
ENDBRANCH  18  20
ENDBRANCH  14  16
ENDBRANCH   1   8
BRANCH   4  23
HETATM   23  C   UNK N   1       9.713   1.622  -0.021  0.00  0.00     0.253 C 
HETATM   24  O   UNK N   1      10.567   0.809   0.297  0.00  0.00    -0.268 OA
HETATM   25  N   UNK N   1      10.114   2.886  -0.320  0.00  0.00    -0.356 N 
HETATM   26  H   UNK N   1      11.065   3.102  -0.181  0.00  0.00     0.162 HD
BRANCH  25  27
HETATM   27  C   UNK N   1       9.263   3.939  -0.823  0.00  0.00     0.131 C 
BRANCH  27  28
HETATM   28  C   UNK N   1       9.132   5.092   0.167  0.00  0.00    -0.035 C 
HETATM   29  C   UNK N   1       8.451   6.246  -0.538  0.00  0.00     0.016 C 
HETATM   30  C   UNK N   1      10.491   5.558   0.658  0.00  0.00     0.016 C 
HETATM   31  C   UNK N   1       8.283   4.675   1.352  0.00  0.00     0.016 C 
ENDBRANCH  27  28
ENDBRANCH  25  27
ENDBRANCH   4  23
TORSDOF 6
