REMARK  0 active torsions:
REMARK  status: ('A' for Active; 'I' for Inactive)
ROOT
HETATM    1  O   UNK N   1      28.580 -17.126   0.835  0.00  0.00    -0.309 OA
HETATM    2  O   UNK N   1      30.069 -18.700   0.299  0.00  0.00    -0.265 OA
HETATM    3  O   UNK N   1      27.668  -6.925  -0.032  0.00  0.00    -0.293 OA
HETATM    4  C   UNK N   1      27.875 -14.897   0.161  0.00  0.00    -0.008 C 
HETATM    5  C   UNK N   1      26.540 -14.168   0.494  0.00  0.00     0.005 C 
HETATM    6  C   UNK N   1      27.549 -16.412   0.271  0.00  0.00     0.079 C 
HETATM    7  C   UNK N   1      26.145 -13.067  -0.524  0.00  0.00     0.018 C 
HETATM    8  C   UNK N   1      27.350 -12.173  -0.966  0.00  0.00     0.006 C 
HETATM    9  C   UNK N   1      28.426 -14.508  -1.222  0.00  0.00     0.013 C 
HETATM   10  C   UNK N   1      25.495 -15.272   0.605  0.00  0.00     0.009 C 
HETATM   11  C   UNK N   1      26.287 -16.467   1.110  0.00  0.00     0.040 C 
HETATM   12  C   UNK N   1      28.606 -12.994  -1.338  0.00  0.00     0.007 C 
HETATM   13  C   UNK N   1      27.675 -11.038   0.039  0.00  0.00    -0.012 C 
HETATM   14  C   UNK N   1      27.278 -17.099  -1.095  0.00  0.00     0.049 C 
HETATM   15  C   UNK N   1      28.925 -14.510   1.214  0.00  0.00     0.019 C 
HETATM   16  C   UNK N   1      24.987 -12.241   0.013  0.00  0.00    -0.021 C 
HETATM   17  C   UNK N   1      26.395 -10.225   0.224  0.00  0.00    -0.046 C 
HETATM   18  C   UNK N   1      28.825 -10.171  -0.526  0.00  0.00     0.022 C 
HETATM   19  C   UNK N   1      28.427 -18.092  -1.307  0.00  0.00     0.114 C 
HETATM   20  C   UNK N   1      28.107 -11.575   1.398  0.00  0.00     0.021 C 
HETATM   21  C   UNK N   1      25.098 -10.934   0.316  0.00  0.00     0.004 C 
HETATM   22  C   UNK N   1      29.096 -18.024   0.003  0.00  0.00     0.259 C 
HETATM   23  C   UNK N   1      28.972  -8.867   0.241  0.00  0.00     0.084 C 
HETATM   24  C   UNK N   1      26.406  -8.879   0.236  0.00  0.00     0.058 C 
HETATM   25  C   UNK N   1      27.676  -8.131   0.142  0.00  0.00     0.149 C 
ENDROOT
TORSDOF 0
