REMARK  6 active torsions:
REMARK  status: ('A' for Active; 'I' for Inactive)
REMARK    1  A    between atoms: C_17  and  C_13 
REMARK    2  A    between atoms: N_33  and  C_13 
REMARK    3  A    between atoms: C_22  and  C_15 
REMARK    4  A    between atoms: C_15  and  O_36 
REMARK    5  A    between atoms: C_20  and  C_16 
REMARK    6  A    between atoms: N_34  and  C_21 
REMARK       I    between atoms: N_35  and  C_22 
REMARK       I    between atoms: N_24  and  C_23 
ROOT
HETATM    1  C   UNK N   1      -1.053   2.107  -0.189  0.00  0.00     0.052 C 
HETATM    2  C   UNK N   1      -0.736   0.687   0.134  0.00  0.00    -0.019 A 
HETATM    3  C   UNK N   1      -1.698  -0.265   0.501  0.00  0.00     0.020 A 
HETATM    4  C   UNK N   1       0.576   0.133   0.082  0.00  0.00     0.061 A 
HETATM    5  C   UNK N   1       0.635  -1.221   0.379  0.00  0.00     0.076 A 
HETATM    6  C   UNK N   1       2.904   0.161  -0.226  0.00  0.00     0.120 A 
HETATM    7  C   UNK N   1       1.844  -1.921   0.295  0.00  0.00     0.124 A 
HETATM    8  N   UNK N   1       1.704   0.816  -0.216  0.00  0.00    -0.340 N 
ATOM      9  HN  UNK N   1       1.659   1.812  -0.431  1.00  0.00     0.167 HD
HETATM   10  N   UNK N   1       2.959  -1.191  -0.000  0.00  0.00    -0.327 N 
ATOM     11  HN  UNK N   1       3.860  -1.666  -0.054  1.00  0.00     0.169 HD
HETATM   12  S   UNK N   1      -0.893  -1.694   0.759  0.00  0.00    -0.086 SA
ENDROOT
BRANCH   3  13
HETATM   13  C   UNK N   1      -3.187  -0.104   0.611  0.00  0.00     0.319 C 
BRANCH  13  14
HETATM   14  N   UNK N   1      -3.923  -0.489  -0.615  0.00  0.00     0.096 N 
HETATM   15  C   UNK N   1      -5.273  -0.941  -0.271  0.00  0.00     0.292 C 
HETATM   16  C   UNK N   1      -5.257  -2.262   0.514  0.00  0.00     0.156 C 
HETATM   17  N   UNK N   1      -4.392  -3.266  -0.091  0.00  0.00    -0.347 N 
HETATM   18  C   UNK N   1      -3.160  -2.848  -0.716  0.00  0.00     0.156 C 
HETATM   19  C   UNK N   1      -4.705  -4.596   0.044  0.00  0.00     0.248 C 
HETATM   20  C   UNK N   1      -3.302  -1.520  -1.457  0.00  0.00     0.292 C 
HETATM   21  O   UNK N   1      -5.778  -4.905   0.545  0.00  0.00    -0.270 OA
BRANCH  19  22
HETATM   22  C   UNK N   1      -3.774  -5.742  -0.365  0.00  0.00     0.206 C 
HETATM   23  C   UNK N   1      -4.397  -6.550  -1.485  0.00  0.00     0.049 C 
BRANCH  22  24
HETATM   24  O   UNK N   1      -2.494  -5.348  -0.757  0.00  0.00    -0.387 OA
HETATM   25  H   UNK N   1      -1.812  -5.981  -1.029  0.00  0.00     0.210 HD
ENDBRANCH  22  24
ENDBRANCH  19  22
ENDBRANCH  13  14
ENDBRANCH   3  13
BRANCH   7  26
HETATM   26  N   UNK N   1       1.948  -3.340   0.493  0.00  0.00    -0.362 N 
HETATM   27  C   UNK N   1       0.770  -4.132   0.846  0.00  0.00     0.150 C 
HETATM   28  C   UNK N   1       1.069  -5.621   0.985  0.00  0.00     0.187 C 
HETATM   29  O   UNK N   1       1.958  -6.007  -0.020  0.00  0.00    -0.388 OA
HETATM   30  C   UNK N   1       3.189  -5.501   0.410  0.00  0.00     0.187 C 
HETATM   31  C   UNK N   1       3.228  -3.983   0.212  0.00  0.00     0.150 C 
ENDBRANCH   7  26
BRANCH   6  32
HETATM   32  C   UNK N   1       4.147   0.939  -0.271  0.00  0.00     0.040 A 
HETATM   33  C   UNK N   1       4.108   2.334  -0.318  0.00  0.00     0.122 A 
HETATM   34  N   UNK N   1       5.249   3.050  -0.152  0.00  0.00    -0.201 N 
HETATM   35  C   UNK N   1       6.436   2.426   0.073  0.00  0.00     0.675 A 
HETATM   36  H   UNK N   1       5.216   4.033  -0.195  0.00  0.00     0.183 HD
HETATM   37  N   UNK N   1       7.489   3.117   0.278  0.00  0.00    -0.234 N 
HETATM   38  N   UNK N   1       6.499   1.068   0.098  0.00  0.00    -0.201 N 
HETATM   39  H   UNK N   1       8.357   2.680   0.437  0.00  0.00     0.174 HD
ATOM     40  HN  UNK N   1       7.431   4.136   0.278  1.00  0.00     0.174 HD
HETATM   41  C   UNK N   1       5.380   0.317  -0.065  0.00  0.00     0.122 A 
ATOM     42  HN  UNK N   1       7.398   0.608   0.240  1.00  0.00     0.183 HD
ENDBRANCH   6  32
TORSDOF 6
