REMARK  14 active torsions:
REMARK  status: ('A' for Active; 'I' for Inactive)
REMARK    1  A    between atoms: C_2  and  C_4 
REMARK    2  A    between atoms: C_4  and  N_5 
REMARK    3  A    between atoms: N_5  and  C_6 
REMARK       I    between atoms: N_5  and  C_39 
REMARK    4  A    between atoms: C_6  and  C_7 
REMARK    5  A    between atoms: C_7  and  C_8 
REMARK    6  A    between atoms: C_8  and  C_9 
REMARK    7  A    between atoms: C_8  and  N_16 
REMARK    8  A    between atoms: C_9  and  C_10 
REMARK       I    between atoms: N_16  and  C_17 
REMARK    9  A    between atoms: C_17  and  C_19 
REMARK   10  A    between atoms: C_19  and  C_20 
REMARK   11  A    between atoms: C_19  and  N_24 
REMARK   12  A    between atoms: C_20  and  C_21 
REMARK       I    between atoms: C_21  and  N_23 
REMARK       I    between atoms: N_24  and  C_25 
REMARK   13  A    between atoms: C_25  and  C_27 
REMARK       I    between atoms: C_39  and  N_41 
REMARK   14  A    between atoms: N_41  and  C_42 
ROOT
HETATM    1  C   UNK N   1      10.928  -3.342   0.822  0.00  0.00     0.159 C 
HETATM    2  O   UNK N   1      10.739  -3.413   2.206  0.00  0.00    -0.392 OA
HETATM    3  H   UNK N   1      10.631  -3.325   3.166  0.00  0.00     0.210 HD
ENDROOT
BRANCH   1   4
HETATM    4  C   UNK N   1       9.897  -2.614  -0.011  0.00  0.00     0.161 C 
BRANCH   4   5
HETATM    5  N   UNK N   1       8.676  -3.352  -0.338  0.00  0.00    -0.331 N 
HETATM    6  C   UNK N   1       8.392  -4.618   0.125  0.00  0.00     0.319 C 
HETATM    7  O   UNK N   1       9.156  -5.185   0.888  0.00  0.00    -0.247 OA
HETATM    8  N   UNK N   1       7.250  -5.248  -0.270  0.00  0.00    -0.335 N 
HETATM    9  H   UNK N   1       6.651  -4.736  -0.860  0.00  0.00     0.165 HD
BRANCH   5  10
HETATM   10  C   UNK N   1       7.732  -2.703  -1.235  0.00  0.00     0.131 C 
BRANCH  10  11
HETATM   11  C   UNK N   1       7.678  -1.182  -1.045  0.00  0.00    -0.005 C 
HETATM   12  C   UNK N   1       6.723  -0.573  -2.048  0.00  0.00     0.011 C 
HETATM   13  C   UNK N   1       7.244  -0.809   0.360  0.00  0.00     0.011 C 
ENDBRANCH  10  11
ENDBRANCH   5  10
BRANCH   8  14
HETATM   14  C   UNK N   1       6.814  -6.597   0.084  0.00  0.00     0.023 C 
HETATM   15  C   UNK N   1       6.581  -7.374  -1.193  0.00  0.00     0.037 C 
HETATM   16  C   UNK N   1       5.506  -6.498   0.838  0.00  0.00     0.037 C 
HETATM   17  C   UNK N   1       7.789  -7.402   0.938  0.00  0.00     0.037 C 
ENDBRANCH   8  14
ENDBRANCH   4   5
ENDBRANCH   1   4
BRANCH   1  18
HETATM   18  C   UNK N   1      12.022  -4.152   0.154  0.00  0.00     0.119 C 
BRANCH  18  19
HETATM   19  C   UNK N   1      12.304  -5.410   0.984  0.00  0.00     0.066 C 
BRANCH  19  20
HETATM   20  C   UNK N   1      12.078  -6.679   0.224  0.00  0.00    -0.056 A 
HETATM   21  C   UNK N   1      12.865  -7.796   0.522  0.00  0.00     0.007 A 
HETATM   22  C   UNK N   1      12.656  -9.003  -0.151  0.00  0.00     0.001 A 
HETATM   23  C   UNK N   1      11.657  -9.098  -1.125  0.00  0.00     0.000 A 
HETATM   24  C   UNK N   1      10.864  -7.987  -1.423  0.00  0.00     0.001 A 
HETATM   25  C   UNK N   1      11.071  -6.781  -0.748  0.00  0.00     0.007 A 
ENDBRANCH  19  20
ENDBRANCH  18  19
BRANCH  18  26
HETATM   26  N   UNK N   1      13.121  -3.227   0.033  0.00  0.00    -0.352 N 
HETATM   27  C   UNK N   1      14.382  -3.355   0.494  0.00  0.00     0.241 C 
HETATM   28  O   UNK N   1      14.813  -4.427   0.890  0.00  0.00    -0.271 OA
HETATM   29  H   UNK N   1      12.925  -2.392  -0.451  0.00  0.00     0.163 HD
BRANCH  27  30
HETATM   30  C   UNK N   1      15.202  -2.119   0.670  0.00  0.00     0.185 C 
BRANCH  30  31
HETATM   31  C   UNK N   1      14.527  -1.204   1.708  0.00  0.00     0.137 C 
BRANCH  31  32
HETATM   32  C   UNK N   1      13.478  -0.257   1.168  0.00  0.00     0.217 C 
HETATM   33  O   UNK N   1      12.606  -0.647   0.409  0.00  0.00    -0.274 OA
HETATM   34  N   UNK N   1      13.490   1.031   1.553  0.00  0.00    -0.370 N 
HETATM   35  H   UNK N   1      14.312   1.495   1.834  0.00  0.00     0.159 HD
HETATM   36  H   UNK N   1      12.642   1.532   1.553  0.00  0.00     0.159 HD
ENDBRANCH  31  32
ENDBRANCH  30  31
BRANCH  30  37
HETATM   37  N   UNK N   1      15.439  -1.390  -0.557  0.00  0.00    -0.342 N 
HETATM   38  C   UNK N   1      16.656  -1.318  -1.152  0.00  0.00     0.268 C 
HETATM   39  O   UNK N   1      16.848  -0.454  -1.994  0.00  0.00    -0.266 OA
HETATM   40  H   UNK N   1      14.681  -0.925  -0.980  0.00  0.00     0.163 HD
BRANCH  38  41
HETATM   41  C   UNK N   1      17.751  -2.261  -0.819  0.00  0.00     0.101 A 
HETATM   42  C   UNK N   1      19.079  -1.950  -1.146  0.00  0.00     0.036 A 
HETATM   43  C   UNK N   1      20.091  -2.873  -0.874  0.00  0.00     0.016 A 
HETATM   44  C   UNK N   1      19.766  -4.111  -0.322  0.00  0.00    -0.009 A 
HETATM   45  C   UNK N   1      20.754  -5.066  -0.075  0.00  0.00     0.013 A 
HETATM   46  C   UNK N   1      18.418  -4.403  -0.031  0.00  0.00     0.043 A 
HETATM   47  C   UNK N   1      20.401  -6.315   0.448  0.00  0.00     0.001 A 
HETATM   48  C   UNK N   1      19.060  -6.610   0.723  0.00  0.00     0.002 A 
HETATM   49  C   UNK N   1      18.069  -5.652   0.488  0.00  0.00     0.030 A 
HETATM   50  N   UNK N   1      17.460  -3.474  -0.272  0.00  0.00    -0.351 N 
ATOM     51  HN  UNK N   1      16.491  -3.691  -0.038  1.00  0.00     0.166 HD
ENDBRANCH  38  41
ENDBRANCH  30  37
ENDBRANCH  27  30
ENDBRANCH  18  26
ENDBRANCH   1  18
TORSDOF 14
