REMARK  8 active torsions:
REMARK  status: ('A' for Active; 'I' for Inactive)
REMARK       I    between atoms: C_2  and  N_4 
REMARK    1  A    between atoms: N_4  and  C_5 
REMARK    2  A    between atoms: C_6  and  C_5 
REMARK    3  A    between atoms: N_8  and  C_12 
REMARK    4  A    between atoms: C_15  and  C_19 
REMARK    5  A    between atoms: C_22  and  C_25 
REMARK    6  A    between atoms: C_25  and  N_26 
REMARK    7  A    between atoms: N_26  and  C_27 
REMARK    8  A    between atoms: C_27  and  C_28 
ROOT
HETATM    1  C   UNK N   1       0.583  -5.167   0.506  0.00  0.00     0.042 A 
HETATM    2  C   UNK N   1       1.930  -4.825   0.628  0.00  0.00     0.031 A 
HETATM    3  C   UNK N   1       2.913  -5.788   0.538  0.00  0.00     0.017 A 
HETATM    4  C   UNK N   1       2.585  -7.134   0.358  0.00  0.00     0.013 A 
HETATM    5  C   UNK N   1       1.219  -7.506   0.301  0.00  0.00     0.129 A 
HETATM    6  C   UNK N   1       0.228  -6.517   0.348  0.00  0.00     0.073 A 
HETATM    7  F   UNK N   1       0.843  -8.799   0.129  0.00  0.00    -0.205 F 
ENDROOT
BRANCH   4   8
HETATM    8  C   UNK N   1       3.697  -8.097   0.210  0.00  0.00    -0.023 A 
HETATM    9  C   UNK N   1       4.997  -7.617  -0.040  0.00  0.00     0.013 A 
HETATM   10  C   UNK N   1       6.065  -8.497  -0.196  0.00  0.00     0.009 A 
HETATM   11  C   UNK N   1       5.856  -9.870  -0.080  0.00  0.00    -0.041 A 
HETATM   12  C   UNK N   1       4.564 -10.351   0.172  0.00  0.00     0.009 A 
HETATM   13  C   UNK N   1       3.489  -9.475   0.299  0.00  0.00     0.013 A 
BRANCH  11  14
HETATM   14  C   UNK N   1       7.024 -10.801  -0.216  0.00  0.00     0.153 C 
BRANCH  14  15
HETATM   15  N   UNK N   1       6.724 -12.128   0.308  0.00  0.00    -0.412 N 
HETATM   16  H   UNK N   1       6.861 -12.435   1.271  0.00  0.00     0.153 HD
BRANCH  15  17
HETATM   17  C   UNK N   1       6.197 -12.939  -0.779  0.00  0.00     0.174 C 
BRANCH  17  18
HETATM   18  C   UNK N   1       4.937 -13.604  -0.338  0.00  0.00     0.057 A 
HETATM   19  C   UNK N   1       4.817 -14.864   0.198  0.00  0.00     0.132 A 
HETATM   20  N   UNK N   1       3.506 -15.043   0.455  0.00  0.00    -0.293 N 
HETATM   21  N   UNK N   1       2.868 -13.941   0.089  0.00  0.00    -0.023 NA
ATOM     22  HN  UNK N   1       3.082 -15.877   0.859  1.00  0.00     0.183 HD
HETATM   23  N   UNK N   1       3.716 -13.052  -0.398  0.00  0.00    -0.285 N 
HETATM   24  H   UNK N   1       3.494 -12.155  -0.740  0.00  0.00     0.184 HD
ENDBRANCH  17  18
ENDBRANCH  15  17
ENDBRANCH  14  15
ENDBRANCH  11  14
ENDBRANCH   4   8
BRANCH   1  25
HETATM   25  N   UNK N   1      -0.366  -4.115   0.403  0.00  0.00    -0.291 N 
HETATM   26  C   UNK N   1      -0.028  -2.746   0.661  0.00  0.00     0.168 A 
HETATM   27  C   UNK N   1      -1.245  -1.988   0.096  0.00  0.00     0.170 A 
HETATM   28  O   UNK N   1      -2.145  -2.980  -0.277  0.00  0.00    -0.295 OA
HETATM   29  C   UNK N   1      -1.596  -4.182  -0.102  0.00  0.00     0.368 A 
HETATM   30  O   UNK N   1      -2.130  -5.218  -0.473  0.00  0.00    -0.238 OA
BRANCH  27  31
HETATM   31  C   UNK N   1      -0.748  -1.257  -1.143  0.00  0.00     0.156 C 
BRANCH  31  32
HETATM   32  N   UNK N   1      -1.322   0.061  -1.222  0.00  0.00    -0.359 N 
HETATM   33  C   UNK N   1      -1.013   1.039  -0.336  0.00  0.00     0.213 C 
HETATM   34  C   UNK N   1      -1.648   2.376  -0.474  0.00  0.00     0.117 C 
HETATM   35  O   UNK N   1      -0.225   0.835   0.576  0.00  0.00    -0.274 OA
HETATM   36  H   UNK N   1      -1.960   0.259  -1.945  0.00  0.00     0.162 HD
ENDBRANCH  31  32
ENDBRANCH  27  31
ENDBRANCH   1  25
TORSDOF 8
