MODEL 1
REMARK VINA RESULT:      -6.0      0.000      0.000
REMARK  0 active torsions:
REMARK  status: ('A' for Active; 'I' for Inactive)
ROOT
HETATM    1  C   UNK N   1      28.247  18.299   9.000  0.00  0.00     0.018 A 
HETATM    2  C   UNK N   1      28.284  17.970   7.634  0.00  0.00     0.013 A 
HETATM    3  C   UNK N   1      29.506  17.588   7.091  0.00  0.00    -0.004 A 
HETATM    4  C   UNK N   1      30.619  17.544   7.852  0.00  0.00     0.149 A 
HETATM    5  N   UNK N   1      30.606  17.861   9.174  0.00  0.00    -0.346 N 
ATOM      6  HN  UNK N   1      31.466  17.817   9.721  1.00  0.00     0.167 HD
HETATM    7  C   UNK N   1      29.433  18.238   9.760  0.00  0.00     0.090 A 
HETATM    8  O   UNK N   1      31.682  17.132   7.177  0.00  0.00    -0.321 OA
HETATM    9  C   UNK N   1      31.346  16.803   5.868  0.00  0.00     0.103 A 
HETATM   10  C   UNK N   1      29.833  17.174   5.705  0.00  0.00     0.083 A 
HETATM   11  C   UNK N   1      31.538  15.280   5.682  0.00  0.00     0.311 C 
HETATM   12  N   UNK N   1      32.640  14.985   4.750  0.00  0.00     0.091 N 
HETATM   13  C   UNK N   1      32.271  15.492   3.415  0.00  0.00     0.273 C 
HETATM   14  C   UNK N   1      31.972  17.011   3.453  0.00  0.00     0.038 C 
HETATM   15  C   UNK N   1      32.248  17.555   4.865  0.00  0.00     0.026 C 
HETATM   16  C   UNK N   1      33.706  17.199   5.193  0.00  0.00     0.038 C 
HETATM   17  C   UNK N   1      33.870  15.663   5.203  0.00  0.00     0.273 C 
ENDROOT
TORSDOF 0
ENDMDL
MODEL 2
REMARK VINA RESULT:      -5.9      2.237      2.826
REMARK  0 active torsions:
REMARK  status: ('A' for Active; 'I' for Inactive)
ROOT
HETATM    1  C   UNK N   1      27.819  17.820   7.535  0.00  0.00     0.018 A 
HETATM    2  C   UNK N   1      28.801  17.090   6.844  0.00  0.00     0.013 A 
HETATM    3  C   UNK N   1      30.114  17.182   7.293  0.00  0.00    -0.004 A 
HETATM    4  C   UNK N   1      30.431  17.954   8.352  0.00  0.00     0.149 A 
HETATM    5  N   UNK N   1      29.498  18.670   9.033  0.00  0.00    -0.346 N 
ATOM      6  HN  UNK N   1      29.772  19.245   9.830  1.00  0.00     0.167 HD
HETATM    7  C   UNK N   1      28.193  18.614   8.639  0.00  0.00     0.090 A 
HETATM    8  O   UNK N   1      31.720  17.899   8.655  0.00  0.00    -0.321 OA
HETATM    9  C   UNK N   1      32.392  17.009   7.823  0.00  0.00     0.103 A 
HETATM   10  C   UNK N   1      31.334  16.518   6.776  0.00  0.00     0.083 A 
HETATM   11  C   UNK N   1      32.882  15.816   8.676  0.00  0.00     0.311 C 
HETATM   12  N   UNK N   1      34.352  15.782   8.761  0.00  0.00     0.091 N 
HETATM   13  C   UNK N   1      34.892  15.537   7.410  0.00  0.00     0.273 C 
HETATM   14  C   UNK N   1      34.422  16.621   6.411  0.00  0.00     0.038 C 
HETATM   15  C   UNK N   1      33.607  17.690   7.157  0.00  0.00     0.026 C 
HETATM   16  C   UNK N   1      34.510  18.227   8.277  0.00  0.00     0.038 C 
HETATM   17  C   UNK N   1      34.853  17.080   9.254  0.00  0.00     0.273 C 
ENDROOT
TORSDOF 0
ENDMDL
MODEL 3
REMARK VINA RESULT:      -5.7     10.855     11.905
REMARK  0 active torsions:
REMARK  status: ('A' for Active; 'I' for Inactive)
ROOT
HETATM    1  C   UNK N   1      35.223  12.103  19.999  0.00  0.00     0.018 A 
HETATM    2  C   UNK N   1      35.073  13.032  18.955  0.00  0.00     0.013 A 
HETATM    3  C   UNK N   1      35.363  12.609  17.662  0.00  0.00    -0.004 A 
HETATM    4  C   UNK N   1      35.781  11.349  17.423  0.00  0.00     0.149 A 
HETATM    5  N   UNK N   1      35.936  10.435  18.417  0.00  0.00    -0.346 N 
ATOM      6  HN  UNK N   1      36.254   9.491  18.202  1.00  0.00     0.167 HD
HETATM    7  C   UNK N   1      35.661  10.795  19.705  0.00  0.00     0.090 A 
HETATM    8  O   UNK N   1      35.981  11.115  16.135  0.00  0.00    -0.321 OA
HETATM    9  C   UNK N   1      35.650  12.227  15.367  0.00  0.00     0.103 A 
HETATM   10  C   UNK N   1      35.277  13.357  16.385  0.00  0.00     0.083 A 
HETATM   11  C   UNK N   1      34.421  11.874  14.498  0.00  0.00     0.311 C 
HETATM   12  N   UNK N   1      34.764  11.839  13.066  0.00  0.00     0.091 N 
HETATM   13  C   UNK N   1      35.154  13.198  12.647  0.00  0.00     0.273 C 
HETATM   14  C   UNK N   1      36.342  13.728  13.487  0.00  0.00     0.038 C 
HETATM   15  C   UNK N   1      36.824  12.627  14.447  0.00  0.00     0.026 C 
HETATM   16  C   UNK N   1      37.170  11.409  13.578  0.00  0.00     0.038 C 
HETATM   17  C   UNK N   1      35.899  10.920  12.849  0.00  0.00     0.273 C 
ENDROOT
TORSDOF 0
ENDMDL
MODEL 4
REMARK VINA RESULT:      -5.7     15.032     16.439
REMARK  0 active torsions:
REMARK  status: ('A' for Active; 'I' for Inactive)
ROOT
HETATM    1  C   UNK N   1      26.318  21.129  -8.344  0.00  0.00     0.018 A 
HETATM    2  C   UNK N   1      27.133  22.273  -8.341  0.00  0.00     0.013 A 
HETATM    3  C   UNK N   1      26.732  23.354  -7.563  0.00  0.00    -0.004 A 
HETATM    4  C   UNK N   1      25.594  23.304  -6.841  0.00  0.00     0.149 A 
HETATM    5  N   UNK N   1      24.790  22.208  -6.831  0.00  0.00    -0.346 N 
ATOM      6  HN  UNK N   1      23.935  22.203  -6.274  1.00  0.00     0.167 HD
HETATM    7  C   UNK N   1      25.136  21.117  -7.573  0.00  0.00     0.090 A 
HETATM    8  O   UNK N   1      25.386  24.408  -6.140  0.00  0.00    -0.321 OA
HETATM    9  C   UNK N   1      26.437  25.307  -6.299  0.00  0.00     0.103 A 
HETATM   10  C   UNK N   1      27.396  24.664  -7.357  0.00  0.00     0.083 A 
HETATM   11  C   UNK N   1      27.168  25.450  -4.944  0.00  0.00     0.311 C 
HETATM   12  N   UNK N   1      27.000  26.800  -4.380  0.00  0.00     0.091 N 
HETATM   13  C   UNK N   1      27.661  27.766  -5.278  0.00  0.00     0.273 C 
HETATM   14  C   UNK N   1      27.081  27.690  -6.711  0.00  0.00     0.038 C 
HETATM   15  C   UNK N   1      25.913  26.690  -6.742  0.00  0.00     0.026 C 
HETATM   16  C   UNK N   1      24.903  27.165  -5.687  0.00  0.00     0.038 C 
HETATM   17  C   UNK N   1      25.563  27.127  -4.290  0.00  0.00     0.273 C 
ENDROOT
TORSDOF 0
ENDMDL
MODEL 5
REMARK VINA RESULT:      -5.6      9.348     10.596
REMARK  0 active torsions:
REMARK  status: ('A' for Active; 'I' for Inactive)
ROOT
HETATM    1  C   UNK N   1      22.933  11.960  11.378  0.00  0.00     0.018 A 
HETATM    2  C   UNK N   1      21.727  12.566  10.989  0.00  0.00     0.013 A 
HETATM    3  C   UNK N   1      21.727  13.324   9.823  0.00  0.00    -0.004 A 
HETATM    4  C   UNK N   1      22.853  13.475   9.096  0.00  0.00     0.149 A 
HETATM    5  N   UNK N   1      24.031  12.901   9.456  0.00  0.00    -0.346 N 
ATOM      6  HN  UNK N   1      24.865  13.036   8.883  1.00  0.00     0.167 HD
HETATM    7  C   UNK N   1      24.088  12.142  10.589  0.00  0.00     0.090 A 
HETATM    8  O   UNK N   1      22.662  14.203   8.006  0.00  0.00    -0.321 OA
HETATM    9  C   UNK N   1      21.325  14.571   7.879  0.00  0.00     0.103 A 
HETATM   10  C   UNK N   1      20.611  14.051   9.172  0.00  0.00     0.083 A 
HETATM   11  C   UNK N   1      20.740  13.865   6.634  0.00  0.00     0.311 C 
HETATM   12  N   UNK N   1      20.398  14.832   5.576  0.00  0.00     0.091 N 
HETATM   13  C   UNK N   1      19.314  15.701   6.072  0.00  0.00     0.273 C 
HETATM   14  C   UNK N   1      19.726  16.429   7.374  0.00  0.00     0.038 C 
HETATM   15  C   UNK N   1      21.191  16.099   7.706  0.00  0.00     0.026 C 
HETATM   16  C   UNK N   1      22.020  16.503   6.478  0.00  0.00     0.038 C 
HETATM   17  C   UNK N   1      21.577  15.662   5.260  0.00  0.00     0.273 C 
ENDROOT
TORSDOF 0
ENDMDL
MODEL 6
REMARK VINA RESULT:      -5.4     13.169     14.809
REMARK  0 active torsions:
REMARK  status: ('A' for Active; 'I' for Inactive)
ROOT
HETATM    1  C   UNK N   1      30.076  22.792  -2.398  0.00  0.00     0.018 A 
HETATM    2  C   UNK N   1      28.747  23.247  -2.373  0.00  0.00     0.013 A 
HETATM    3  C   UNK N   1      28.378  24.227  -3.288  0.00  0.00    -0.004 A 
HETATM    4  C   UNK N   1      29.272  24.726  -4.166  0.00  0.00     0.149 A 
HETATM    5  N   UNK N   1      30.563  24.303  -4.206  0.00  0.00    -0.346 N 
ATOM      6  HN  UNK N   1      31.214  24.702  -4.882  1.00  0.00     0.167 HD
HETATM    7  C   UNK N   1      30.979  23.340  -3.333  0.00  0.00     0.090 A 
HETATM    8  O   UNK N   1      28.740  25.627  -4.978  0.00  0.00    -0.321 OA
HETATM    9  C   UNK N   1      27.377  25.774  -4.738  0.00  0.00     0.103 A 
HETATM   10  C   UNK N   1      27.059  24.870  -3.499  0.00  0.00     0.083 A 
HETATM   11  C   UNK N   1      26.605  25.262  -5.976  0.00  0.00     0.311 C 
HETATM   12  N   UNK N   1      25.905  26.359  -6.667  0.00  0.00     0.091 N 
HETATM   13  C   UNK N   1      24.872  26.896  -5.763  0.00  0.00     0.273 C 
HETATM   14  C   UNK N   1      25.489  27.388  -4.431  0.00  0.00     0.038 C 
HETATM   15  C   UNK N   1      27.020  27.255  -4.494  0.00  0.00     0.026 C 
HETATM   16  C   UNK N   1      27.478  28.054  -5.724  0.00  0.00     0.038 C 
HETATM   17  C   UNK N   1      26.865  27.430  -6.998  0.00  0.00     0.273 C 
ENDROOT
TORSDOF 0
ENDMDL
MODEL 7
REMARK VINA RESULT:      -5.4     10.564     11.558
REMARK  0 active torsions:
REMARK  status: ('A' for Active; 'I' for Inactive)
ROOT
HETATM    1  C   UNK N   1      35.253  11.999  19.519  0.00  0.00     0.018 A 
HETATM    2  C   UNK N   1      35.444  11.038  18.512  0.00  0.00     0.013 A 
HETATM    3  C   UNK N   1      35.548  11.485  17.199  0.00  0.00    -0.004 A 
HETATM    4  C   UNK N   1      35.461  12.798  16.906  0.00  0.00     0.149 A 
HETATM    5  N   UNK N   1      35.274  13.744  17.863  0.00  0.00    -0.346 N 
ATOM      6  HN  UNK N   1      35.213  14.730  17.607  1.00  0.00     0.167 HD
HETATM    7  C   UNK N   1      35.170  13.363  19.169  0.00  0.00     0.090 A 
HETATM    8  O   UNK N   1      35.611  13.043  15.612  0.00  0.00    -0.321 OA
HETATM    9  C   UNK N   1      35.874  11.870  14.909  0.00  0.00     0.103 A 
HETATM   10  C   UNK N   1      35.767  10.709  15.955  0.00  0.00     0.083 A 
HETATM   11  C   UNK N   1      37.314  11.947  14.352  0.00  0.00     0.311 C 
HETATM   12  N   UNK N   1      37.320  12.022  12.880  0.00  0.00     0.091 N 
HETATM   13  C   UNK N   1      36.767  10.763  12.347  0.00  0.00     0.273 C 
HETATM   14  C   UNK N   1      35.337  10.505  12.881  0.00  0.00     0.038 C 
HETATM   15  C   UNK N   1      34.884  11.700  13.737  0.00  0.00     0.026 C 
HETATM   16  C   UNK N   1      35.000  12.946  12.845  0.00  0.00     0.038 C 
HETATM   17  C   UNK N   1      36.476  13.149  12.436  0.00  0.00     0.273 C 
ENDROOT
TORSDOF 0
ENDMDL
MODEL 8
REMARK VINA RESULT:      -5.4      8.261      9.720
REMARK  0 active torsions:
REMARK  status: ('A' for Active; 'I' for Inactive)
ROOT
HETATM    1  C   UNK N   1      35.252  14.808   9.053  0.00  0.00     0.018 A 
HETATM    2  C   UNK N   1      35.901  13.709   9.639  0.00  0.00     0.013 A 
HETATM    3  C   UNK N   1      35.744  13.514  11.007  0.00  0.00    -0.004 A 
HETATM    4  C   UNK N   1      34.998  14.361  11.745  0.00  0.00     0.149 A 
HETATM    5  N   UNK N   1      34.364  15.432  11.201  0.00  0.00    -0.346 N 
ATOM      6  HN  UNK N   1      33.807  16.053  11.788  1.00  0.00     0.167 HD
HETATM    7  C   UNK N   1      34.479  15.668   9.861  0.00  0.00     0.090 A 
HETATM    8  O   UNK N   1      34.937  14.006  13.021  0.00  0.00    -0.321 OA
HETATM    9  C   UNK N   1      35.621  12.815  13.242  0.00  0.00     0.103 A 
HETATM   10  C   UNK N   1      36.290  12.443  11.875  0.00  0.00     0.083 A 
HETATM   11  C   UNK N   1      34.597  11.728  13.640  0.00  0.00     0.311 C 
HETATM   12  N   UNK N   1      34.781  11.298  15.037  0.00  0.00     0.091 N 
HETATM   13  C   UNK N   1      36.098  10.646  15.154  0.00  0.00     0.273 C 
HETATM   14  C   UNK N   1      37.238  11.596  14.713  0.00  0.00     0.038 C 
HETATM   15  C   UNK N   1      36.655  12.979  14.377  0.00  0.00     0.026 C 
HETATM   16  C   UNK N   1      35.899  13.451  15.629  0.00  0.00     0.038 C 
HETATM   17  C   UNK N   1      34.741  12.473  15.928  0.00  0.00     0.273 C 
ENDROOT
TORSDOF 0
ENDMDL
MODEL 9
REMARK VINA RESULT:      -5.4     15.913     17.697
REMARK  0 active torsions:
REMARK  status: ('A' for Active; 'I' for Inactive)
ROOT
HETATM    1  C   UNK N   1      29.953  29.974  -8.799  0.00  0.00     0.018 A 
HETATM    2  C   UNK N   1      29.432  30.172  -7.509  0.00  0.00     0.013 A 
HETATM    3  C   UNK N   1      28.599  29.188  -6.987  0.00  0.00    -0.004 A 
HETATM    4  C   UNK N   1      28.298  28.085  -7.701  0.00  0.00     0.149 A 
HETATM    5  N   UNK N   1      28.788  27.874  -8.951  0.00  0.00    -0.346 N 
ATOM      6  HN  UNK N   1      28.540  27.029  -9.465  1.00  0.00     0.167 HD
HETATM    7  C   UNK N   1      29.614  28.805  -9.511  0.00  0.00     0.090 A 
HETATM    8  O   UNK N   1      27.516  27.245  -7.038  0.00  0.00    -0.321 OA
HETATM    9  C   UNK N   1      27.262  27.710  -5.751  0.00  0.00     0.103 A 
HETATM   10  C   UNK N   1      27.931  29.124  -5.664  0.00  0.00     0.083 A 
HETATM   11  C   UNK N   1      27.930  26.748  -4.742  0.00  0.00     0.311 C 
HETATM   12  N   UNK N   1      26.927  26.024  -3.942  0.00  0.00     0.091 N 
HETATM   13  C   UNK N   1      26.195  27.001  -3.115  0.00  0.00     0.273 C 
HETATM   14  C   UNK N   1      25.524  28.088  -3.990  0.00  0.00     0.038 C 
HETATM   15  C   UNK N   1      25.743  27.760  -5.476  0.00  0.00     0.026 C 
HETATM   16  C   UNK N   1      25.184  26.347  -5.700  0.00  0.00     0.038 C 
HETATM   17  C   UNK N   1      25.976  25.339  -4.839  0.00  0.00     0.273 C 
ENDROOT
TORSDOF 0
ENDMDL
