MODEL 1
REMARK VINA RESULT:      -6.5      0.000      0.000
REMARK  8 active torsions:
REMARK  status: ('A' for Active; 'I' for Inactive)
REMARK    1  A    between atoms: N_2  and  C_4 
REMARK    2  A    between atoms: C_4  and  C_5 
REMARK    3  A    between atoms: C_5  and  O_6 
REMARK    4  A    between atoms: O_6  and  N_7 
REMARK    5  A    between atoms: C_9  and  C_10 
REMARK    6  A    between atoms: C_9  and  C_19 
REMARK    7  A    between atoms: C_11  and  C_12 
REMARK    8  A    between atoms: C_15  and  O_18 
ROOT
HETATM    1  N   UNK N   1      36.233  15.031  12.764  0.00  0.00    -0.266 N 
ATOM      2  HN  UNK N   1      36.211  15.709  13.527  1.00  0.00     0.194 HD
HETATM    3  C   UNK N   1      36.316  13.770  13.061  0.00  0.00     0.067 C 
ENDROOT
BRANCH   3   4
HETATM    4  C   UNK N   1      36.340  13.490  14.517  0.00  0.00     0.033 C 
HETATM    5  C   UNK N   1      35.315  13.009  15.213  0.00  0.00     0.014 C 
BRANCH   5   6
HETATM    6  C   UNK N   1      35.406  12.628  16.627  0.00  0.00    -0.036 A 
HETATM    7  C   UNK N   1      35.155  13.606  17.594  0.00  0.00     0.014 A 
HETATM    8  C   UNK N   1      35.152  13.274  18.949  0.00  0.00     0.037 A 
HETATM    9  C   UNK N   1      35.402  11.958  19.345  0.00  0.00     0.065 A 
HETATM   10  C   UNK N   1      35.665  10.975  18.385  0.00  0.00     0.037 A 
HETATM   11  C   UNK N   1      35.662  11.306  17.026  0.00  0.00     0.014 A 
BRANCH   9  12
HETATM   12  O   UNK N   1      35.384  11.636  20.648  0.00  0.00    -0.361 OA
HETATM   13  H   UNK N   1      34.656  11.171  21.011  0.00  0.00     0.217 HD
ENDBRANCH   9  12
ENDBRANCH   5   6
ENDBRANCH   3   4
BRANCH   3  14
HETATM   14  C   UNK N   1      36.340  12.691  11.959  0.00  0.00     0.031 A 
HETATM   15  C   UNK N   1      35.161  11.962  11.703  0.00  0.00     0.017 A 
HETATM   16  C   UNK N   1      35.085  10.975  10.725  0.00  0.00     0.001 A 
HETATM   17  C   UNK N   1      36.202  10.675   9.960  0.00  0.00     0.003 A 
HETATM   18  C   UNK N   1      37.385  11.375  10.167  0.00  0.00     0.043 A 
HETATM   19  C   UNK N   1      37.472  12.375  11.143  0.00  0.00     0.129 A 
HETATM   20  F   UNK N   1      38.652  13.016  11.227  0.00  0.00    -0.205 F 
ENDBRANCH   3  14
BRANCH   1  21
HETATM   21  O   UNK N   1      36.176  15.480  11.532  0.00  0.00    -0.278 OA
BRANCH  21  22
HETATM   22  C   UNK N   1      34.979  15.901  11.016  0.00  0.00     0.231 C 
BRANCH  22  23
HETATM   23  C   UNK N   1      35.212  17.045  10.041  0.00  0.00     0.299 C 
BRANCH  23  24
HETATM   24  N   UNK N   1      34.250  16.993   8.950  0.00  0.00     0.082 N 
HETATM   25  C   UNK N   1      34.399  18.224   8.196  0.00  0.00     0.309 C 
HETATM   26  C   UNK N   1      34.636  15.910   8.060  0.00  0.00     0.309 C 
ENDBRANCH  23  24
ENDBRANCH  22  23
ENDBRANCH  21  22
ENDBRANCH   1  21
TORSDOF 8
ENDMDL
MODEL 2
REMARK VINA RESULT:      -6.4      7.450     12.850
REMARK  8 active torsions:
REMARK  status: ('A' for Active; 'I' for Inactive)
REMARK    1  A    between atoms: N_2  and  C_4 
REMARK    2  A    between atoms: C_4  and  C_5 
REMARK    3  A    between atoms: C_5  and  O_6 
REMARK    4  A    between atoms: O_6  and  N_7 
REMARK    5  A    between atoms: C_9  and  C_10 
REMARK    6  A    between atoms: C_9  and  C_19 
REMARK    7  A    between atoms: C_11  and  C_12 
REMARK    8  A    between atoms: C_15  and  O_18 
ROOT
HETATM    1  N   UNK N   1      29.682  17.252   7.168  0.00  0.00    -0.266 N 
ATOM      2  HN  UNK N   1      28.858  17.601   7.661  1.00  0.00     0.194 HD
HETATM    3  C   UNK N   1      29.642  17.182   5.873  0.00  0.00     0.067 C 
ENDROOT
BRANCH   3   4
HETATM    4  C   UNK N   1      28.369  17.659   5.278  0.00  0.00     0.033 C 
HETATM    5  C   UNK N   1      28.079  18.932   5.030  0.00  0.00     0.014 C 
BRANCH   5   6
HETATM    6  C   UNK N   1      26.863  19.363   4.331  0.00  0.00    -0.036 A 
HETATM    7  C   UNK N   1      25.641  18.814   4.729  0.00  0.00     0.014 A 
HETATM    8  C   UNK N   1      24.449  19.250   4.147  0.00  0.00     0.037 A 
HETATM    9  C   UNK N   1      24.476  20.240   3.162  0.00  0.00     0.065 A 
HETATM   10  C   UNK N   1      25.695  20.787   2.750  0.00  0.00     0.037 A 
HETATM   11  C   UNK N   1      26.890  20.354   3.337  0.00  0.00     0.014 A 
BRANCH   9  12
HETATM   12  O   UNK N   1      23.328  20.669   2.614  0.00  0.00    -0.361 OA
HETATM   13  H   UNK N   1      22.564  20.128   2.631  0.00  0.00     0.217 HD
ENDBRANCH   9  12
ENDBRANCH   5   6
ENDBRANCH   3   4
BRANCH   3  14
HETATM   14  C   UNK N   1      30.854  16.679   5.063  0.00  0.00     0.031 A 
HETATM   15  C   UNK N   1      31.654  17.624   4.390  0.00  0.00     0.017 A 
HETATM   16  C   UNK N   1      32.772  17.266   3.641  0.00  0.00     0.001 A 
HETATM   17  C   UNK N   1      33.131  15.931   3.534  0.00  0.00     0.003 A 
HETATM   18  C   UNK N   1      32.379  14.963   4.190  0.00  0.00     0.043 A 
HETATM   19  C   UNK N   1      31.258  15.311   4.952  0.00  0.00     0.129 A 
HETATM   20  F   UNK N   1      30.632  14.297   5.577  0.00  0.00    -0.205 F 
ENDBRANCH   3  14
BRANCH   1  21
HETATM   21  O   UNK N   1      30.727  16.899   7.877  0.00  0.00    -0.278 OA
BRANCH  21  22
HETATM   22  C   UNK N   1      31.417  17.845   8.590  0.00  0.00     0.231 C 
BRANCH  22  23
HETATM   23  C   UNK N   1      32.830  17.975   8.042  0.00  0.00     0.299 C 
BRANCH  23  24
HETATM   24  N   UNK N   1      33.580  16.747   8.260  0.00  0.00     0.082 N 
HETATM   25  C   UNK N   1      34.337  16.493   7.049  0.00  0.00     0.309 C 
HETATM   26  C   UNK N   1      34.550  16.991   9.316  0.00  0.00     0.309 C 
ENDBRANCH  23  24
ENDBRANCH  22  23
ENDBRANCH  21  22
ENDBRANCH   1  21
TORSDOF 8
ENDMDL
MODEL 3
REMARK VINA RESULT:      -6.4      7.337     11.174
REMARK  8 active torsions:
REMARK  status: ('A' for Active; 'I' for Inactive)
REMARK    1  A    between atoms: N_2  and  C_4 
REMARK    2  A    between atoms: C_4  and  C_5 
REMARK    3  A    between atoms: C_5  and  O_6 
REMARK    4  A    between atoms: O_6  and  N_7 
REMARK    5  A    between atoms: C_9  and  C_10 
REMARK    6  A    between atoms: C_9  and  C_19 
REMARK    7  A    between atoms: C_11  and  C_12 
REMARK    8  A    between atoms: C_15  and  O_18 
ROOT
HETATM    1  N   UNK N   1      28.424  16.138   6.061  0.00  0.00    -0.266 N 
ATOM      2  HN  UNK N   1      28.902  15.281   6.344  1.00  0.00     0.194 HD
HETATM    3  C   UNK N   1      28.889  17.273   6.488  0.00  0.00     0.067 C 
ENDROOT
BRANCH   3   4
HETATM    4  C   UNK N   1      30.103  17.153   7.332  0.00  0.00     0.033 C 
HETATM    5  C   UNK N   1      31.334  16.961   6.867  0.00  0.00     0.014 C 
BRANCH   5   6
HETATM    6  C   UNK N   1      32.529  16.967   7.718  0.00  0.00    -0.036 A 
HETATM    7  C   UNK N   1      33.407  18.051   7.617  0.00  0.00     0.014 A 
HETATM    8  C   UNK N   1      34.516  18.140   8.460  0.00  0.00     0.037 A 
HETATM    9  C   UNK N   1      34.752  17.143   9.409  0.00  0.00     0.065 A 
HETATM   10  C   UNK N   1      33.885  16.051   9.509  0.00  0.00     0.037 A 
HETATM   11  C   UNK N   1      32.770  15.963   8.668  0.00  0.00     0.014 A 
BRANCH   9  12
HETATM   12  O   UNK N   1      35.811  17.238  10.229  0.00  0.00    -0.361 OA
HETATM   13  H   UNK N   1      36.013  16.543  10.823  0.00  0.00     0.217 HD
ENDBRANCH   9  12
ENDBRANCH   5   6
ENDBRANCH   3   4
BRANCH   3  14
HETATM   14  C   UNK N   1      28.227  18.607   6.089  0.00  0.00     0.031 A 
HETATM   15  C   UNK N   1      28.127  18.928   4.720  0.00  0.00     0.017 A 
HETATM   16  C   UNK N   1      27.539  20.104   4.265  0.00  0.00     0.001 A 
HETATM   17  C   UNK N   1      27.028  21.017   5.175  0.00  0.00     0.003 A 
HETATM   18  C   UNK N   1      27.093  20.740   6.535  0.00  0.00     0.043 A 
HETATM   19  C   UNK N   1      27.674  19.557   7.006  0.00  0.00     0.129 A 
HETATM   20  F   UNK N   1      27.644  19.373   8.338  0.00  0.00    -0.205 F 
ENDBRANCH   3  14
BRANCH   1  21
HETATM   21  O   UNK N   1      27.373  16.037   5.284  0.00  0.00    -0.278 OA
BRANCH  21  22
HETATM   22  C   UNK N   1      27.354  15.103   4.282  0.00  0.00     0.231 C 
BRANCH  22  23
HETATM   23  C   UNK N   1      27.624  15.775   2.945  0.00  0.00     0.299 C 
BRANCH  23  24
HETATM   24  N   UNK N   1      28.878  15.303   2.377  0.00  0.00     0.082 N 
HETATM   25  C   UNK N   1      29.905  16.248   2.775  0.00  0.00     0.309 C 
HETATM   26  C   UNK N   1      29.210  14.036   3.007  0.00  0.00     0.309 C 
ENDBRANCH  23  24
ENDBRANCH  22  23
ENDBRANCH  21  22
ENDBRANCH   1  21
TORSDOF 8
ENDMDL
MODEL 4
REMARK VINA RESULT:      -6.4      3.191      8.021
REMARK  8 active torsions:
REMARK  status: ('A' for Active; 'I' for Inactive)
REMARK    1  A    between atoms: N_2  and  C_4 
REMARK    2  A    between atoms: C_4  and  C_5 
REMARK    3  A    between atoms: C_5  and  O_6 
REMARK    4  A    between atoms: O_6  and  N_7 
REMARK    5  A    between atoms: C_9  and  C_10 
REMARK    6  A    between atoms: C_9  and  C_19 
REMARK    7  A    between atoms: C_11  and  C_12 
REMARK    8  A    between atoms: C_15  and  O_18 
ROOT
HETATM    1  N   UNK N   1      37.276  12.467  13.614  0.00  0.00    -0.266 N 
ATOM      2  HN  UNK N   1      37.397  12.243  12.625  1.00  0.00     0.194 HD
HETATM    3  C   UNK N   1      36.363  13.329  13.943  0.00  0.00     0.067 C 
ENDROOT
BRANCH   3   4
HETATM    4  C   UNK N   1      35.588  13.861  12.795  0.00  0.00     0.033 C 
HETATM    5  C   UNK N   1      35.757  15.066  12.260  0.00  0.00     0.014 C 
BRANCH   5   6
HETATM    6  C   UNK N   1      35.061  15.519  11.051  0.00  0.00    -0.036 A 
HETATM    7  C   UNK N   1      33.996  14.749  10.573  0.00  0.00     0.014 A 
HETATM    8  C   UNK N   1      33.253  15.179   9.473  0.00  0.00     0.037 A 
HETATM    9  C   UNK N   1      33.573  16.384   8.844  0.00  0.00     0.065 A 
HETATM   10  C   UNK N   1      34.643  17.155   9.308  0.00  0.00     0.037 A 
HETATM   11  C   UNK N   1      35.385  16.727  10.414  0.00  0.00     0.014 A 
BRANCH   9  12
HETATM   12  O   UNK N   1      32.848  16.804   7.795  0.00  0.00    -0.361 OA
HETATM   13  H   UNK N   1      33.266  17.019   6.986  0.00  0.00     0.217 HD
ENDBRANCH   9  12
ENDBRANCH   5   6
ENDBRANCH   3   4
BRANCH   3  14
HETATM   14  C   UNK N   1      36.115  13.705  15.418  0.00  0.00     0.031 A 
HETATM   15  C   UNK N   1      35.191  12.942  16.162  0.00  0.00     0.017 A 
HETATM   16  C   UNK N   1      34.908  13.201  17.500  0.00  0.00     0.001 A 
HETATM   17  C   UNK N   1      35.544  14.249  18.149  0.00  0.00     0.003 A 
HETATM   18  C   UNK N   1      36.472  15.021  17.461  0.00  0.00     0.043 A 
HETATM   19  C   UNK N   1      36.771  14.766  16.118  0.00  0.00     0.129 A 
HETATM   20  F   UNK N   1      37.715  15.550  15.565  0.00  0.00    -0.205 F 
ENDBRANCH   3  14
BRANCH   1  21
HETATM   21  O   UNK N   1      38.050  11.867  14.487  0.00  0.00    -0.278 OA
BRANCH  21  22
HETATM   22  C   UNK N   1      38.133  10.499  14.496  0.00  0.00     0.231 C 
BRANCH  22  23
HETATM   23  C   UNK N   1      37.206   9.934  15.561  0.00  0.00     0.299 C 
BRANCH  23  24
HETATM   24  N   UNK N   1      36.316   8.935  14.988  0.00  0.00     0.082 N 
HETATM   25  C   UNK N   1      35.820   8.130  16.089  0.00  0.00     0.309 C 
HETATM   26  C   UNK N   1      35.166   9.625  14.425  0.00  0.00     0.309 C 
ENDBRANCH  23  24
ENDBRANCH  22  23
ENDBRANCH  21  22
ENDBRANCH   1  21
TORSDOF 8
ENDMDL
MODEL 5
REMARK VINA RESULT:      -6.2      7.351     12.524
REMARK  8 active torsions:
REMARK  status: ('A' for Active; 'I' for Inactive)
REMARK    1  A    between atoms: N_2  and  C_4 
REMARK    2  A    between atoms: C_4  and  C_5 
REMARK    3  A    between atoms: C_5  and  O_6 
REMARK    4  A    between atoms: O_6  and  N_7 
REMARK    5  A    between atoms: C_9  and  C_10 
REMARK    6  A    between atoms: C_9  and  C_19 
REMARK    7  A    between atoms: C_11  and  C_12 
REMARK    8  A    between atoms: C_15  and  O_18 
ROOT
HETATM    1  N   UNK N   1      30.123  14.956   5.458  0.00  0.00    -0.266 N 
ATOM      2  HN  UNK N   1      29.358  14.571   4.903  1.00  0.00     0.194 HD
HETATM    3  C   UNK N   1      30.242  16.247   5.532  0.00  0.00     0.067 C 
ENDROOT
BRANCH   3   4
HETATM    4  C   UNK N   1      29.196  16.996   4.795  0.00  0.00     0.033 C 
HETATM    5  C   UNK N   1      28.217  17.691   5.365  0.00  0.00     0.014 C 
BRANCH   5   6
HETATM    6  C   UNK N   1      27.269  18.521   4.613  0.00  0.00    -0.036 A 
HETATM    7  C   UNK N   1      27.678  19.797   4.215  0.00  0.00     0.014 A 
HETATM    8  C   UNK N   1      26.841  20.592   3.431  0.00  0.00     0.037 A 
HETATM    9  C   UNK N   1      25.588  20.113   3.041  0.00  0.00     0.065 A 
HETATM   10  C   UNK N   1      25.167  18.842   3.443  0.00  0.00     0.037 A 
HETATM   11  C   UNK N   1      26.008  18.042   4.225  0.00  0.00     0.014 A 
BRANCH   9  12
HETATM   12  O   UNK N   1      24.791  20.873   2.273  0.00  0.00    -0.361 OA
HETATM   13  H   UNK N   1      24.090  20.485   1.788  0.00  0.00     0.217 HD
ENDBRANCH   9  12
ENDBRANCH   5   6
ENDBRANCH   3   4
BRANCH   3  14
HETATM   14  C   UNK N   1      31.366  16.898   6.364  0.00  0.00     0.031 A 
HETATM   15  C   UNK N   1      32.598  17.172   5.734  0.00  0.00     0.017 A 
HETATM   16  C   UNK N   1      33.666  17.765   6.401  0.00  0.00     0.001 A 
HETATM   17  C   UNK N   1      33.541  18.105   7.740  0.00  0.00     0.003 A 
HETATM   18  C   UNK N   1      32.342  17.866   8.400  0.00  0.00     0.043 A 
HETATM   19  C   UNK N   1      31.257  17.278   7.739  0.00  0.00     0.129 A 
HETATM   20  F   UNK N   1      30.132  17.132   8.463  0.00  0.00    -0.205 F 
ENDBRANCH   3  14
BRANCH   1  21
HETATM   21  O   UNK N   1      30.937  14.122   6.060  0.00  0.00    -0.278 OA
BRANCH  21  22
HETATM   22  C   UNK N   1      31.927  13.500   5.345  0.00  0.00     0.231 C 
BRANCH  22  23
HETATM   23  C   UNK N   1      32.999  12.981   6.291  0.00  0.00     0.299 C 
BRANCH  23  24
HETATM   24  N   UNK N   1      33.304  13.972   7.313  0.00  0.00     0.082 N 
HETATM   25  C   UNK N   1      33.160  13.312   8.598  0.00  0.00     0.309 C 
HETATM   26  C   UNK N   1      34.706  14.335   7.186  0.00  0.00     0.309 C 
ENDBRANCH  23  24
ENDBRANCH  22  23
ENDBRANCH  21  22
ENDBRANCH   1  21
TORSDOF 8
ENDMDL
MODEL 6
REMARK VINA RESULT:      -6.2      7.402     11.542
REMARK  8 active torsions:
REMARK  status: ('A' for Active; 'I' for Inactive)
REMARK    1  A    between atoms: N_2  and  C_4 
REMARK    2  A    between atoms: C_4  and  C_5 
REMARK    3  A    between atoms: C_5  and  O_6 
REMARK    4  A    between atoms: O_6  and  N_7 
REMARK    5  A    between atoms: C_9  and  C_10 
REMARK    6  A    between atoms: C_9  and  C_19 
REMARK    7  A    between atoms: C_11  and  C_12 
REMARK    8  A    between atoms: C_15  and  O_18 
ROOT
HETATM    1  N   UNK N   1      28.081  16.274   6.453  0.00  0.00    -0.266 N 
ATOM      2  HN  UNK N   1      28.521  15.445   6.855  1.00  0.00     0.194 HD
HETATM    3  C   UNK N   1      28.634  17.429   6.666  0.00  0.00     0.067 C 
ENDROOT
BRANCH   3   4
HETATM    4  C   UNK N   1      29.880  17.368   7.468  0.00  0.00     0.033 C 
HETATM    5  C   UNK N   1      31.000  16.764   7.083  0.00  0.00     0.014 C 
BRANCH   5   6
HETATM    6  C   UNK N   1      32.253  16.824   7.844  0.00  0.00    -0.036 A 
HETATM    7  C   UNK N   1      33.076  17.941   7.676  0.00  0.00     0.014 A 
HETATM    8  C   UNK N   1      34.239  18.080   8.436  0.00  0.00     0.037 A 
HETATM    9  C   UNK N   1      34.584  17.099   9.368  0.00  0.00     0.065 A 
HETATM   10  C   UNK N   1      33.772  15.973   9.534  0.00  0.00     0.037 A 
HETATM   11  C   UNK N   1      32.603  15.835   8.777  0.00  0.00     0.014 A 
BRANCH   9  12
HETATM   12  O   UNK N   1      35.695  17.242  10.108  0.00  0.00    -0.361 OA
HETATM   13  H   UNK N   1      36.204  16.493  10.346  0.00  0.00     0.217 HD
ENDBRANCH   9  12
ENDBRANCH   5   6
ENDBRANCH   3   4
BRANCH   3  14
HETATM   14  C   UNK N   1      28.032  18.722   6.078  0.00  0.00     0.031 A 
HETATM   15  C   UNK N   1      27.664  19.757   6.961  0.00  0.00     0.017 A 
HETATM   16  C   UNK N   1      27.121  20.961   6.523  0.00  0.00     0.001 A 
HETATM   17  C   UNK N   1      26.919  21.174   5.168  0.00  0.00     0.003 A 
HETATM   18  C   UNK N   1      27.277  20.188   4.257  0.00  0.00     0.043 A 
HETATM   19  C   UNK N   1      27.832  18.976   4.684  0.00  0.00     0.129 A 
HETATM   20  F   UNK N   1      28.180  18.111   3.713  0.00  0.00    -0.205 F 
ENDBRANCH   3  14
BRANCH   1  21
HETATM   21  O   UNK N   1      26.987  16.117   5.748  0.00  0.00    -0.278 OA
BRANCH  21  22
HETATM   22  C   UNK N   1      25.850  15.645   6.350  0.00  0.00     0.231 C 
BRANCH  22  23
HETATM   23  C   UNK N   1      25.942  14.136   6.516  0.00  0.00     0.299 C 
BRANCH  23  24
HETATM   24  N   UNK N   1      24.715  13.607   7.091  0.00  0.00     0.082 N 
HETATM   25  C   UNK N   1      24.959  13.418   8.509  0.00  0.00     0.309 C 
HETATM   26  C   UNK N   1      23.686  14.628   6.978  0.00  0.00     0.309 C 
ENDBRANCH  23  24
ENDBRANCH  22  23
ENDBRANCH  21  22
ENDBRANCH   1  21
TORSDOF 8
ENDMDL
MODEL 7
REMARK VINA RESULT:      -6.1      5.893     10.779
REMARK  8 active torsions:
REMARK  status: ('A' for Active; 'I' for Inactive)
REMARK    1  A    between atoms: N_2  and  C_4 
REMARK    2  A    between atoms: C_4  and  C_5 
REMARK    3  A    between atoms: C_5  and  O_6 
REMARK    4  A    between atoms: O_6  and  N_7 
REMARK    5  A    between atoms: C_9  and  C_10 
REMARK    6  A    between atoms: C_9  and  C_19 
REMARK    7  A    between atoms: C_11  and  C_12 
REMARK    8  A    between atoms: C_15  and  O_18 
ROOT
HETATM    1  N   UNK N   1      34.828   9.874  21.734  0.00  0.00    -0.266 N 
ATOM      2  HN  UNK N   1      35.548  10.584  21.876  1.00  0.00     0.194 HD
HETATM    3  C   UNK N   1      34.346   9.716  20.539  0.00  0.00     0.067 C 
ENDROOT
BRANCH   3   4
HETATM    4  C   UNK N   1      34.954  10.603  19.517  0.00  0.00     0.033 C 
HETATM    5  C   UNK N   1      34.992  10.343  18.214  0.00  0.00     0.014 C 
BRANCH   5   6
HETATM    6  C   UNK N   1      35.491  11.293  17.214  0.00  0.00    -0.036 A 
HETATM    7  C   UNK N   1      35.169  12.645  17.367  0.00  0.00     0.014 A 
HETATM    8  C   UNK N   1      35.685  13.597  16.486  0.00  0.00     0.037 A 
HETATM    9  C   UNK N   1      36.527  13.199  15.445  0.00  0.00     0.065 A 
HETATM   10  C   UNK N   1      36.846  11.848  15.278  0.00  0.00     0.037 A 
HETATM   11  C   UNK N   1      36.333  10.894  16.164  0.00  0.00     0.014 A 
BRANCH   9  12
HETATM   12  O   UNK N   1      37.035  14.117  14.608  0.00  0.00    -0.361 OA
HETATM   13  H   UNK N   1      37.885  13.998  14.234  0.00  0.00     0.217 HD
ENDBRANCH   9  12
ENDBRANCH   5   6
ENDBRANCH   3   4
BRANCH   3  14
HETATM   14  C   UNK N   1      33.267   8.654  20.248  0.00  0.00     0.031 A 
HETATM   15  C   UNK N   1      31.913   8.995  20.449  0.00  0.00     0.017 A 
HETATM   16  C   UNK N   1      30.870   8.106  20.206  0.00  0.00     0.001 A 
HETATM   17  C   UNK N   1      31.147   6.825  19.752  0.00  0.00     0.003 A 
HETATM   18  C   UNK N   1      32.465   6.446  19.527  0.00  0.00     0.043 A 
HETATM   19  C   UNK N   1      33.523   7.333  19.759  0.00  0.00     0.129 A 
HETATM   20  F   UNK N   1      34.753   6.874  19.467  0.00  0.00    -0.205 F 
ENDBRANCH   3  14
BRANCH   1  21
HETATM   21  O   UNK N   1      34.436   9.169  22.768  0.00  0.00    -0.278 OA
BRANCH  21  22
HETATM   22  C   UNK N   1      34.147   9.797  23.951  0.00  0.00     0.231 C 
BRANCH  22  23
HETATM   23  C   UNK N   1      32.849  10.578  23.816  0.00  0.00     0.299 C 
BRANCH  23  24
HETATM   24  N   UNK N   1      32.178  10.684  25.103  0.00  0.00     0.082 N 
HETATM   25  C   UNK N   1      31.515   9.415  25.340  0.00  0.00     0.309 C 
HETATM   26  C   UNK N   1      33.195  10.822  26.133  0.00  0.00     0.309 C 
ENDBRANCH  23  24
ENDBRANCH  22  23
ENDBRANCH  21  22
ENDBRANCH   1  21
TORSDOF 8
ENDMDL
MODEL 8
REMARK VINA RESULT:      -6.1      1.545      2.179
REMARK  8 active torsions:
REMARK  status: ('A' for Active; 'I' for Inactive)
REMARK    1  A    between atoms: N_2  and  C_4 
REMARK    2  A    between atoms: C_4  and  C_5 
REMARK    3  A    between atoms: C_5  and  O_6 
REMARK    4  A    between atoms: O_6  and  N_7 
REMARK    5  A    between atoms: C_9  and  C_10 
REMARK    6  A    between atoms: C_9  and  C_19 
REMARK    7  A    between atoms: C_11  and  C_12 
REMARK    8  A    between atoms: C_15  and  O_18 
ROOT
HETATM    1  N   UNK N   1      36.287  15.166  11.963  0.00  0.00    -0.266 N 
ATOM      2  HN  UNK N   1      35.903  15.505  12.846  1.00  0.00     0.194 HD
HETATM    3  C   UNK N   1      36.642  13.920  11.883  0.00  0.00     0.067 C 
ENDROOT
BRANCH   3   4
HETATM    4  C   UNK N   1      36.405  13.141  13.122  0.00  0.00     0.033 C 
HETATM    5  C   UNK N   1      36.600  13.599  14.354  0.00  0.00     0.014 C 
BRANCH   5   6
HETATM    6  C   UNK N   1      36.243  12.847  15.563  0.00  0.00    -0.036 A 
HETATM    7  C   UNK N   1      35.546  13.513  16.575  0.00  0.00     0.014 A 
HETATM    8  C   UNK N   1      35.116  12.822  17.708  0.00  0.00     0.037 A 
HETATM    9  C   UNK N   1      35.382  11.456  17.834  0.00  0.00     0.065 A 
HETATM   10  C   UNK N   1      36.087  10.784  16.831  0.00  0.00     0.037 A 
HETATM   11  C   UNK N   1      36.514  11.476  15.692  0.00  0.00     0.014 A 
BRANCH   9  12
HETATM   12  O   UNK N   1      34.954  10.789  18.917  0.00  0.00    -0.361 OA
HETATM   13  H   UNK N   1      34.669  11.254  19.678  0.00  0.00     0.217 HD
ENDBRANCH   9  12
ENDBRANCH   5   6
ENDBRANCH   3   4
BRANCH   3  14
HETATM   14  C   UNK N   1      37.216  13.337  10.576  0.00  0.00     0.031 A 
HETATM   15  C   UNK N   1      38.611  13.155  10.474  0.00  0.00     0.017 A 
HETATM   16  C   UNK N   1      39.219  12.628   9.338  0.00  0.00     0.001 A 
HETATM   17  C   UNK N   1      38.444  12.264   8.247  0.00  0.00     0.003 A 
HETATM   18  C   UNK N   1      37.064  12.412   8.305  0.00  0.00     0.043 A 
HETATM   19  C   UNK N   1      36.439  12.933   9.444  0.00  0.00     0.129 A 
HETATM   20  F   UNK N   1      35.095  12.993   9.406  0.00  0.00    -0.205 F 
ENDBRANCH   3  14
BRANCH   1  21
HETATM   21  O   UNK N   1      36.395  16.012  10.966  0.00  0.00    -0.278 OA
BRANCH  21  22
HETATM   22  C   UNK N   1      35.356  16.857  10.673  0.00  0.00     0.231 C 
BRANCH  22  23
HETATM   23  C   UNK N   1      34.472  16.235   9.603  0.00  0.00     0.299 C 
BRANCH  23  24
HETATM   24  N   UNK N   1      34.878  16.684   8.279  0.00  0.00     0.082 N 
HETATM   25  C   UNK N   1      34.362  15.716   7.328  0.00  0.00     0.309 C 
HETATM   26  C   UNK N   1      34.203  17.942   8.002  0.00  0.00     0.309 C 
ENDBRANCH  23  24
ENDBRANCH  22  23
ENDBRANCH  21  22
ENDBRANCH   1  21
TORSDOF 8
ENDMDL
MODEL 9
REMARK VINA RESULT:      -6.0     12.540     14.631
REMARK  8 active torsions:
REMARK  status: ('A' for Active; 'I' for Inactive)
REMARK    1  A    between atoms: N_2  and  C_4 
REMARK    2  A    between atoms: C_4  and  C_5 
REMARK    3  A    between atoms: C_5  and  O_6 
REMARK    4  A    between atoms: O_6  and  N_7 
REMARK    5  A    between atoms: C_9  and  C_10 
REMARK    6  A    between atoms: C_9  and  C_19 
REMARK    7  A    between atoms: C_11  and  C_12 
REMARK    8  A    between atoms: C_15  and  O_18 
ROOT
HETATM    1  N   UNK N   1      23.287  17.554   5.606  0.00  0.00    -0.266 N 
ATOM      2  HN  UNK N   1      22.628  17.686   6.374  1.00  0.00     0.194 HD
HETATM    3  C   UNK N   1      23.870  16.400   5.486  0.00  0.00     0.067 C 
ENDROOT
BRANCH   3   4
HETATM    4  C   UNK N   1      23.458  15.403   6.504  0.00  0.00     0.033 C 
HETATM    5  C   UNK N   1      24.247  14.452   6.996  0.00  0.00     0.014 C 
BRANCH   5   6
HETATM    6  C   UNK N   1      23.850  13.557   8.088  0.00  0.00    -0.036 A 
HETATM    7  C   UNK N   1      24.813  13.205   9.038  0.00  0.00     0.014 A 
HETATM    8  C   UNK N   1      24.464  12.420  10.138  0.00  0.00     0.037 A 
HETATM    9  C   UNK N   1      23.146  11.983  10.293  0.00  0.00     0.065 A 
HETATM   10  C   UNK N   1      22.179  12.322   9.342  0.00  0.00     0.037 A 
HETATM   11  C   UNK N   1      22.527  13.114   8.242  0.00  0.00     0.014 A 
BRANCH   9  12
HETATM   12  O   UNK N   1      22.809  11.241  11.360  0.00  0.00    -0.361 OA
HETATM   13  H   UNK N   1      22.635  10.326  11.264  0.00  0.00     0.217 HD
ENDBRANCH   9  12
ENDBRANCH   5   6
ENDBRANCH   3   4
BRANCH   3  14
HETATM   14  C   UNK N   1      24.866  16.125   4.342  0.00  0.00     0.031 A 
HETATM   15  C   UNK N   1      24.415  15.409   3.213  0.00  0.00     0.017 A 
HETATM   16  C   UNK N   1      25.239  15.120   2.128  0.00  0.00     0.001 A 
HETATM   17  C   UNK N   1      26.561  15.537   2.136  0.00  0.00     0.003 A 
HETATM   18  C   UNK N   1      27.049  16.256   3.221  0.00  0.00     0.043 A 
HETATM   19  C   UNK N   1      26.229  16.560   4.314  0.00  0.00     0.129 A 
HETATM   20  F   UNK N   1      26.793  17.297   5.289  0.00  0.00    -0.205 F 
ENDBRANCH   3  14
BRANCH   1  21
HETATM   21  O   UNK N   1      23.501  18.558   4.790  0.00  0.00    -0.278 OA
BRANCH  21  22
HETATM   22  C   UNK N   1      22.604  18.825   3.789  0.00  0.00     0.231 C 
BRANCH  22  23
HETATM   23  C   UNK N   1      21.234  19.111   4.386  0.00  0.00     0.299 C 
BRANCH  23  24
HETATM   24  N   UNK N   1      20.460  19.971   3.504  0.00  0.00     0.082 N 
HETATM   25  C   UNK N   1      21.397  20.587   2.584  0.00  0.00     0.309 C 
HETATM   26  C   UNK N   1      19.585  19.127   2.705  0.00  0.00     0.309 C 
ENDBRANCH  23  24
ENDBRANCH  22  23
ENDBRANCH  21  22
ENDBRANCH   1  21
TORSDOF 8
ENDMDL
