MODEL 1
REMARK VINA RESULT:      -4.8      0.000      0.000
REMARK  1 active torsions:
REMARK  status: ('A' for Active; 'I' for Inactive)
REMARK    1  A    between atoms: C_2  and  N_10 
ROOT
HETATM    1  C   UNK N   1      36.198  14.877  12.510  0.00  0.00     0.136 A 
HETATM    2  C   UNK N   1      35.080  14.492  11.755  0.00  0.00     0.120 A 
HETATM    3  N   UNK N   1      34.510  13.277  12.005  0.00  0.00    -0.331 N 
ATOM      4  HN  UNK N   1      33.698  12.988  11.460  1.00  0.00     0.168 HD
HETATM    5  C   UNK N   1      34.997  12.448  12.961  0.00  0.00     0.120 A 
HETATM    6  C   UNK N   1      36.107  12.837  13.710  0.00  0.00     0.130 A 
HETATM    7  N   UNK N   1      36.686  14.045  13.469  0.00  0.00    -0.369 N 
ATOM      8  HN  UNK N   1      37.498  14.329  14.016  1.00  0.00     0.164 HD
HETATM    9 Cl   UNK N   1      34.228  10.901  13.243  0.00  0.00    -0.063 Cl
ENDROOT
BRANCH   2  10
HETATM   10  N   UNK N   1      34.536  15.331  10.738  0.00  0.00    -0.363 N 
HETATM   11  C   UNK N   1      35.140  16.633  10.469  0.00  0.00     0.143 C 
HETATM   12  C   UNK N   1      34.663  17.257   9.155  0.00  0.00     0.133 C 
HETATM   13  N   UNK N   1      33.224  17.101   9.005  0.00  0.00    -0.418 N 
HETATM   14  C   UNK N   1      32.986  15.680   8.820  0.00  0.00     0.133 C 
HETATM   15  H   UNK N   1      32.524  17.841   9.026  0.00  0.00     0.153 HD
HETATM   16  C   UNK N   1      33.282  14.930  10.112  0.00  0.00     0.143 C 
ENDBRANCH   2  10
TORSDOF 1
ENDMDL
MODEL 2
REMARK VINA RESULT:      -4.7      2.264      2.950
REMARK  1 active torsions:
REMARK  status: ('A' for Active; 'I' for Inactive)
REMARK    1  A    between atoms: C_2  and  N_10 
ROOT
HETATM    1  C   UNK N   1      35.480  12.915  13.158  0.00  0.00     0.136 A 
HETATM    2  C   UNK N   1      35.765  14.236  12.774  0.00  0.00     0.120 A 
HETATM    3  N   UNK N   1      36.405  15.050  13.662  0.00  0.00    -0.331 N 
ATOM      4  HN  UNK N   1      36.615  16.011  13.393  1.00  0.00     0.168 HD
HETATM    5  C   UNK N   1      36.770  14.611  14.892  0.00  0.00     0.120 A 
HETATM    6  C   UNK N   1      36.487  13.299  15.267  0.00  0.00     0.130 A 
HETATM    7  N   UNK N   1      35.847  12.477  14.392  0.00  0.00    -0.369 N 
ATOM      8  HN  UNK N   1      35.639  11.517  14.667  1.00  0.00     0.164 HD
HETATM    9 Cl   UNK N   1      37.590  15.697  15.994  0.00  0.00    -0.063 Cl
ENDROOT
BRANCH   2  10
HETATM   10  N   UNK N   1      35.398  14.740  11.492  0.00  0.00    -0.363 N 
HETATM   11  C   UNK N   1      34.881  13.830  10.473  0.00  0.00     0.143 C 
HETATM   12  C   UNK N   1      34.232  14.555   9.292  0.00  0.00     0.133 C 
HETATM   13  N   UNK N   1      35.043  15.691   8.879  0.00  0.00    -0.418 N 
HETATM   14  C   UNK N   1      34.971  16.657   9.961  0.00  0.00     0.133 C 
HETATM   15  H   UNK N   1      35.558  15.788   8.005  0.00  0.00     0.153 HD
HETATM   16  C   UNK N   1      35.713  16.128  11.181  0.00  0.00     0.143 C 
ENDBRANCH   2  10
TORSDOF 1
ENDMDL
MODEL 3
REMARK VINA RESULT:      -4.7      4.526      6.350
REMARK  1 active torsions:
REMARK  status: ('A' for Active; 'I' for Inactive)
REMARK    1  A    between atoms: C_2  and  N_10 
ROOT
HETATM    1  C   UNK N   1      32.486  17.280   6.550  0.00  0.00     0.136 A 
HETATM    2  C   UNK N   1      31.887  17.368   7.817  0.00  0.00     0.120 A 
HETATM    3  N   UNK N   1      32.670  17.209   8.922  0.00  0.00    -0.331 N 
ATOM      4  HN  UNK N   1      32.243  17.269   9.847  1.00  0.00     0.168 HD
HETATM    5  C   UNK N   1      34.001  16.974   8.821  0.00  0.00     0.120 A 
HETATM    6  C   UNK N   1      34.592  16.890   7.561  0.00  0.00     0.130 A 
HETATM    7  N   UNK N   1      33.822  17.044   6.450  0.00  0.00    -0.369 N 
ATOM      8  HN  UNK N   1      34.254  16.982   5.528  1.00  0.00     0.164 HD
HETATM    9 Cl   UNK N   1      34.962  16.778  10.272  0.00  0.00    -0.063 Cl
ENDROOT
BRANCH   2  10
HETATM   10  N   UNK N   1      30.490  17.611   7.970  0.00  0.00    -0.363 N 
HETATM   11  C   UNK N   1      29.571  17.291   6.880  0.00  0.00     0.143 C 
HETATM   12  C   UNK N   1      28.103  17.296   7.311  0.00  0.00     0.133 C 
HETATM   13  N   UNK N   1      27.820  18.444   8.159  0.00  0.00    -0.418 N 
HETATM   14  C   UNK N   1      28.544  18.221   9.399  0.00  0.00     0.133 C 
HETATM   15  H   UNK N   1      27.232  19.244   7.929  0.00  0.00     0.153 HD
HETATM   16  C   UNK N   1      30.043  18.334   9.154  0.00  0.00     0.143 C 
ENDBRANCH   2  10
TORSDOF 1
ENDMDL
MODEL 4
REMARK VINA RESULT:      -4.7      2.025      4.981
REMARK  1 active torsions:
REMARK  status: ('A' for Active; 'I' for Inactive)
REMARK    1  A    between atoms: C_2  and  N_10 
ROOT
HETATM    1  C   UNK N   1      35.612  16.137  11.461  0.00  0.00     0.136 A 
HETATM    2  C   UNK N   1      35.297  14.784  11.657  0.00  0.00     0.120 A 
HETATM    3  N   UNK N   1      34.333  14.217  10.876  0.00  0.00    -0.331 N 
ATOM      4  HN  UNK N   1      34.096  13.234  11.013  1.00  0.00     0.168 HD
HETATM    5  C   UNK N   1      33.683  14.929   9.923  0.00  0.00     0.120 A 
HETATM    6  C   UNK N   1      34.001  16.273   9.730  0.00  0.00     0.130 A 
HETATM    7  N   UNK N   1      34.959  16.850  10.504  0.00  0.00    -0.369 N 
ATOM      8  HN  UNK N   1      35.192  17.834  10.363  1.00  0.00     0.164 HD
HETATM    9 Cl   UNK N   1      32.453  14.155   8.947  0.00  0.00    -0.063 Cl
ENDROOT
BRANCH   2  10
HETATM   10  N   UNK N   1      35.954  13.997  12.650  0.00  0.00    -0.363 N 
HETATM   11  C   UNK N   1      36.359  14.609  13.913  0.00  0.00     0.143 C 
HETATM   12  C   UNK N   1      36.740  13.584  14.983  0.00  0.00     0.133 C 
HETATM   13  N   UNK N   1      37.564  12.529  14.412  0.00  0.00    -0.418 N 
HETATM   14  C   UNK N   1      36.704  11.784  13.510  0.00  0.00     0.133 C 
HETATM   15  H   UNK N   1      38.548  12.349  14.607  0.00  0.00     0.153 HD
HETATM   16  C   UNK N   1      36.354  12.640  12.300  0.00  0.00     0.143 C 
ENDBRANCH   2  10
TORSDOF 1
ENDMDL
MODEL 5
REMARK VINA RESULT:      -4.6      3.104      5.663
REMARK  1 active torsions:
REMARK  status: ('A' for Active; 'I' for Inactive)
REMARK    1  A    between atoms: C_2  and  N_10 
ROOT
HETATM    1  C   UNK N   1      34.685  16.327   7.493  0.00  0.00     0.136 A 
HETATM    2  C   UNK N   1      34.310  16.282   8.845  0.00  0.00     0.120 A 
HETATM    3  N   UNK N   1      33.160  16.910   9.226  0.00  0.00    -0.331 N 
ATOM      4  HN  UNK N   1      32.881  16.884  10.206  1.00  0.00     0.168 HD
HETATM    5  C   UNK N   1      32.381  17.567   8.331  0.00  0.00     0.120 A 
HETATM    6  C   UNK N   1      32.757  17.608   6.989  0.00  0.00     0.130 A 
HETATM    7  N   UNK N   1      33.902  16.987   6.597  0.00  0.00    -0.369 N 
ATOM      8  HN  UNK N   1      34.177  17.018   5.615  1.00  0.00     0.164 HD
HETATM    9 Cl   UNK N   1      30.915  18.357   8.872  0.00  0.00    -0.063 Cl
ENDROOT
BRANCH   2  10
HETATM   10  N   UNK N   1      35.100  15.604   9.820  0.00  0.00    -0.363 N 
HETATM   11  C   UNK N   1      35.362  16.236  11.111  0.00  0.00     0.143 C 
HETATM   12  C   UNK N   1      35.929  15.267  12.150  0.00  0.00     0.133 C 
HETATM   13  N   UNK N   1      36.953  14.419  11.558  0.00  0.00    -0.418 N 
HETATM   14  C   UNK N   1      36.268  13.553  10.614  0.00  0.00     0.133 C 
HETATM   15  H   UNK N   1      37.951  14.431  11.764  0.00  0.00     0.153 HD
HETATM   16  C   UNK N   1      35.766  14.368   9.430  0.00  0.00     0.143 C 
ENDBRANCH   2  10
TORSDOF 1
ENDMDL
MODEL 6
REMARK VINA RESULT:      -4.6     12.034     13.362
REMARK  1 active torsions:
REMARK  status: ('A' for Active; 'I' for Inactive)
REMARK    1  A    between atoms: C_2  and  N_10 
ROOT
HETATM    1  C   UNK N   1      20.562  13.354  10.192  0.00  0.00     0.136 A 
HETATM    2  C   UNK N   1      21.596  13.950   9.454  0.00  0.00     0.120 A 
HETATM    3  N   UNK N   1      22.879  13.547   9.684  0.00  0.00    -0.331 N 
ATOM      4  HN  UNK N   1      23.638  13.975   9.153  1.00  0.00     0.168 HD
HETATM    5  C   UNK N   1      23.169  12.590  10.600  0.00  0.00     0.120 A 
HETATM    6  C   UNK N   1      22.137  11.999  11.329  0.00  0.00     0.130 A 
HETATM    7  N   UNK N   1      20.854  12.394  11.111  0.00  0.00    -0.369 N 
ATOM      8  HN  UNK N   1      20.100  11.963  11.645  1.00  0.00     0.164 HD
HETATM    9 Cl   UNK N   1      24.832  12.108  10.857  0.00  0.00    -0.063 Cl
ENDROOT
BRANCH   2  10
HETATM   10  N   UNK N   1      21.338  14.962   8.482  0.00  0.00    -0.363 N 
HETATM   11  C   UNK N   1      22.180  15.059   7.292  0.00  0.00     0.143 C 
HETATM   12  C   UNK N   1      21.584  15.958   6.207  0.00  0.00     0.133 C 
HETATM   13  N   UNK N   1      21.042  17.176   6.790  0.00  0.00    -0.418 N 
HETATM   14  C   UNK N   1      19.889  16.773   7.576  0.00  0.00     0.133 C 
HETATM   15  H   UNK N   1      21.400  18.123   6.671  0.00  0.00     0.153 HD
HETATM   16  C   UNK N   1      20.342  15.978   8.794  0.00  0.00     0.143 C 
ENDBRANCH   2  10
TORSDOF 1
ENDMDL
MODEL 7
REMARK VINA RESULT:      -4.6      1.408      1.989
REMARK  1 active torsions:
REMARK  status: ('A' for Active; 'I' for Inactive)
REMARK    1  A    between atoms: C_2  and  N_10 
ROOT
HETATM    1  C   UNK N   1      36.394  14.124  13.669  0.00  0.00     0.136 A 
HETATM    2  C   UNK N   1      35.373  13.780  12.768  0.00  0.00     0.120 A 
HETATM    3  N   UNK N   1      34.561  12.727  13.072  0.00  0.00    -0.331 N 
ATOM      4  HN  UNK N   1      33.818  12.469  12.422  1.00  0.00     0.168 HD
HETATM    5  C   UNK N   1      34.718  12.017  14.216  0.00  0.00     0.120 A 
HETATM    6  C   UNK N   1      35.732  12.364  15.109  0.00  0.00     0.130 A 
HETATM    7  N   UNK N   1      36.550  13.410  14.816  0.00  0.00    -0.369 N 
ATOM      8  HN  UNK N   1      37.292  13.664  15.469  1.00  0.00     0.164 HD
HETATM    9 Cl   UNK N   1      33.648  10.674  14.559  0.00  0.00    -0.063 Cl
ENDROOT
BRANCH   2  10
HETATM   10  N   UNK N   1      35.173  14.498  11.551  0.00  0.00    -0.363 N 
HETATM   11  C   UNK N   1      34.605  13.817  10.390  0.00  0.00     0.143 C 
HETATM   12  C   UNK N   1      34.150  14.781   9.292  0.00  0.00     0.133 C 
HETATM   13  N   UNK N   1      35.141  15.826   9.084  0.00  0.00    -0.418 N 
HETATM   14  C   UNK N   1      35.131  16.642  10.285  0.00  0.00     0.133 C 
HETATM   15  H   UNK N   1      35.726  15.959   8.259  0.00  0.00     0.153 HD
HETATM   16  C   UNK N   1      35.703  15.852  11.455  0.00  0.00     0.143 C 
ENDBRANCH   2  10
TORSDOF 1
ENDMDL
MODEL 8
REMARK VINA RESULT:      -4.5     12.537     14.361
REMARK  1 active torsions:
REMARK  status: ('A' for Active; 'I' for Inactive)
REMARK    1  A    between atoms: C_2  and  N_10 
ROOT
HETATM    1  C   UNK N   1      22.042  15.218   7.138  0.00  0.00     0.136 A 
HETATM    2  C   UNK N   1      21.545  14.933   8.420  0.00  0.00     0.120 A 
HETATM    3  N   UNK N   1      20.620  15.775   8.964  0.00  0.00    -0.331 N 
ATOM      4  HN  UNK N   1      20.255  15.577   9.896  1.00  0.00     0.168 HD
HETATM    5  C   UNK N   1      20.175  16.868   8.296  0.00  0.00     0.120 A 
HETATM    6  C   UNK N   1      20.670  17.145   7.022  0.00  0.00     0.130 A 
HETATM    7  N   UNK N   1      21.594  16.314   6.469  0.00  0.00    -0.369 N 
ATOM      8  HN  UNK N   1      21.957  16.518   5.538  1.00  0.00     0.164 HD
HETATM    9 Cl   UNK N   1      18.986  17.916   9.040  0.00  0.00    -0.063 Cl
ENDROOT
BRANCH   2  10
HETATM   10  N   UNK N   1      21.987  13.796   9.160  0.00  0.00    -0.363 N 
HETATM   11  C   UNK N   1      23.338  13.279   8.962  0.00  0.00     0.143 C 
HETATM   12  C   UNK N   1      23.767  12.287  10.045  0.00  0.00     0.133 C 
HETATM   13  N   UNK N   1      22.691  11.355  10.342  0.00  0.00    -0.418 N 
HETATM   14  C   UNK N   1      21.644  12.132  10.981  0.00  0.00     0.133 C 
HETATM   15  H   UNK N   1      22.675  10.355  10.142  0.00  0.00     0.153 HD
HETATM   16  C   UNK N   1      21.010  13.080   9.970  0.00  0.00     0.143 C 
ENDBRANCH   2  10
TORSDOF 1
ENDMDL
MODEL 9
REMARK VINA RESULT:      -4.5     21.033     21.896
REMARK  1 active torsions:
REMARK  status: ('A' for Active; 'I' for Inactive)
REMARK    1  A    between atoms: C_2  and  N_10 
ROOT
HETATM    1  C   UNK N   1      27.476  24.416  -6.822  0.00  0.00     0.136 A 
HETATM    2  C   UNK N   1      26.362  24.537  -5.977  0.00  0.00     0.120 A 
HETATM    3  N   UNK N   1      25.422  23.548  -5.989  0.00  0.00    -0.331 N 
ATOM      4  HN  UNK N   1      24.608  23.629  -5.380  1.00  0.00     0.168 HD
HETATM    5  C   UNK N   1      25.545  22.462  -6.791  0.00  0.00     0.120 A 
HETATM    6  C   UNK N   1      26.655  22.346  -7.627  0.00  0.00     0.130 A 
HETATM    7  N   UNK N   1      27.598  23.326  -7.626  0.00  0.00    -0.369 N 
ATOM      8  HN  UNK N   1      28.410  23.241  -8.238  1.00  0.00     0.164 HD
HETATM    9 Cl   UNK N   1      24.311  21.221  -6.769  0.00  0.00    -0.063 Cl
ENDROOT
BRANCH   2  10
HETATM   10  N   UNK N   1      26.190  25.663  -5.118  0.00  0.00    -0.363 N 
HETATM   11  C   UNK N   1      26.868  25.701  -3.824  0.00  0.00     0.143 C 
HETATM   12  C   UNK N   1      26.854  27.089  -3.179  0.00  0.00     0.133 C 
HETATM   13  N   UNK N   1      25.541  27.702  -3.308  0.00  0.00    -0.418 N 
HETATM   14  C   UNK N   1      25.356  27.976  -4.722  0.00  0.00     0.133 C 
HETATM   15  H   UNK N   1      24.882  27.899  -2.555  0.00  0.00     0.153 HD
HETATM   16  C   UNK N   1      25.204  26.669  -5.490  0.00  0.00     0.143 C 
ENDBRANCH   2  10
TORSDOF 1
ENDMDL
