MODEL 1
REMARK VINA RESULT:      -8.7      0.000      0.000
REMARK  7 active torsions:
REMARK  status: ('A' for Active; 'I' for Inactive)
REMARK    1  A    between atoms: C_32  and  C_22 
REMARK    2  A    between atoms: C_34  and  C_23 
REMARK    3  A    between atoms: O_47  and  C_26 
REMARK    4  A    between atoms: O_43  and  C_34 
REMARK    5  A    between atoms: C_36  and  C_35 
REMARK       I    between atoms: N_42  and  C_35 
REMARK    6  A    between atoms: N_37  and  S_48 
REMARK    7  A    between atoms: S_48  and  N_39 
ROOT
HETATM    1  C   UNK N   1      31.544  17.542   8.590  0.00  0.00     0.017 A 
HETATM    2  C   UNK N   1      25.626  16.369   2.963  0.00  0.00     0.037 A 
HETATM    3  C   UNK N   1      30.414  18.062   7.894  0.00  0.00     0.015 A 
HETATM    4  C   UNK N   1      26.537  16.614   3.989  0.00  0.00     0.017 A 
HETATM    5  C   UNK N   1      31.393  15.490   7.316  0.00  0.00     0.046 A 
HETATM    6  C   UNK N   1      27.150  14.780   1.997  0.00  0.00     0.045 A 
HETATM    7  C   UNK N   1      30.399  15.433   2.813  0.00  0.00     0.032 A 
HETATM    8  C   UNK N   1      29.995  14.133   5.149  0.00  0.00     0.149 C 
HETATM    9  C   UNK N   1      32.035  16.236   8.303  0.00  0.00     0.018 A 
HETATM   10  C   UNK N   1      25.919  15.442   1.969  0.00  0.00     0.068 A 
HETATM   11  C   UNK N   1      27.763  15.941   4.070  0.00  0.00    -0.002 A 
HETATM   12  C   UNK N   1      29.815  17.266   6.903  0.00  0.00    -0.000 A 
HETATM   13  C   UNK N   1      28.088  15.002   3.014  0.00  0.00    -0.037 A 
HETATM   14  C   UNK N   1      29.422  14.284   2.816  0.00  0.00     0.040 A 
HETATM   15  C   UNK N   1      30.320  16.031   6.638  0.00  0.00     0.046 A 
HETATM   16  C   UNK N   1      28.725  17.447   6.030  0.00  0.00    -0.014 A 
HETATM   17  C   UNK N   1      28.686  16.273   5.224  0.00  0.00     0.053 A 
HETATM   18  C   UNK N   1      30.602  14.292   3.791  0.00  0.00     0.066 A 
HETATM   19  N   UNK N   1      29.660  15.439   5.646  0.00  0.00    -0.344 N 
ENDROOT
BRANCH   9  20
HETATM   20  C   UNK N   1      33.166  15.541   8.995  0.00  0.00     0.161 C 
HETATM   21  N   UNK N   1      34.297  15.216   8.465  0.00  0.00    -0.251 N 
ATOM     22  HN  UNK N   1      34.977  14.805   9.103  1.00  0.00     0.182 HD
BRANCH  21  23
HETATM   23  S   UNK N   1      34.828  15.381   6.802  0.00  0.00     0.304 S 
HETATM   24  O   UNK N   1      33.982  14.486   5.884  0.00  0.00    -0.188 OA
HETATM   25  O   UNK N   1      34.650  16.831   6.323  0.00  0.00    -0.188 OA
BRANCH  23  26
HETATM   26  N   UNK N   1      36.527  14.899   6.657  0.00  0.00    -0.202 NA
HETATM   27  C   UNK N   1      36.800  13.905   7.679  0.00  0.00     0.130 C 
HETATM   28  C   UNK N   1      36.686  14.231   5.375  0.00  0.00     0.130 C 
ENDBRANCH  23  26
ENDBRANCH  21  23
BRANCH  20  29
HETATM   29  O   UNK N   1      32.974  15.196  10.285  0.00  0.00    -0.345 OA
HETATM   30  H   UNK N   1      33.275  15.640  11.053  0.00  0.00     0.219 HD
ENDBRANCH  20  29
ENDBRANCH   9  20
BRANCH  16  31
HETATM   31  C   UNK N   1      27.807  18.650   5.927  0.00  0.00     0.022 C 
HETATM   32  C   UNK N   1      28.135  19.589   4.762  0.00  0.00     0.009 C 
HETATM   33  C   UNK N   1      27.133  20.743   4.711  0.00  0.00     0.001 C 
HETATM   34  C   UNK N   1      27.140  21.519   6.025  0.00  0.00     0.000 C 
HETATM   35  C   UNK N   1      26.830  20.586   7.189  0.00  0.00     0.001 C 
HETATM   36  C   UNK N   1      27.853  19.455   7.228  0.00  0.00     0.009 C 
ENDBRANCH  16  31
BRANCH  18  37
HETATM   37  C   UNK N   1      31.900  13.594   3.485  0.00  0.00     0.231 C 
HETATM   38  N   UNK N   1      32.104  12.267   3.732  0.00  0.00    -0.339 N 
HETATM   39  C   UNK N   1      33.317  11.579   3.431  0.00  0.00     0.116 C 
HETATM   40  C   UNK N   1      31.215  11.386   4.412  0.00  0.00     0.116 C 
HETATM   41  C   UNK N   1      33.576  10.839   4.743  0.00  0.00     0.029 C 
HETATM   42  C   UNK N   1      32.969  10.573   2.323  0.00  0.00     0.297 C 
HETATM   43  C   UNK N   1      32.173  10.708   5.398  0.00  0.00     0.029 C 
HETATM   44  N   UNK N   1      31.865   9.674   2.709  0.00  0.00     0.088 N 
HETATM   45  C   UNK N   1      31.342   9.100   1.484  0.00  0.00     0.310 C 
HETATM   46  C   UNK N   1      30.740  10.366   3.368  0.00  0.00     0.297 C 
HETATM   47  O   UNK N   1      32.792  14.255   2.971  0.00  0.00    -0.272 OA
ENDBRANCH  18  37
BRANCH  10  48
HETATM   48  O   UNK N   1      25.009  15.209   0.994  0.00  0.00    -0.356 OA
HETATM   49  C   UNK N   1      24.054  14.219   1.074  0.00  0.00     0.210 C 
ENDBRANCH  10  48
TORSDOF 7
ENDMDL
MODEL 2
REMARK VINA RESULT:      -8.7      3.290      7.168
REMARK  7 active torsions:
REMARK  status: ('A' for Active; 'I' for Inactive)
REMARK    1  A    between atoms: C_32  and  C_22 
REMARK    2  A    between atoms: C_34  and  C_23 
REMARK    3  A    between atoms: O_47  and  C_26 
REMARK    4  A    between atoms: O_43  and  C_34 
REMARK    5  A    between atoms: C_36  and  C_35 
REMARK       I    between atoms: N_42  and  C_35 
REMARK    6  A    between atoms: N_37  and  S_48 
REMARK    7  A    between atoms: S_48  and  N_39 
ROOT
HETATM    1  C   UNK N   1      26.565  11.257   1.130  0.00  0.00     0.017 A 
HETATM    2  C   UNK N   1      25.342  18.905   3.969  0.00  0.00     0.037 A 
HETATM    3  C   UNK N   1      25.643  12.266   1.533  0.00  0.00     0.015 A 
HETATM    4  C   UNK N   1      25.458  17.636   3.405  0.00  0.00     0.017 A 
HETATM    5  C   UNK N   1      28.414  12.720   1.670  0.00  0.00     0.046 A 
HETATM    6  C   UNK N   1      27.546  18.686   4.904  0.00  0.00     0.045 A 
HETATM    7  C   UNK N   1      28.427  15.427   5.404  0.00  0.00     0.032 A 
HETATM    8  C   UNK N   1      29.153  15.303   2.803  0.00  0.00     0.149 C 
HETATM    9  C   UNK N   1      27.969  11.490   1.192  0.00  0.00     0.018 A 
HETATM   10  C   UNK N   1      26.387  19.445   4.709  0.00  0.00     0.068 A 
HETATM   11  C   UNK N   1      26.618  16.864   3.547  0.00  0.00    -0.002 A 
HETATM   12  C   UNK N   1      26.153  13.483   2.016  0.00  0.00    -0.000 A 
HETATM   13  C   UNK N   1      27.696  17.408   4.351  0.00  0.00    -0.037 A 
HETATM   14  C   UNK N   1      28.973  16.681   4.768  0.00  0.00     0.040 A 
HETATM   15  C   UNK N   1      27.499  13.667   2.082  0.00  0.00     0.046 A 
HETATM   16  C   UNK N   1      25.564  14.667   2.501  0.00  0.00    -0.014 A 
HETATM   17  C   UNK N   1      26.653  15.498   2.895  0.00  0.00     0.053 A 
HETATM   18  C   UNK N   1      29.429  15.306   4.272  0.00  0.00     0.066 A 
HETATM   19  N   UNK N   1      27.802  14.854   2.602  0.00  0.00    -0.344 N 
ENDROOT
BRANCH   9  20
HETATM   20  C   UNK N   1      29.045  10.551   0.743  0.00  0.00     0.161 C 
HETATM   21  N   UNK N   1      29.484   9.530   1.399  0.00  0.00    -0.251 N 
ATOM     22  HN  UNK N   1      30.177   8.962   0.912  1.00  0.00     0.182 HD
BRANCH  21  23
HETATM   23  S   UNK N   1      29.057   8.980   3.008  0.00  0.00     0.304 S 
HETATM   24  O   UNK N   1      27.562   8.632   3.071  0.00  0.00    -0.188 OA
HETATM   25  O   UNK N   1      29.841   7.708   3.367  0.00  0.00    -0.188 OA
BRANCH  23  26
HETATM   26  N   UNK N   1      29.394  10.254   4.194  0.00  0.00    -0.202 NA
HETATM   27  C   UNK N   1      28.123  10.738   4.703  0.00  0.00     0.130 C 
HETATM   28  C   UNK N   1      30.084   9.638   5.316  0.00  0.00     0.130 C 
ENDBRANCH  23  26
ENDBRANCH  21  23
BRANCH  20  29
HETATM   29  O   UNK N   1      29.631  10.813  -0.443  0.00  0.00    -0.345 OA
HETATM   30  H   UNK N   1      30.363  11.372  -0.617  0.00  0.00     0.219 HD
ENDBRANCH  20  29
ENDBRANCH   9  20
BRANCH  16  31
HETATM   31  C   UNK N   1      24.087  14.986   2.625  0.00  0.00     0.022 C 
HETATM   32  C   UNK N   1      23.400  14.315   3.818  0.00  0.00     0.009 C 
HETATM   33  C   UNK N   1      21.930  14.730   3.888  0.00  0.00     0.001 C 
HETATM   34  C   UNK N   1      21.206  14.363   2.595  0.00  0.00     0.000 C 
HETATM   35  C   UNK N   1      21.895  15.015   1.403  0.00  0.00     0.001 C 
HETATM   36  C   UNK N   1      23.354  14.572   1.346  0.00  0.00     0.009 C 
ENDBRANCH  16  31
BRANCH  18  37
HETATM   37  C   UNK N   1      30.683  14.646   4.781  0.00  0.00     0.231 C 
HETATM   38  N   UNK N   1      31.924  15.189   4.620  0.00  0.00    -0.339 N 
HETATM   39  C   UNK N   1      33.124  14.593   5.111  0.00  0.00     0.116 C 
HETATM   40  C   UNK N   1      32.248  16.351   3.861  0.00  0.00     0.116 C 
HETATM   41  C   UNK N   1      34.025  14.670   3.878  0.00  0.00     0.029 C 
HETATM   42  C   UNK N   1      33.650  15.538   6.202  0.00  0.00     0.297 C 
HETATM   43  C   UNK N   1      33.442  15.844   3.044  0.00  0.00     0.029 C 
HETATM   44  N   UNK N   1      33.839  16.915   5.707  0.00  0.00     0.088 N 
HETATM   45  C   UNK N   1      33.898  17.777   6.872  0.00  0.00     0.310 C 
HETATM   46  C   UNK N   1      32.724  17.404   4.873  0.00  0.00     0.297 C 
HETATM   47  O   UNK N   1      30.562  13.588   5.383  0.00  0.00    -0.272 OA
ENDBRANCH  18  37
BRANCH  10  48
HETATM   48  O   UNK N   1      26.256  20.688   5.231  0.00  0.00    -0.356 OA
HETATM   49  C   UNK N   1      27.206  21.269   6.043  0.00  0.00     0.210 C 
ENDBRANCH  10  48
TORSDOF 7
ENDMDL
MODEL 3
REMARK VINA RESULT:      -8.7      6.638      9.605
REMARK  7 active torsions:
REMARK  status: ('A' for Active; 'I' for Inactive)
REMARK    1  A    between atoms: C_32  and  C_22 
REMARK    2  A    between atoms: C_34  and  C_23 
REMARK    3  A    between atoms: O_47  and  C_26 
REMARK    4  A    between atoms: O_43  and  C_34 
REMARK    5  A    between atoms: C_36  and  C_35 
REMARK       I    between atoms: N_42  and  C_35 
REMARK    6  A    between atoms: N_37  and  S_48 
REMARK    7  A    between atoms: S_48  and  N_39 
ROOT
HETATM    1  C   UNK N   1      25.365  12.753   6.521  0.00  0.00     0.017 A 
HETATM    2  C   UNK N   1      23.168  20.029   3.313  0.00  0.00     0.037 A 
HETATM    3  C   UNK N   1      25.766  13.992   5.941  0.00  0.00     0.015 A 
HETATM    4  C   UNK N   1      23.626  18.862   3.922  0.00  0.00     0.017 A 
HETATM    5  C   UNK N   1      23.041  13.377   6.264  0.00  0.00     0.046 A 
HETATM    6  C   UNK N   1      21.099  18.930   2.772  0.00  0.00     0.045 A 
HETATM    7  C   UNK N   1      21.455  15.545   2.516  0.00  0.00     0.032 A 
HETATM    8  C   UNK N   1      21.222  15.392   5.205  0.00  0.00     0.149 C 
HETATM    9  C   UNK N   1      23.985  12.446   6.693  0.00  0.00     0.018 A 
HETATM   10  C   UNK N   1      21.899  20.076   2.747  0.00  0.00     0.068 A 
HETATM   11  C   UNK N   1      22.837  17.707   4.000  0.00  0.00    -0.002 A 
HETATM   12  C   UNK N   1      24.768  14.887   5.519  0.00  0.00    -0.000 A 
HETATM   13  C   UNK N   1      21.528  17.741   3.377  0.00  0.00    -0.037 A 
HETATM   14  C   UNK N   1      20.574  16.559   3.202  0.00  0.00     0.040 A 
HETATM   15  C   UNK N   1      23.458  14.554   5.678  0.00  0.00     0.046 A 
HETATM   16  C   UNK N   1      24.786  16.157   4.910  0.00  0.00    -0.014 A 
HETATM   17  C   UNK N   1      23.419  16.488   4.684  0.00  0.00     0.053 A 
HETATM   18  C   UNK N   1      20.751  15.163   3.804  0.00  0.00     0.066 A 
HETATM   19  N   UNK N   1      22.656  15.494   5.186  0.00  0.00    -0.344 N 
ENDROOT
BRANCH   9  20
HETATM   20  C   UNK N   1      23.423  11.220   7.343  0.00  0.00     0.161 C 
HETATM   21  N   UNK N   1      23.123  11.091   8.591  0.00  0.00    -0.251 N 
ATOM     22  HN  UNK N   1      22.689  10.205   8.848  1.00  0.00     0.182 HD
BRANCH  21  23
HETATM   23  S   UNK N   1      23.356  12.224   9.908  0.00  0.00     0.304 S 
HETATM   24  O   UNK N   1      24.855  12.471  10.136  0.00  0.00    -0.188 OA
HETATM   25  O   UNK N   1      22.713  13.579   9.572  0.00  0.00    -0.188 OA
BRANCH  23  26
HETATM   26  N   UNK N   1      22.654  11.575  11.400  0.00  0.00    -0.202 NA
HETATM   27  C   UNK N   1      23.445  12.062  12.516  0.00  0.00     0.130 C 
HETATM   28  C   UNK N   1      21.327  12.150  11.549  0.00  0.00     0.130 C 
ENDBRANCH  23  26
ENDBRANCH  21  23
BRANCH  20  29
HETATM   29  O   UNK N   1      23.240  10.139   6.556  0.00  0.00    -0.345 OA
HETATM   30  H   UNK N   1      23.753   9.865   5.821  0.00  0.00     0.219 HD
ENDBRANCH  20  29
ENDBRANCH   9  20
BRANCH  16  31
HETATM   31  C   UNK N   1      25.997  16.986   4.529  0.00  0.00     0.022 C 
HETATM   32  C   UNK N   1      27.038  16.228   3.700  0.00  0.00     0.009 C 
HETATM   33  C   UNK N   1      28.196  17.154   3.324  0.00  0.00     0.001 C 
HETATM   34  C   UNK N   1      28.848  17.734   4.577  0.00  0.00     0.000 C 
HETATM   35  C   UNK N   1      27.812  18.475   5.414  0.00  0.00     0.001 C 
HETATM   36  C   UNK N   1      26.678  17.526   5.789  0.00  0.00     0.009 C 
ENDBRANCH  16  31
BRANCH  18  37
HETATM   37  C   UNK N   1      19.781  14.045   3.534  0.00  0.00     0.231 C 
HETATM   38  N   UNK N   1      20.076  12.988   2.722  0.00  0.00    -0.339 N 
HETATM   39  C   UNK N   1      19.181  11.906   2.467  0.00  0.00     0.116 C 
HETATM   40  C   UNK N   1      21.246  12.835   1.924  0.00  0.00     0.116 C 
HETATM   41  C   UNK N   1      19.253  11.810   0.943  0.00  0.00     0.029 C 
HETATM   42  C   UNK N   1      19.829  10.664   3.100  0.00  0.00     0.297 C 
HETATM   43  C   UNK N   1      20.631  12.428   0.580  0.00  0.00     0.029 C 
HETATM   44  N   UNK N   1      21.195  10.427   2.597  0.00  0.00     0.088 N 
HETATM   45  C   UNK N   1      21.846   9.545   3.547  0.00  0.00     0.310 C 
HETATM   46  C   UNK N   1      22.019  11.649   2.518  0.00  0.00     0.297 C 
HETATM   47  O   UNK N   1      18.693  14.090   4.092  0.00  0.00    -0.272 OA
ENDBRANCH  18  37
BRANCH  10  48
HETATM   48  O   UNK N   1      21.471  21.228   2.177  0.00  0.00    -0.356 OA
HETATM   49  C   UNK N   1      20.670  21.263   1.057  0.00  0.00     0.210 C 
ENDBRANCH  10  48
TORSDOF 7
ENDMDL
MODEL 4
REMARK VINA RESULT:      -8.6      5.774      9.339
REMARK  7 active torsions:
REMARK  status: ('A' for Active; 'I' for Inactive)
REMARK    1  A    between atoms: C_32  and  C_22 
REMARK    2  A    between atoms: C_34  and  C_23 
REMARK    3  A    between atoms: O_47  and  C_26 
REMARK    4  A    between atoms: O_43  and  C_34 
REMARK    5  A    between atoms: C_36  and  C_35 
REMARK       I    between atoms: N_42  and  C_35 
REMARK    6  A    between atoms: N_37  and  S_48 
REMARK    7  A    between atoms: S_48  and  N_39 
ROOT
HETATM    1  C   UNK N   1      21.705  17.951   5.458  0.00  0.00     0.017 A 
HETATM    2  C   UNK N   1      28.476  14.877   1.886  0.00  0.00     0.037 A 
HETATM    3  C   UNK N   1      23.060  18.147   5.060  0.00  0.00     0.015 A 
HETATM    4  C   UNK N   1      27.350  15.501   2.422  0.00  0.00     0.017 A 
HETATM    5  C   UNK N   1      21.779  15.681   4.623  0.00  0.00     0.046 A 
HETATM    6  C   UNK N   1      27.587  12.736   2.523  0.00  0.00     0.045 A 
HETATM    7  C   UNK N   1      25.456  12.953   5.180  0.00  0.00     0.032 A 
HETATM    8  C   UNK N   1      23.490  13.632   3.453  0.00  0.00     0.149 C 
HETATM    9  C   UNK N   1      21.054  16.705   5.228  0.00  0.00     0.018 A 
HETATM   10  C   UNK N   1      28.596  13.493   1.919  0.00  0.00     0.068 A 
HETATM   11  C   UNK N   1      26.302  14.773   2.999  0.00  0.00    -0.002 A 
HETATM   12  C   UNK N   1      23.742  17.073   4.463  0.00  0.00    -0.000 A 
HETATM   13  C   UNK N   1      26.442  13.331   3.070  0.00  0.00    -0.037 A 
HETATM   14  C   UNK N   1      25.507  12.363   3.794  0.00  0.00     0.040 A 
HETATM   15  C   UNK N   1      23.099  15.889   4.276  0.00  0.00     0.046 A 
HETATM   16  C   UNK N   1      25.050  16.899   3.969  0.00  0.00    -0.014 A 
HETATM   17  C   UNK N   1      25.119  15.538   3.552  0.00  0.00     0.053 A 
HETATM   18  C   UNK N   1      24.160  12.717   4.428  0.00  0.00     0.066 A 
HETATM   19  N   UNK N   1      23.906  14.978   3.741  0.00  0.00    -0.344 N 
ENDROOT
BRANCH   9  20
HETATM   20  C   UNK N   1      19.624  16.381   5.533  0.00  0.00     0.161 C 
HETATM   21  N   UNK N   1      19.141  16.094   6.694  0.00  0.00    -0.251 N 
ATOM     22  HN  UNK N   1      18.130  15.963   6.728  1.00  0.00     0.182 HD
BRANCH  21  23
HETATM   23  S   UNK N   1      19.976  15.895   8.223  0.00  0.00     0.304 S 
HETATM   24  O   UNK N   1      20.592  17.231   8.668  0.00  0.00    -0.188 OA
HETATM   25  O   UNK N   1      18.993  15.454   9.319  0.00  0.00    -0.188 OA
BRANCH  23  26
HETATM   26  N   UNK N   1      21.273  14.700   8.056  0.00  0.00    -0.202 NA
HETATM   27  C   UNK N   1      21.631  14.239   9.385  0.00  0.00     0.130 C 
HETATM   28  C   UNK N   1      20.725  13.551   7.352  0.00  0.00     0.130 C 
ENDBRANCH  23  26
ENDBRANCH  21  23
BRANCH  20  29
HETATM   29  O   UNK N   1      18.767  16.359   4.491  0.00  0.00    -0.345 OA
HETATM   30  H   UNK N   1      18.669  15.697   3.836  0.00  0.00     0.219 HD
ENDBRANCH  20  29
ENDBRANCH   9  20
BRANCH  16  31
HETATM   31  C   UNK N   1      26.169  17.920   3.926  0.00  0.00     0.022 C 
HETATM   32  C   UNK N   1      26.977  18.018   5.224  0.00  0.00     0.009 C 
HETATM   33  C   UNK N   1      28.109  19.035   5.071  0.00  0.00     0.001 C 
HETATM   34  C   UNK N   1      27.551  20.407   4.700  0.00  0.00     0.000 C 
HETATM   35  C   UNK N   1      26.733  20.312   3.417  0.00  0.00     0.001 C 
HETATM   36  C   UNK N   1      25.602  19.305   3.602  0.00  0.00     0.009 C 
ENDBRANCH  16  31
BRANCH  18  37
HETATM   37  C   UNK N   1      23.329  11.702   5.166  0.00  0.00     0.231 C 
HETATM   38  N   UNK N   1      22.537  10.790   4.531  0.00  0.00    -0.339 N 
HETATM   39  C   UNK N   1      21.757   9.805   5.208  0.00  0.00     0.116 C 
HETATM   40  C   UNK N   1      22.267  10.731   3.133  0.00  0.00     0.116 C 
HETATM   41  C   UNK N   1      20.401   9.971   4.521  0.00  0.00     0.029 C 
HETATM   42  C   UNK N   1      22.372   8.448   4.831  0.00  0.00     0.297 C 
HETATM   43  C   UNK N   1      20.741  10.587   3.136  0.00  0.00     0.029 C 
HETATM   44  N   UNK N   1      22.432   8.247   3.371  0.00  0.00     0.088 N 
HETATM   45  C   UNK N   1      23.396   7.189   3.131  0.00  0.00     0.310 C 
HETATM   46  C   UNK N   1      22.908   9.430   2.628  0.00  0.00     0.297 C 
HETATM   47  O   UNK N   1      23.397  11.693   6.387  0.00  0.00    -0.272 OA
ENDBRANCH  18  37
BRANCH  10  48
HETATM   48  O   UNK N   1      29.691  12.910   1.375  0.00  0.00    -0.356 OA
HETATM   49  C   UNK N   1      29.641  12.112   0.253  0.00  0.00     0.210 C 
ENDBRANCH  10  48
TORSDOF 7
ENDMDL
MODEL 5
REMARK VINA RESULT:      -8.6      4.000      8.496
REMARK  7 active torsions:
REMARK  status: ('A' for Active; 'I' for Inactive)
REMARK    1  A    between atoms: C_32  and  C_22 
REMARK    2  A    between atoms: C_34  and  C_23 
REMARK    3  A    between atoms: O_47  and  C_26 
REMARK    4  A    between atoms: O_43  and  C_34 
REMARK    5  A    between atoms: C_36  and  C_35 
REMARK       I    between atoms: N_42  and  C_35 
REMARK    6  A    between atoms: N_37  and  S_48 
REMARK    7  A    between atoms: S_48  and  N_39 
ROOT
HETATM    1  C   UNK N   1      27.138  19.751   4.707  0.00  0.00     0.017 A 
HETATM    2  C   UNK N   1      31.087  12.509   4.845  0.00  0.00     0.037 A 
HETATM    3  C   UNK N   1      28.213  18.967   5.219  0.00  0.00     0.015 A 
HETATM    4  C   UNK N   1      30.533  13.787   4.811  0.00  0.00     0.017 A 
HETATM    5  C   UNK N   1      26.348  17.850   3.435  0.00  0.00     0.046 A 
HETATM    6  C   UNK N   1      28.965  11.576   4.206  0.00  0.00     0.045 A 
HETATM    7  C   UNK N   1      26.344  13.560   5.127  0.00  0.00     0.032 A 
HETATM    8  C   UNK N   1      26.758  15.017   2.887  0.00  0.00     0.149 C 
HETATM    9  C   UNK N   1      26.198  19.187   3.797  0.00  0.00     0.018 A 
HETATM   10  C   UNK N   1      30.313  11.398   4.530  0.00  0.00     0.068 A 
HETATM   11  C   UNK N   1      29.196  14.007   4.453  0.00  0.00    -0.002 A 
HETATM   12  C   UNK N   1      28.306  17.621   4.824  0.00  0.00    -0.000 A 
HETATM   13  C   UNK N   1      28.376  12.847   4.161  0.00  0.00    -0.037 A 
HETATM   14  C   UNK N   1      26.869  12.841   3.910  0.00  0.00     0.040 A 
HETATM   15  C   UNK N   1      27.380  17.107   3.969  0.00  0.00     0.046 A 
HETATM   16  C   UNK N   1      29.196  16.572   5.126  0.00  0.00    -0.014 A 
HETATM   17  C   UNK N   1      28.684  15.432   4.441  0.00  0.00     0.053 A 
HETATM   18  C   UNK N   1      25.978  14.075   3.748  0.00  0.00     0.066 A 
HETATM   19  N   UNK N   1      27.596  15.815   3.740  0.00  0.00    -0.344 N 
ENDROOT
BRANCH   9  20
HETATM   20  C   UNK N   1      25.065  19.906   3.133  0.00  0.00     0.161 C 
HETATM   21  N   UNK N   1      23.808  19.683   3.324  0.00  0.00    -0.251 N 
ATOM     22  HN  UNK N   1      23.173  20.313   2.835  1.00  0.00     0.182 HD
BRANCH  21  23
HETATM   23  S   UNK N   1      23.039  18.449   4.303  0.00  0.00     0.304 S 
HETATM   24  O   UNK N   1      23.103  17.090   3.590  0.00  0.00    -0.188 OA
HETATM   25  O   UNK N   1      23.769  18.298   5.647  0.00  0.00    -0.188 OA
BRANCH  23  26
HETATM   26  N   UNK N   1      21.339  18.866   4.581  0.00  0.00    -0.202 NA
HETATM   27  C   UNK N   1      20.940  19.818   3.560  0.00  0.00     0.130 C 
HETATM   28  C   UNK N   1      20.550  17.664   4.360  0.00  0.00     0.130 C 
ENDBRANCH  23  26
ENDBRANCH  21  23
BRANCH  20  29
HETATM   29  O   UNK N   1      25.387  20.856   2.231  0.00  0.00    -0.345 OA
HETATM   30  H   UNK N   1      25.477  20.766   1.303  0.00  0.00     0.219 HD
ENDBRANCH  20  29
ENDBRANCH   9  20
BRANCH  16  31
HETATM   31  C   UNK N   1      30.418  16.620   6.023  0.00  0.00     0.022 C 
HETATM   32  C   UNK N   1      30.171  17.288   7.379  0.00  0.00     0.009 C 
HETATM   33  C   UNK N   1      31.441  17.249   8.230  0.00  0.00     0.001 C 
HETATM   34  C   UNK N   1      32.593  17.944   7.508  0.00  0.00     0.000 C 
HETATM   35  C   UNK N   1      32.832  17.293   6.150  0.00  0.00     0.001 C 
HETATM   36  C   UNK N   1      31.556  17.361   5.316  0.00  0.00     0.009 C 
ENDBRANCH  16  31
BRANCH  18  37
HETATM   37  C   UNK N   1      24.490  13.969   3.552  0.00  0.00     0.231 C 
HETATM   38  N   UNK N   1      23.926  13.435   2.430  0.00  0.00    -0.339 N 
HETATM   39  C   UNK N   1      22.519  13.305   2.231  0.00  0.00     0.116 C 
HETATM   40  C   UNK N   1      24.612  13.028   1.250  0.00  0.00     0.116 C 
HETATM   41  C   UNK N   1      22.360  13.883   0.824  0.00  0.00     0.029 C 
HETATM   42  C   UNK N   1      22.233  11.795   2.211  0.00  0.00     0.297 C 
HETATM   43  C   UNK N   1      23.756  13.697   0.168  0.00  0.00     0.029 C 
HETATM   44  N   UNK N   1      23.037  11.086   1.198  0.00  0.00     0.088 N 
HETATM   45  C   UNK N   1      23.024   9.681   1.559  0.00  0.00     0.310 C 
HETATM   46  C   UNK N   1      24.452  11.503   1.166  0.00  0.00     0.297 C 
HETATM   47  O   UNK N   1      23.769  14.363   4.459  0.00  0.00    -0.272 OA
ENDBRANCH  18  37
BRANCH  10  48
HETATM   48  O   UNK N   1      30.881  10.168   4.553  0.00  0.00    -0.356 OA
HETATM   49  C   UNK N   1      32.108   9.915   5.127  0.00  0.00     0.210 C 
ENDBRANCH  10  48
TORSDOF 7
ENDMDL
MODEL 6
REMARK VINA RESULT:      -8.5      3.901      7.827
REMARK  7 active torsions:
REMARK  status: ('A' for Active; 'I' for Inactive)
REMARK    1  A    between atoms: C_32  and  C_22 
REMARK    2  A    between atoms: C_34  and  C_23 
REMARK    3  A    between atoms: O_47  and  C_26 
REMARK    4  A    between atoms: O_43  and  C_34 
REMARK    5  A    between atoms: C_36  and  C_35 
REMARK       I    between atoms: N_42  and  C_35 
REMARK    6  A    between atoms: N_37  and  S_48 
REMARK    7  A    between atoms: S_48  and  N_39 
ROOT
HETATM    1  C   UNK N   1      30.293  12.169   4.496  0.00  0.00     0.017 A 
HETATM    2  C   UNK N   1      27.895  19.821   6.435  0.00  0.00     0.037 A 
HETATM    3  C   UNK N   1      30.660  13.503   4.839  0.00  0.00     0.015 A 
HETATM    4  C   UNK N   1      28.382  18.535   6.203  0.00  0.00     0.017 A 
HETATM    5  C   UNK N   1      27.954  12.787   4.563  0.00  0.00     0.046 A 
HETATM    6  C   UNK N   1      25.894  19.278   5.217  0.00  0.00     0.045 A 
HETATM    7  C   UNK N   1      26.402  16.806   2.919  0.00  0.00     0.032 A 
HETATM    8  C   UNK N   1      26.087  14.998   4.905  0.00  0.00     0.149 C 
HETATM    9  C   UNK N   1      28.922  11.804   4.364  0.00  0.00     0.018 A 
HETATM   10  C   UNK N   1      26.645  20.197   5.957  0.00  0.00     0.068 A 
HETATM   11  C   UNK N   1      27.641  17.577   5.499  0.00  0.00    -0.002 A 
HETATM   12  C   UNK N   1      29.638  14.452   5.019  0.00  0.00    -0.000 A 
HETATM   13  C   UNK N   1      26.353  17.978   4.967  0.00  0.00    -0.037 A 
HETATM   14  C   UNK N   1      25.457  17.155   4.041  0.00  0.00     0.040 A 
HETATM   15  C   UNK N   1      28.340  14.077   4.866  0.00  0.00     0.046 A 
HETATM   16  C   UNK N   1      29.623  15.823   5.340  0.00  0.00    -0.014 A 
HETATM   17  C   UNK N   1      28.251  16.206   5.300  0.00  0.00     0.053 A 
HETATM   18  C   UNK N   1      25.673  15.692   3.646  0.00  0.00     0.066 A 
HETATM   19  N   UNK N   1      27.515  15.108   5.028  0.00  0.00    -0.344 N 
ENDROOT
BRANCH   9  20
HETATM   20  C   UNK N   1      28.392  10.435   4.073  0.00  0.00     0.161 C 
HETATM   21  N   UNK N   1      28.050   9.983   2.914  0.00  0.00    -0.251 N 
ATOM     22  HN  UNK N   1      27.770   9.003   2.891  1.00  0.00     0.182 HD
BRANCH  21  23
HETATM   23  S   UNK N   1      27.998  10.816   1.372  0.00  0.00     0.304 S 
HETATM   24  O   UNK N   1      27.654   9.828   0.246  0.00  0.00    -0.188 OA
HETATM   25  O   UNK N   1      26.907  11.899   1.383  0.00  0.00    -0.188 OA
BRANCH  23  26
HETATM   26  N   UNK N   1      29.574  11.548   1.023  0.00  0.00    -0.202 NA
HETATM   27  C   UNK N   1      29.944  11.188  -0.333  0.00  0.00     0.130 C 
HETATM   28  C   UNK N   1      29.400  12.992   1.037  0.00  0.00     0.130 C 
ENDBRANCH  23  26
ENDBRANCH  21  23
BRANCH  20  29
HETATM   29  O   UNK N   1      28.229   9.606   5.125  0.00  0.00    -0.345 OA
HETATM   30  H   UNK N   1      28.755   9.540   5.897  0.00  0.00     0.219 HD
ENDBRANCH  20  29
ENDBRANCH   9  20
BRANCH  16  31
HETATM   31  C   UNK N   1      30.809  16.723   5.626  0.00  0.00     0.022 C 
HETATM   32  C   UNK N   1      31.934  16.622   4.591  0.00  0.00     0.009 C 
HETATM   33  C   UNK N   1      33.062  17.596   4.935  0.00  0.00     0.001 C 
HETATM   34  C   UNK N   1      33.611  17.310   6.331  0.00  0.00     0.000 C 
HETATM   35  C   UNK N   1      32.492  17.394   7.363  0.00  0.00     0.001 C 
HETATM   36  C   UNK N   1      31.389  16.402   7.006  0.00  0.00     0.009 C 
ENDBRANCH  16  31
BRANCH  18  37
HETATM   37  C   UNK N   1      24.761  14.979   2.685  0.00  0.00     0.231 C 
HETATM   38  N   UNK N   1      23.442  14.747   2.948  0.00  0.00    -0.339 N 
HETATM   39  C   UNK N   1      22.553  14.091   2.044  0.00  0.00     0.116 C 
HETATM   40  C   UNK N   1      22.765  15.008   4.174  0.00  0.00     0.116 C 
HETATM   41  C   UNK N   1      21.886  13.070   2.966  0.00  0.00     0.029 C 
HETATM   42  C   UNK N   1      21.530  15.154   1.613  0.00  0.00     0.297 C 
HETATM   43  C   UNK N   1      22.026  13.682   4.387  0.00  0.00     0.029 C 
HETATM   44  N   UNK N   1      20.846  15.771   2.764  0.00  0.00     0.088 N 
HETATM   45  C   UNK N   1      20.265  17.014   2.291  0.00  0.00     0.310 C 
HETATM   46  C   UNK N   1      21.752  16.122   3.875  0.00  0.00     0.297 C 
HETATM   47  O   UNK N   1      25.234  14.618   1.616  0.00  0.00    -0.272 OA
ENDBRANCH  18  37
BRANCH  10  48
HETATM   48  O   UNK N   1      26.188  21.446   6.212  0.00  0.00    -0.356 OA
HETATM   49  C   UNK N   1      25.852  21.883   7.475  0.00  0.00     0.210 C 
ENDBRANCH  10  48
TORSDOF 7
ENDMDL
MODEL 7
REMARK VINA RESULT:      -8.4      2.571      3.618
REMARK  7 active torsions:
REMARK  status: ('A' for Active; 'I' for Inactive)
REMARK    1  A    between atoms: C_32  and  C_22 
REMARK    2  A    between atoms: C_34  and  C_23 
REMARK    3  A    between atoms: O_47  and  C_26 
REMARK    4  A    between atoms: O_43  and  C_34 
REMARK    5  A    between atoms: C_36  and  C_35 
REMARK       I    between atoms: N_42  and  C_35 
REMARK    6  A    between atoms: N_37  and  S_48 
REMARK    7  A    between atoms: S_48  and  N_39 
ROOT
HETATM    1  C   UNK N   1      32.101  17.405   4.148  0.00  0.00     0.017 A 
HETATM    2  C   UNK N   1      24.200  15.757   5.854  0.00  0.00     0.037 A 
HETATM    3  C   UNK N   1      30.816  17.893   4.524  0.00  0.00     0.015 A 
HETATM    4  C   UNK N   1      25.536  16.108   5.668  0.00  0.00     0.017 A 
HETATM    5  C   UNK N   1      31.212  15.160   3.997  0.00  0.00     0.046 A 
HETATM    6  C   UNK N   1      24.517  13.828   4.454  0.00  0.00     0.045 A 
HETATM    7  C   UNK N   1      27.057  14.251   2.214  0.00  0.00     0.032 A 
HETATM    8  C   UNK N   1      28.793  13.542   4.162  0.00  0.00     0.149 C 
HETATM    9  C   UNK N   1      32.303  16.019   3.889  0.00  0.00     0.018 A 
HETATM   10  C   UNK N   1      23.685  14.610   5.261  0.00  0.00     0.068 A 
HETATM   11  C   UNK N   1      26.408  15.328   4.898  0.00  0.00    -0.002 A 
HETATM   12  C   UNK N   1      29.752  16.979   4.607  0.00  0.00    -0.000 A 
HETATM   13  C   UNK N   1      25.865  14.151   4.248  0.00  0.00    -0.037 A 
HETATM   14  C   UNK N   1      26.587  13.254   3.243  0.00  0.00     0.040 A 
HETATM   15  C   UNK N   1      29.973  15.665   4.334  0.00  0.00     0.046 A 
HETATM   16  C   UNK N   1      28.384  17.095   4.926  0.00  0.00    -0.014 A 
HETATM   17  C   UNK N   1      27.844  15.788   4.757  0.00  0.00     0.053 A 
HETATM   18  C   UNK N   1      28.069  13.332   2.870  0.00  0.00     0.066 A 
HETATM   19  N   UNK N   1      28.851  14.956   4.418  0.00  0.00    -0.344 N 
ENDROOT
BRANCH   9  20
HETATM   20  C   UNK N   1      33.604  15.361   3.550  0.00  0.00     0.161 C 
HETATM   21  N   UNK N   1      34.534  15.041   4.386  0.00  0.00    -0.251 N 
ATOM     22  HN  UNK N   1      35.327  14.539   3.987  1.00  0.00     0.182 HD
BRANCH  21  23
HETATM   23  S   UNK N   1      34.628  15.348   6.109  0.00  0.00     0.304 S 
HETATM   24  O   UNK N   1      35.901  14.714   6.692  0.00  0.00    -0.188 OA
HETATM   25  O   UNK N   1      34.700  16.859   6.382  0.00  0.00    -0.188 OA
BRANCH  23  26
HETATM   26  N   UNK N   1      33.220  14.651   6.928  0.00  0.00    -0.202 NA
HETATM   27  C   UNK N   1      33.702  13.812   8.011  0.00  0.00     0.130 C 
HETATM   28  C   UNK N   1      32.485  15.744   7.545  0.00  0.00     0.130 C 
ENDBRANCH  23  26
ENDBRANCH  21  23
BRANCH  20  29
HETATM   29  O   UNK N   1      33.838  15.103   2.247  0.00  0.00    -0.345 OA
HETATM   30  H   UNK N   1      33.530  14.381   1.735  0.00  0.00     0.219 HD
ENDBRANCH  20  29
ENDBRANCH   9  20
BRANCH  16  31
HETATM   31  C   UNK N   1      27.627  18.348   5.321  0.00  0.00     0.022 C 
HETATM   32  C   UNK N   1      27.631  19.445   4.252  0.00  0.00     0.009 C 
HETATM   33  C   UNK N   1      26.807  20.646   4.718  0.00  0.00     0.001 C 
HETATM   34  C   UNK N   1      27.355  21.196   6.032  0.00  0.00     0.000 C 
HETATM   35  C   UNK N   1      27.368  20.104   7.095  0.00  0.00     0.001 C 
HETATM   36  C   UNK N   1      28.210  18.926   6.613  0.00  0.00     0.009 C 
ENDBRANCH  16  31
BRANCH  18  37
HETATM   37  C   UNK N   1      28.682  12.435   1.828  0.00  0.00     0.231 C 
HETATM   38  N   UNK N   1      28.673  11.074   1.924  0.00  0.00    -0.339 N 
HETATM   39  C   UNK N   1      29.228  10.203   0.939  0.00  0.00     0.116 C 
HETATM   40  C   UNK N   1      28.223  10.306   3.037  0.00  0.00     0.116 C 
HETATM   41  C   UNK N   1      30.061   9.260   1.808  0.00  0.00     0.029 C 
HETATM   42  C   UNK N   1      28.040   9.441   0.331  0.00  0.00     0.297 C 
HETATM   43  C   UNK N   1      29.390   9.327   3.207  0.00  0.00     0.029 C 
HETATM   44  N   UNK N   1      27.243   8.738   1.354  0.00  0.00     0.088 N 
HETATM   45  C   UNK N   1      25.954   8.445   0.755  0.00  0.00     0.310 C 
HETATM   46  C   UNK N   1      26.977   9.547   2.559  0.00  0.00     0.297 C 
HETATM   47  O   UNK N   1      29.185  12.966   0.848  0.00  0.00    -0.272 OA
ENDBRANCH  18  37
BRANCH  10  48
HETATM   48  O   UNK N   1      22.388  14.281   5.472  0.00  0.00    -0.356 OA
HETATM   49  C   UNK N   1      21.467  15.153   6.009  0.00  0.00     0.210 C 
ENDBRANCH  10  48
TORSDOF 7
ENDMDL
MODEL 8
REMARK VINA RESULT:      -8.3      6.745     11.501
REMARK  7 active torsions:
REMARK  status: ('A' for Active; 'I' for Inactive)
REMARK    1  A    between atoms: C_32  and  C_22 
REMARK    2  A    between atoms: C_34  and  C_23 
REMARK    3  A    between atoms: O_47  and  C_26 
REMARK    4  A    between atoms: O_43  and  C_34 
REMARK    5  A    between atoms: C_36  and  C_35 
REMARK       I    between atoms: N_42  and  C_35 
REMARK    6  A    between atoms: N_37  and  S_48 
REMARK    7  A    between atoms: S_48  and  N_39 
ROOT
HETATM    1  C   UNK N   1      36.176  15.448  11.239  0.00  0.00     0.017 A 
HETATM    2  C   UNK N   1      36.861   9.557  16.974  0.00  0.00     0.037 A 
HETATM    3  C   UNK N   1      36.317  15.109  12.617  0.00  0.00     0.015 A 
HETATM    4  C   UNK N   1      36.840  10.612  16.063  0.00  0.00     0.017 A 
HETATM    5  C   UNK N   1      36.099  13.100  10.661  0.00  0.00     0.046 A 
HETATM    6  C   UNK N   1      35.700   8.171  15.389  0.00  0.00     0.045 A 
HETATM    7  C   UNK N   1      33.822   9.994  13.198  0.00  0.00     0.032 A 
HETATM    8  C   UNK N   1      36.056  10.387  11.727  0.00  0.00     0.149 C 
HETATM    9  C   UNK N   1      36.074  14.430  10.248  0.00  0.00     0.018 A 
HETATM   10  C   UNK N   1      36.305   8.328  16.640  0.00  0.00     0.068 A 
HETATM   11  C   UNK N   1      36.277  10.479  14.786  0.00  0.00    -0.002 A 
HETATM   12  C   UNK N   1      36.327  13.749  12.973  0.00  0.00    -0.000 A 
HETATM   13  C   UNK N   1      35.663   9.209  14.449  0.00  0.00    -0.037 A 
HETATM   14  C   UNK N   1      34.857   8.897  13.189  0.00  0.00     0.040 A 
HETATM   15  C   UNK N   1      36.207  12.801  12.004  0.00  0.00     0.046 A 
HETATM   16  C   UNK N   1      36.432  13.059  14.196  0.00  0.00    -0.014 A 
HETATM   17  C   UNK N   1      36.305  11.679  13.864  0.00  0.00     0.053 A 
HETATM   18  C   UNK N   1      34.697   9.813  11.973  0.00  0.00     0.066 A 
HETATM   19  N   UNK N   1      36.191  11.577  12.523  0.00  0.00    -0.344 N 
ENDROOT
BRANCH   9  20
HETATM   20  C   UNK N   1      35.987  14.638   8.769  0.00  0.00     0.161 C 
HETATM   21  N   UNK N   1      35.080  15.314   8.148  0.00  0.00    -0.251 N 
ATOM     22  HN  UNK N   1      35.213  15.406   7.142  1.00  0.00     0.182 HD
BRANCH  21  23
HETATM   23  S   UNK N   1      33.649  16.098   8.791  0.00  0.00     0.304 S 
HETATM   24  O   UNK N   1      32.955  15.180   9.809  0.00  0.00    -0.188 OA
HETATM   25  O   UNK N   1      34.030  17.393   9.525  0.00  0.00    -0.188 OA
BRANCH  23  26
HETATM   26  N   UNK N   1      32.511  16.456   7.481  0.00  0.00    -0.202 NA
HETATM   27  C   UNK N   1      31.810  15.228   7.149  0.00  0.00     0.130 C 
HETATM   28  C   UNK N   1      31.514  17.376   8.004  0.00  0.00     0.130 C 
ENDBRANCH  23  26
ENDBRANCH  21  23
BRANCH  20  29
HETATM   29  O   UNK N   1      36.929  14.040   8.010  0.00  0.00    -0.345 OA
HETATM   30  H   UNK N   1      37.701  14.419   7.640  0.00  0.00     0.219 HD
ENDBRANCH  20  29
ENDBRANCH   9  20
BRANCH  16  31
HETATM   31  C   UNK N   1      36.600  13.648  15.583  0.00  0.00     0.022 C 
HETATM   32  C   UNK N   1      35.317  13.656  16.419  0.00  0.00     0.009 C 
HETATM   33  C   UNK N   1      35.592  14.223  17.812  0.00  0.00     0.001 C 
HETATM   34  C   UNK N   1      36.159  15.637  17.714  0.00  0.00     0.000 C 
HETATM   35  C   UNK N   1      37.428  15.638  16.870  0.00  0.00     0.001 C 
HETATM   36  C   UNK N   1      37.122  15.084  15.481  0.00  0.00     0.009 C 
ENDBRANCH  16  31
BRANCH  18  37
HETATM   37  C   UNK N   1      33.839   9.439  10.795  0.00  0.00     0.231 C 
HETATM   38  N   UNK N   1      33.914   8.223  10.180  0.00  0.00    -0.339 N 
HETATM   39  C   UNK N   1      33.097   7.837   9.075  0.00  0.00     0.116 C 
HETATM   40  C   UNK N   1      34.865   7.196  10.447  0.00  0.00     0.116 C 
HETATM   41  C   UNK N   1      34.141   7.272   8.112  0.00  0.00     0.029 C 
HETATM   42  C   UNK N   1      32.194   6.706   9.592  0.00  0.00     0.297 C 
HETATM   43  C   UNK N   1      35.320   6.842   9.027  0.00  0.00     0.029 C 
HETATM   44  N   UNK N   1      32.969   5.590  10.166  0.00  0.00     0.088 N 
HETATM   45  C   UNK N   1      32.055   4.824  10.992  0.00  0.00     0.310 C 
HETATM   46  C   UNK N   1      34.073   6.024  11.044  0.00  0.00     0.297 C 
HETATM   47  O   UNK N   1      33.028  10.265  10.399  0.00  0.00    -0.272 OA
ENDBRANCH  18  37
BRANCH  10  48
HETATM   48  O   UNK N   1      36.354   7.314  17.537  0.00  0.00    -0.356 OA
HETATM   49  C   UNK N   1      37.248   6.269  17.445  0.00  0.00     0.210 C 
ENDBRANCH  10  48
TORSDOF 7
ENDMDL
MODEL 9
REMARK VINA RESULT:      -8.2      4.138      8.736
REMARK  7 active torsions:
REMARK  status: ('A' for Active; 'I' for Inactive)
REMARK    1  A    between atoms: C_32  and  C_22 
REMARK    2  A    between atoms: C_34  and  C_23 
REMARK    3  A    between atoms: O_47  and  C_26 
REMARK    4  A    between atoms: O_43  and  C_34 
REMARK    5  A    between atoms: C_36  and  C_35 
REMARK       I    between atoms: N_42  and  C_35 
REMARK    6  A    between atoms: N_37  and  S_48 
REMARK    7  A    between atoms: S_48  and  N_39 
ROOT
HETATM    1  C   UNK N   1      29.493  16.279   3.411  0.00  0.00     0.017 A 
HETATM    2  C   UNK N   1      24.555  10.367   0.455  0.00  0.00     0.037 A 
HETATM    3  C   UNK N   1      29.370  14.998   2.796  0.00  0.00     0.015 A 
HETATM    4  C   UNK N   1      25.458  11.353   0.851  0.00  0.00     0.017 A 
HETATM    5  C   UNK N   1      27.083  16.469   3.514  0.00  0.00     0.046 A 
HETATM    6  C   UNK N   1      22.923  11.260   1.979  0.00  0.00     0.045 A 
HETATM    7  C   UNK N   1      24.357  12.911   4.599  0.00  0.00     0.032 A 
HETATM    8  C   UNK N   1      24.563  15.092   3.014  0.00  0.00     0.149 C 
HETATM    9  C   UNK N   1      28.334  17.027   3.766  0.00  0.00     0.018 A 
HETATM   10  C   UNK N   1      23.279  10.322   1.005  0.00  0.00     0.068 A 
HETATM   11  C   UNK N   1      25.123  12.332   1.795  0.00  0.00    -0.002 A 
HETATM   12  C   UNK N   1      28.080  14.484   2.576  0.00  0.00    -0.000 A 
HETATM   13  C   UNK N   1      23.805  12.264   2.398  0.00  0.00    -0.037 A 
HETATM   14  C   UNK N   1      23.291  13.121   3.554  0.00  0.00     0.040 A 
HETATM   15  C   UNK N   1      26.994  15.215   2.946  0.00  0.00     0.046 A 
HETATM   16  C   UNK N   1      27.586  13.287   2.023  0.00  0.00    -0.014 A 
HETATM   17  C   UNK N   1      26.169  13.364   2.158  0.00  0.00     0.053 A 
HETATM   18  C   UNK N   1      24.008  14.324   4.171  0.00  0.00     0.066 A 
HETATM   19  N   UNK N   1      25.863  14.559   2.704  0.00  0.00    -0.344 N 
ENDROOT
BRANCH   9  20
HETATM   20  C   UNK N   1      28.313  18.404   4.354  0.00  0.00     0.161 C 
HETATM   21  N   UNK N   1      28.612  18.715   5.571  0.00  0.00    -0.251 N 
ATOM     22  HN  UNK N   1      28.606  19.712   5.782  1.00  0.00     0.182 HD
BRANCH  21  23
HETATM   23  S   UNK N   1      29.026  17.665   6.912  0.00  0.00     0.304 S 
HETATM   24  O   UNK N   1      28.026  16.501   7.003  0.00  0.00    -0.188 OA
HETATM   25  O   UNK N   1      30.422  17.057   6.708  0.00  0.00    -0.188 OA
BRANCH  23  26
HETATM   26  N   UNK N   1      28.977  18.574   8.433  0.00  0.00    -0.202 NA
HETATM   27  C   UNK N   1      28.117  17.855   9.356  0.00  0.00     0.130 C 
HETATM   28  C   UNK N   1      30.314  18.547   9.004  0.00  0.00     0.130 C 
ENDBRANCH  23  26
ENDBRANCH  21  23
BRANCH  20  29
HETATM   29  O   UNK N   1      27.919  19.409   3.546  0.00  0.00    -0.345 OA
HETATM   30  H   UNK N   1      27.581  20.248   3.789  0.00  0.00     0.219 HD
ENDBRANCH  20  29
ENDBRANCH   9  20
BRANCH  16  31
HETATM   31  C   UNK N   1      28.382  12.134   1.444  0.00  0.00     0.022 C 
HETATM   32  C   UNK N   1      29.144  11.313   2.489  0.00  0.00     0.009 C 
HETATM   33  C   UNK N   1      29.877  10.149   1.821  0.00  0.00     0.001 C 
HETATM   34  C   UNK N   1      30.842  10.662   0.756  0.00  0.00     0.000 C 
HETATM   35  C   UNK N   1      30.091  11.493  -0.278  0.00  0.00     0.001 C 
HETATM   36  C   UNK N   1      29.384  12.656   0.411  0.00  0.00     0.009 C 
ENDBRANCH  16  31
BRANCH  18  37
HETATM   37  C   UNK N   1      23.444  15.078   5.344  0.00  0.00     0.231 C 
HETATM   38  N   UNK N   1      22.455  16.011   5.220  0.00  0.00    -0.339 N 
HETATM   39  C   UNK N   1      21.889  16.724   6.319  0.00  0.00     0.116 C 
HETATM   40  C   UNK N   1      21.906  16.505   4.001  0.00  0.00     0.116 C 
HETATM   41  C   UNK N   1      21.936  18.161   5.801  0.00  0.00     0.029 C 
HETATM   42  C   UNK N   1      20.431  16.252   6.422  0.00  0.00     0.297 C 
HETATM   43  C   UNK N   1      21.946  18.016   4.254  0.00  0.00     0.029 C 
HETATM   44  N   UNK N   1      19.691  16.439   5.160  0.00  0.00     0.088 N 
HETATM   45  C   UNK N   1      18.520  15.585   5.228  0.00  0.00     0.310 C 
HETATM   46  C   UNK N   1      20.448  16.025   3.962  0.00  0.00     0.297 C 
HETATM   47  O   UNK N   1      23.886  14.815   6.454  0.00  0.00    -0.272 OA
ENDBRANCH  18  37
BRANCH  10  48
HETATM   48  O   UNK N   1      22.414   9.365   0.591  0.00  0.00    -0.356 OA
HETATM   49  C   UNK N   1      22.551   8.690  -0.603  0.00  0.00     0.210 C 
ENDBRANCH  10  48
TORSDOF 7
ENDMDL
