MODEL 1
REMARK VINA RESULT:      -8.3      0.000      0.000
REMARK  2 active torsions:
REMARK  status: ('A' for Active; 'I' for Inactive)
REMARK    1  A    between atoms: C_6  and  C_12 
REMARK       I    between atoms: C_12  and  N_14 
REMARK    2  A    between atoms: N_25  and  C_30 
ROOT
HETATM    1  C   UNK N   1      34.962  16.926   9.813  0.00  0.00     0.253 C 
HETATM    2  O   UNK N   1      35.632  17.946   9.911  0.00  0.00    -0.267 OA
HETATM    3  N   UNK N   1      33.815  16.955   9.059  0.00  0.00    -0.348 N 
HETATM    4  C   UNK N   1      33.574  18.058   8.164  0.00  0.00     0.127 C 
HETATM    5  C   UNK N   1      33.816  17.518   6.743  0.00  0.00     0.030 C 
HETATM    6  C   UNK N   1      32.952  16.277   6.437  0.00  0.00    -0.026 C 
HETATM    7  C   UNK N   1      33.035  15.242   7.582  0.00  0.00     0.030 C 
HETATM    8  C   UNK N   1      32.902  15.846   8.964  0.00  0.00     0.127 C 
HETATM    9  C   UNK N   1      31.493  16.750   6.186  0.00  0.00     0.052 C 
HETATM   10  C   UNK N   1      30.664  15.653   5.584  0.00  0.00    -0.009 A 
HETATM   11  C   UNK N   1      29.293  15.506   5.551  0.00  0.00     0.117 A 
HETATM   12  N   UNK N   1      29.022  14.307   4.982  0.00  0.00    -0.308 N 
ATOM     13  HN  UNK N   1      28.091  13.923   4.820  1.00  0.00     0.186 HD
HETATM   14  N   UNK N   1      30.165  13.713   4.668  0.00  0.00    -0.284 N 
HETATM   15  C   UNK N   1      31.184  14.531   5.005  0.00  0.00     0.104 A 
HETATM   16  C   UNK N   1      32.638  14.361   4.851  0.00  0.00     0.178 C 
HETATM   17  O   UNK N   1      33.136  13.311   4.480  0.00  0.00    -0.291 OA
HETATM   18  C   UNK N   1      33.505  15.555   5.190  0.00  0.00     0.095 C 
ENDROOT
BRANCH   1  19
HETATM   19  C   UNK N   1      35.512  15.669  10.416  0.00  0.00     0.034 A 
HETATM   20  C   UNK N   1      35.294  15.420  11.793  0.00  0.00     0.049 A 
HETATM   21  C   UNK N   1      35.966  14.353  12.378  0.00  0.00     0.061 A 
HETATM   22  N   UNK N   1      35.926  13.954  13.657  0.00  0.00    -0.344 N 
HETATM   23  C   UNK N   1      36.823  13.565  11.680  0.00  0.00     0.060 A 
HETATM   24  C   UNK N   1      36.788  12.907  13.695  0.00  0.00     0.078 A 
HETATM   25  H   UNK N   1      35.396  14.333  14.395  0.00  0.00     0.167 HD
HETATM   26  C   UNK N   1      37.088  12.137  14.929  0.00  0.00     0.089 C 
HETATM   27  N   UNK N   1      37.357  12.643  12.492  0.00  0.00    -0.344 N 
ATOM     28  HN  UNK N   1      38.033  11.914  12.261  1.00  0.00     0.167 HD
HETATM   29  C   UNK N   1      37.068  13.755  10.328  0.00  0.00     0.033 A 
HETATM   30  C   UNK N   1      36.404  14.823   9.700  0.00  0.00     0.019 A 
ENDBRANCH   1  19
BRANCH  14  31
HETATM   31  C   UNK N   1      30.216  12.373   4.088  0.00  0.00     0.100 C 
HETATM   32  C   UNK N   1      29.040  11.524   4.531  0.00  0.00     0.034 C 
HETATM   33  C   UNK N   1      30.295  12.445   2.574  0.00  0.00     0.034 C 
ENDBRANCH  14  31
TORSDOF 2
ENDMDL
MODEL 2
REMARK VINA RESULT:      -7.9      2.605      8.191
REMARK  2 active torsions:
REMARK  status: ('A' for Active; 'I' for Inactive)
REMARK    1  A    between atoms: C_6  and  C_12 
REMARK       I    between atoms: C_12  and  N_14 
REMARK    2  A    between atoms: N_25  and  C_30 
ROOT
HETATM    1  C   UNK N   1      35.067  14.853   6.581  0.00  0.00     0.253 C 
HETATM    2  O   UNK N   1      35.839  15.364   5.779  0.00  0.00    -0.267 OA
HETATM    3  N   UNK N   1      35.515  13.822   7.368  0.00  0.00    -0.348 N 
HETATM    4  C   UNK N   1      36.928  13.557   7.467  0.00  0.00     0.127 C 
HETATM    5  C   UNK N   1      37.362  14.053   8.858  0.00  0.00     0.030 C 
HETATM    6  C   UNK N   1      36.534  13.408   9.990  0.00  0.00    -0.026 C 
HETATM    7  C   UNK N   1      35.020  13.476   9.683  0.00  0.00     0.030 C 
HETATM    8  C   UNK N   1      34.664  13.083   8.266  0.00  0.00     0.127 C 
HETATM    9  C   UNK N   1      37.025  11.946  10.177  0.00  0.00     0.052 C 
HETATM   10  C   UNK N   1      36.492  11.354  11.451  0.00  0.00    -0.009 A 
HETATM   11  C   UNK N   1      36.358  10.031  11.816  0.00  0.00     0.117 A 
HETATM   12  N   UNK N   1      35.739   9.998  13.020  0.00  0.00    -0.308 N 
ATOM     13  HN  UNK N   1      35.506   9.155  13.545  1.00  0.00     0.186 HD
HETATM   14  N   UNK N   1      35.485  11.241  13.406  0.00  0.00    -0.284 N 
HETATM   15  C   UNK N   1      35.960  12.089  12.471  0.00  0.00     0.104 A 
HETATM   16  C   UNK N   1      35.956  13.561  12.424  0.00  0.00     0.178 C 
HETATM   17  O   UNK N   1      35.356  14.237  13.243  0.00  0.00    -0.291 OA
HETATM   18  C   UNK N   1      36.726  14.211  11.294  0.00  0.00     0.095 C 
ENDROOT
BRANCH   1  19
HETATM   19  C   UNK N   1      33.715  15.480   6.746  0.00  0.00     0.034 A 
HETATM   20  C   UNK N   1      33.533  16.454   7.757  0.00  0.00     0.049 A 
HETATM   21  C   UNK N   1      32.238  16.886   8.022  0.00  0.00     0.061 A 
HETATM   22  N   UNK N   1      31.836  17.774   8.941  0.00  0.00    -0.344 N 
HETATM   23  C   UNK N   1      31.160  16.394   7.358  0.00  0.00     0.060 A 
HETATM   24  C   UNK N   1      30.486  17.793   8.802  0.00  0.00     0.078 A 
HETATM   25  H   UNK N   1      32.390  18.291   9.569  0.00  0.00     0.167 HD
HETATM   26  C   UNK N   1      29.588  18.636   9.633  0.00  0.00     0.089 C 
HETATM   27  N   UNK N   1      30.039  16.953   7.835  0.00  0.00    -0.344 N 
ATOM     28  HN  UNK N   1      29.076  16.786   7.541  1.00  0.00     0.167 HD
HETATM   29  C   UNK N   1      31.279  15.447   6.352  0.00  0.00     0.033 A 
HETATM   30  C   UNK N   1      32.574  14.988   6.053  0.00  0.00     0.019 A 
ENDBRANCH   1  19
BRANCH  14  31
HETATM   31  C   UNK N   1      34.767  11.544  14.642  0.00  0.00     0.100 C 
HETATM   32  C   UNK N   1      33.487  10.739  14.762  0.00  0.00     0.034 C 
HETATM   33  C   UNK N   1      35.661  11.325  15.850  0.00  0.00     0.034 C 
ENDBRANCH  14  31
TORSDOF 2
ENDMDL
MODEL 3
REMARK VINA RESULT:      -7.6      2.735      3.855
REMARK  2 active torsions:
REMARK  status: ('A' for Active; 'I' for Inactive)
REMARK    1  A    between atoms: C_6  and  C_12 
REMARK       I    between atoms: C_12  and  N_14 
REMARK    2  A    between atoms: N_25  and  C_30 
ROOT
HETATM    1  C   UNK N   1      33.903  16.497   6.902  0.00  0.00     0.253 C 
HETATM    2  O   UNK N   1      34.936  16.622   6.257  0.00  0.00    -0.267 OA
HETATM    3  N   UNK N   1      32.760  17.106   6.446  0.00  0.00    -0.348 N 
HETATM    4  C   UNK N   1      32.705  17.611   5.099  0.00  0.00     0.127 C 
HETATM    5  C   UNK N   1      31.819  16.632   4.308  0.00  0.00     0.030 C 
HETATM    6  C   UNK N   1      30.430  16.452   4.954  0.00  0.00    -0.026 C 
HETATM    7  C   UNK N   1      30.550  16.189   6.473  0.00  0.00     0.030 C 
HETATM    8  C   UNK N   1      31.520  17.111   7.179  0.00  0.00     0.127 C 
HETATM    9  C   UNK N   1      29.584  17.720   4.649  0.00  0.00     0.052 C 
HETATM   10  C   UNK N   1      28.135  17.496   4.972  0.00  0.00    -0.009 A 
HETATM   11  C   UNK N   1      27.137  18.417   5.211  0.00  0.00     0.117 A 
HETATM   12  N   UNK N   1      26.020  17.732   5.554  0.00  0.00    -0.308 N 
ATOM     13  HN  UNK N   1      25.117  18.145   5.786  1.00  0.00     0.186 HD
HETATM   14  N   UNK N   1      26.291  16.434   5.538  0.00  0.00    -0.284 N 
HETATM   15  C   UNK N   1      27.575  16.266   5.160  0.00  0.00     0.104 A 
HETATM   16  C   UNK N   1      28.361  15.035   4.964  0.00  0.00     0.178 C 
HETATM   17  O   UNK N   1      27.935  13.934   5.270  0.00  0.00    -0.291 OA
HETATM   18  C   UNK N   1      29.746  15.197   4.372  0.00  0.00     0.095 C 
ENDROOT
BRANCH   1  19
HETATM   19  C   UNK N   1      33.923  15.574   8.082  0.00  0.00     0.034 A 
HETATM   20  C   UNK N   1      34.477  16.035   9.300  0.00  0.00     0.049 A 
HETATM   21  C   UNK N   1      34.661  15.113  10.325  0.00  0.00     0.061 A 
HETATM   22  N   UNK N   1      35.184  15.323  11.541  0.00  0.00    -0.344 N 
HETATM   23  C   UNK N   1      34.343  13.800  10.184  0.00  0.00     0.060 A 
HETATM   24  C   UNK N   1      35.168  14.094  12.115  0.00  0.00     0.078 A 
HETATM   25  H   UNK N   1      35.505  16.170  11.925  0.00  0.00     0.167 HD
HETATM   26  C   UNK N   1      35.672  13.823  13.486  0.00  0.00     0.089 C 
HETATM   27  N   UNK N   1      34.656  13.134  11.304  0.00  0.00    -0.344 N 
ATOM     28  HN  UNK N   1      34.537  12.140  11.501  1.00  0.00     0.167 HD
HETATM   29  C   UNK N   1      33.788  13.294   9.018  0.00  0.00     0.033 A 
HETATM   30  C   UNK N   1      33.585  14.197   7.960  0.00  0.00     0.019 A 
ENDBRANCH   1  19
BRANCH  14  31
HETATM   31  C   UNK N   1      25.306  15.425   5.920  0.00  0.00     0.100 C 
HETATM   32  C   UNK N   1      25.535  14.922   7.333  0.00  0.00     0.034 C 
HETATM   33  C   UNK N   1      23.895  15.962   5.757  0.00  0.00     0.034 C 
ENDBRANCH  14  31
TORSDOF 2
ENDMDL
MODEL 4
REMARK VINA RESULT:      -7.6     15.798     19.555
REMARK  2 active torsions:
REMARK  status: ('A' for Active; 'I' for Inactive)
REMARK    1  A    between atoms: C_6  and  C_12 
REMARK       I    between atoms: C_12  and  N_14 
REMARK    2  A    between atoms: N_25  and  C_30 
ROOT
HETATM    1  C   UNK N   1      26.745  28.455  -4.633  0.00  0.00     0.253 C 
HETATM    2  O   UNK N   1      25.562  28.755  -4.519  0.00  0.00    -0.267 OA
HETATM    3  N   UNK N   1      27.229  27.385  -3.924  0.00  0.00    -0.348 N 
HETATM    4  C   UNK N   1      26.313  26.458  -3.310  0.00  0.00     0.127 C 
HETATM    5  C   UNK N   1      26.352  25.181  -4.168  0.00  0.00     0.030 C 
HETATM    6  C   UNK N   1      27.784  24.624  -4.317  0.00  0.00    -0.026 C 
HETATM    7  C   UNK N   1      28.780  25.740  -4.707  0.00  0.00     0.030 C 
HETATM    8  C   UNK N   1      28.620  27.012  -3.904  0.00  0.00     0.127 C 
HETATM    9  C   UNK N   1      28.178  23.935  -2.981  0.00  0.00     0.052 C 
HETATM   10  C   UNK N   1      29.420  23.106  -3.144  0.00  0.00    -0.009 A 
HETATM   11  C   UNK N   1      30.304  22.652  -2.188  0.00  0.00     0.117 A 
HETATM   12  N   UNK N   1      31.319  22.028  -2.831  0.00  0.00    -0.308 N 
ATOM     13  HN  UNK N   1      32.124  21.588  -2.384  1.00  0.00     0.186 HD
HETATM   14  N   UNK N   1      31.097  22.083  -4.137  0.00  0.00    -0.284 N 
HETATM   15  C   UNK N   1      29.926  22.717  -4.350  0.00  0.00     0.104 A 
HETATM   16  C   UNK N   1      29.216  23.020  -5.605  0.00  0.00     0.178 C 
HETATM   17  O   UNK N   1      29.715  22.821  -6.700  0.00  0.00    -0.291 OA
HETATM   18  C   UNK N   1      27.827  23.609  -5.478  0.00  0.00     0.095 C 
ENDROOT
BRANCH   1  19
HETATM   19  C   UNK N   1      27.558  29.200  -5.648  0.00  0.00     0.034 A 
HETATM   20  C   UNK N   1      27.867  28.564  -6.875  0.00  0.00     0.049 A 
HETATM   21  C   UNK N   1      28.775  29.188  -7.723  0.00  0.00     0.061 A 
HETATM   22  N   UNK N   1      29.225  28.759  -8.910  0.00  0.00    -0.344 N 
HETATM   23  C   UNK N   1      29.376  30.364  -7.404  0.00  0.00     0.060 A 
HETATM   24  C   UNK N   1      30.112  29.716  -9.284  0.00  0.00     0.078 A 
HETATM   25  H   UNK N   1      28.972  27.941  -9.396  0.00  0.00     0.167 HD
HETATM   26  C   UNK N   1      30.887  29.665 -10.550  0.00  0.00     0.089 C 
HETATM   27  N   UNK N   1      30.227  30.718  -8.376  0.00  0.00    -0.344 N 
ATOM     28  HN  UNK N   1      30.822  31.545  -8.424  1.00  0.00     0.167 HD
HETATM   29  C   UNK N   1      29.104  31.036  -6.222  0.00  0.00     0.033 A 
HETATM   30  C   UNK N   1      28.188  30.437  -5.339  0.00  0.00     0.019 A 
ENDBRANCH   1  19
BRANCH  14  31
HETATM   31  C   UNK N   1      32.044  21.548  -5.114  0.00  0.00     0.100 C 
HETATM   32  C   UNK N   1      33.467  21.576  -4.591  0.00  0.00     0.034 C 
HETATM   33  C   UNK N   1      31.646  20.144  -5.534  0.00  0.00     0.034 C 
ENDBRANCH  14  31
TORSDOF 2
ENDMDL
MODEL 5
REMARK VINA RESULT:      -7.3      6.153     11.010
REMARK  2 active torsions:
REMARK  status: ('A' for Active; 'I' for Inactive)
REMARK    1  A    between atoms: C_6  and  C_12 
REMARK       I    between atoms: C_12  and  N_14 
REMARK    2  A    between atoms: N_25  and  C_30 
ROOT
HETATM    1  C   UNK N   1      23.109  15.753   4.764  0.00  0.00     0.253 C 
HETATM    2  O   UNK N   1      22.360  16.035   3.837  0.00  0.00    -0.267 OA
HETATM    3  N   UNK N   1      24.461  15.711   4.535  0.00  0.00    -0.348 N 
HETATM    4  C   UNK N   1      25.002  16.281   3.327  0.00  0.00     0.127 C 
HETATM    5  C   UNK N   1      25.688  17.595   3.741  0.00  0.00     0.030 C 
HETATM    6  C   UNK N   1      26.744  17.376   4.845  0.00  0.00    -0.026 C 
HETATM    7  C   UNK N   1      26.181  16.510   5.994  0.00  0.00     0.030 C 
HETATM    8  C   UNK N   1      25.419  15.289   5.524  0.00  0.00     0.127 C 
HETATM    9  C   UNK N   1      28.001  16.734   4.194  0.00  0.00     0.052 C 
HETATM   10  C   UNK N   1      29.176  16.774   5.129  0.00  0.00    -0.009 A 
HETATM   11  C   UNK N   1      30.329  16.017   5.123  0.00  0.00     0.117 A 
HETATM   12  N   UNK N   1      31.046  16.354   6.222  0.00  0.00    -0.308 N 
ATOM     13  HN  UNK N   1      31.949  15.959   6.485  1.00  0.00     0.186 HD
HETATM   14  N   UNK N   1      30.383  17.280   6.900  0.00  0.00    -0.284 N 
HETATM   15  C   UNK N   1      29.245  17.571   6.235  0.00  0.00     0.104 A 
HETATM   16  C   UNK N   1      28.177  18.536   6.544  0.00  0.00     0.178 C 
HETATM   17  O   UNK N   1      28.137  19.149   7.598  0.00  0.00    -0.291 OA
HETATM   18  C   UNK N   1      27.106  18.730   5.491  0.00  0.00     0.095 C 
ENDROOT
BRANCH   1  19
HETATM   19  C   UNK N   1      22.506  15.603   6.128  0.00  0.00     0.034 A 
HETATM   20  C   UNK N   1      22.687  14.384   6.824  0.00  0.00     0.049 A 
HETATM   21  C   UNK N   1      21.969  14.189   7.998  0.00  0.00     0.061 A 
HETATM   22  N   UNK N   1      21.969  13.112   8.797  0.00  0.00    -0.344 N 
HETATM   23  C   UNK N   1      21.100  15.115   8.479  0.00  0.00     0.060 A 
HETATM   24  C   UNK N   1      21.073  13.429   9.765  0.00  0.00     0.078 A 
HETATM   25  H   UNK N   1      22.496  12.287   8.703  0.00  0.00     0.167 HD
HETATM   26  C   UNK N   1      20.722  12.521  10.887  0.00  0.00     0.089 C 
HETATM   27  N   UNK N   1      20.519  14.657   9.596  0.00  0.00    -0.344 N 
ATOM     28  HN  UNK N   1      19.824  15.121  10.182  1.00  0.00     0.167 HD
HETATM   29  C   UNK N   1      20.889  16.330   7.845  0.00  0.00     0.033 A 
HETATM   30  C   UNK N   1      21.600  16.565   6.655  0.00  0.00     0.019 A 
ENDBRANCH   1  19
BRANCH  14  31
HETATM   31  C   UNK N   1      30.865  17.813   8.172  0.00  0.00     0.100 C 
HETATM   32  C   UNK N   1      30.302  17.047   9.353  0.00  0.00     0.034 C 
HETATM   33  C   UNK N   1      32.384  17.826   8.208  0.00  0.00     0.034 C 
ENDBRANCH  14  31
TORSDOF 2
ENDMDL
MODEL 6
REMARK VINA RESULT:      -7.3      4.794      9.507
REMARK  2 active torsions:
REMARK  status: ('A' for Active; 'I' for Inactive)
REMARK    1  A    between atoms: C_6  and  C_12 
REMARK       I    between atoms: C_12  and  N_14 
REMARK    2  A    between atoms: N_25  and  C_30 
ROOT
HETATM    1  C   UNK N   1      24.442  15.034   4.802  0.00  0.00     0.253 C 
HETATM    2  O   UNK N   1      23.472  15.540   4.251  0.00  0.00    -0.267 OA
HETATM    3  N   UNK N   1      25.695  15.504   4.501  0.00  0.00    -0.348 N 
HETATM    4  C   UNK N   1      25.844  16.753   3.800  0.00  0.00     0.127 C 
HETATM    5  C   UNK N   1      26.330  17.776   4.842  0.00  0.00     0.030 C 
HETATM    6  C   UNK N   1      27.618  17.314   5.554  0.00  0.00    -0.026 C 
HETATM    7  C   UNK N   1      27.494  15.852   6.041  0.00  0.00     0.030 C 
HETATM    8  C   UNK N   1      26.906  14.911   5.011  0.00  0.00     0.127 C 
HETATM    9  C   UNK N   1      28.810  17.501   4.574  0.00  0.00     0.052 C 
HETATM   10  C   UNK N   1      30.125  17.368   5.287  0.00  0.00    -0.009 A 
HETATM   11  C   UNK N   1      31.376  17.092   4.777  0.00  0.00     0.117 A 
HETATM   12  N   UNK N   1      32.230  16.979   5.822  0.00  0.00    -0.308 N 
ATOM     13  HN  UNK N   1      33.228  16.780   5.755  1.00  0.00     0.186 HD
HETATM   14  N   UNK N   1      31.557  17.172   6.949  0.00  0.00    -0.284 N 
HETATM   15  C   UNK N   1      30.269  17.436   6.642  0.00  0.00     0.104 A 
HETATM   16  C   UNK N   1      29.122  17.742   7.514  0.00  0.00     0.178 C 
HETATM   17  O   UNK N   1      29.187  17.660   8.729  0.00  0.00    -0.291 OA
HETATM   18  C   UNK N   1      27.836  18.154   6.830  0.00  0.00     0.095 C 
ENDROOT
BRANCH   1  19
HETATM   19  C   UNK N   1      24.184  14.019   5.874  0.00  0.00     0.034 A 
HETATM   20  C   UNK N   1      24.236  14.427   7.228  0.00  0.00     0.049 A 
HETATM   21  C   UNK N   1      24.183  13.444   8.210  0.00  0.00     0.061 A 
HETATM   22  N   UNK N   1      24.239  13.601   9.540  0.00  0.00    -0.344 N 
HETATM   23  C   UNK N   1      24.099  12.122   7.908  0.00  0.00     0.060 A 
HETATM   24  C   UNK N   1      24.188  12.332  10.016  0.00  0.00     0.078 A 
HETATM   25  H   UNK N   1      24.304  14.440  10.050  0.00  0.00     0.167 HD
HETATM   26  C   UNK N   1      24.236  11.997  11.463  0.00  0.00     0.089 C 
HETATM   27  N   UNK N   1      24.102  11.398   9.036  0.00  0.00    -0.344 N 
ATOM     28  HN  UNK N   1      24.051  10.384   9.134  1.00  0.00     0.167 HD
HETATM   29  C   UNK N   1      24.034  11.665   6.601  0.00  0.00     0.033 A 
HETATM   30  C   UNK N   1      24.083  12.630   5.580  0.00  0.00     0.019 A 
ENDBRANCH   1  19
BRANCH  14  31
HETATM   31  C   UNK N   1      32.184  17.058   8.263  0.00  0.00     0.100 C 
HETATM   32  C   UNK N   1      32.393  15.610   8.663  0.00  0.00     0.034 C 
HETATM   33  C   UNK N   1      33.492  17.828   8.303  0.00  0.00     0.034 C 
ENDBRANCH  14  31
TORSDOF 2
ENDMDL
MODEL 7
REMARK VINA RESULT:      -7.2     14.397     17.761
REMARK  2 active torsions:
REMARK  status: ('A' for Active; 'I' for Inactive)
REMARK    1  A    between atoms: C_6  and  C_12 
REMARK       I    between atoms: C_12  and  N_14 
REMARK    2  A    between atoms: N_25  and  C_30 
ROOT
HETATM    1  C   UNK N   1      30.827  23.384  -2.948  0.00  0.00     0.253 C 
HETATM    2  O   UNK N   1      30.805  23.005  -1.783  0.00  0.00    -0.267 OA
HETATM    3  N   UNK N   1      31.572  22.679  -3.860  0.00  0.00    -0.348 N 
HETATM    4  C   UNK N   1      32.058  21.365  -3.526  0.00  0.00     0.127 C 
HETATM    5  C   UNK N   1      31.190  20.371  -4.319  0.00  0.00     0.030 C 
HETATM    6  C   UNK N   1      31.205  20.667  -5.833  0.00  0.00    -0.026 C 
HETATM    7  C   UNK N   1      30.953  22.166  -6.113  0.00  0.00     0.030 C 
HETATM    8  C   UNK N   1      31.752  23.097  -5.226  0.00  0.00     0.127 C 
HETATM    9  C   UNK N   1      32.567  20.188  -6.408  0.00  0.00     0.052 C 
HETATM   10  C   UNK N   1      32.540  20.155  -7.910  0.00  0.00    -0.009 A 
HETATM   11  C   UNK N   1      33.588  20.164  -8.807  0.00  0.00     0.117 A 
HETATM   12  N   UNK N   1      33.060  20.221 -10.053  0.00  0.00    -0.308 N 
ATOM     13  HN  UNK N   1      33.593  20.238 -10.923  1.00  0.00     0.186 HD
HETATM   14  N   UNK N   1      31.738  20.250  -9.958  0.00  0.00    -0.284 N 
HETATM   15  C   UNK N   1      31.397  20.186  -8.654  0.00  0.00     0.104 A 
HETATM   16  C   UNK N   1      30.072  20.163  -8.012  0.00  0.00     0.178 C 
HETATM   17  O   UNK N   1      29.041  20.342  -8.640  0.00  0.00    -0.291 OA
HETATM   18  C   UNK N   1      30.041  19.920  -6.518  0.00  0.00     0.095 C 
ENDROOT
BRANCH   1  19
HETATM   19  C   UNK N   1      29.928  24.521  -3.329  0.00  0.00     0.034 A 
HETATM   20  C   UNK N   1      28.577  24.246  -3.648  0.00  0.00     0.049 A 
HETATM   21  C   UNK N   1      27.809  25.275  -4.180  0.00  0.00     0.061 A 
HETATM   22  N   UNK N   1      26.527  25.232  -4.570  0.00  0.00    -0.344 N 
HETATM   23  C   UNK N   1      28.316  26.513  -4.413  0.00  0.00     0.060 A 
HETATM   24  C   UNK N   1      26.292  26.482  -5.043  0.00  0.00     0.078 A 
HETATM   25  H   UNK N   1      25.904  24.472  -4.525  0.00  0.00     0.167 HD
HETATM   26  C   UNK N   1      24.987  26.913  -5.607  0.00  0.00     0.089 C 
HETATM   27  N   UNK N   1      27.376  27.295  -4.960  0.00  0.00    -0.344 N 
ATOM     28  HN  UNK N   1      27.455  28.271  -5.248  1.00  0.00     0.167 HD
HETATM   29  C   UNK N   1      29.629  26.843  -4.112  0.00  0.00     0.033 A 
HETATM   30  C   UNK N   1      30.437  25.828  -3.569  0.00  0.00     0.019 A 
ENDBRANCH   1  19
BRANCH  14  31
HETATM   31  C   UNK N   1      30.873  20.372 -11.130  0.00  0.00     0.100 C 
HETATM   32  C   UNK N   1      31.560  21.112 -12.261  0.00  0.00     0.034 C 
HETATM   33  C   UNK N   1      30.392  19.006 -11.586  0.00  0.00     0.034 C 
ENDBRANCH  14  31
TORSDOF 2
ENDMDL
MODEL 8
REMARK VINA RESULT:      -7.2      2.283      3.193
REMARK  2 active torsions:
REMARK  status: ('A' for Active; 'I' for Inactive)
REMARK    1  A    between atoms: C_6  and  C_12 
REMARK       I    between atoms: C_12  and  N_14 
REMARK    2  A    between atoms: N_25  and  C_30 
ROOT
HETATM    1  C   UNK N   1      33.625  16.980   6.636  0.00  0.00     0.253 C 
HETATM    2  O   UNK N   1      34.499  17.820   6.457  0.00  0.00    -0.267 OA
HETATM    3  N   UNK N   1      32.538  16.966   5.799  0.00  0.00    -0.348 N 
HETATM    4  C   UNK N   1      32.573  17.709   4.565  0.00  0.00     0.127 C 
HETATM    5  C   UNK N   1      32.738  16.669   3.442  0.00  0.00     0.030 C 
HETATM    6  C   UNK N   1      31.634  15.592   3.480  0.00  0.00    -0.026 C 
HETATM    7  C   UNK N   1      31.451  15.029   4.908  0.00  0.00     0.030 C 
HETATM    8  C   UNK N   1      31.407  16.092   5.984  0.00  0.00     0.127 C 
HETATM    9  C   UNK N   1      30.322  16.220   2.930  0.00  0.00     0.052 C 
HETATM   10  C   UNK N   1      29.293  15.164   2.646  0.00  0.00    -0.009 A 
HETATM   11  C   UNK N   1      27.925  15.283   2.519  0.00  0.00     0.117 A 
HETATM   12  N   UNK N   1      27.417  14.038   2.360  0.00  0.00    -0.308 N 
ATOM     13  HN  UNK N   1      26.430  13.810   2.238  1.00  0.00     0.186 HD
HETATM   14  N   UNK N   1      28.412  13.162   2.387  0.00  0.00    -0.284 N 
HETATM   15  C   UNK N   1      29.574  13.833   2.537  0.00  0.00     0.104 A 
HETATM   16  C   UNK N   1      30.960  13.341   2.605  0.00  0.00     0.178 C 
HETATM   17  O   UNK N   1      31.228  12.152   2.663  0.00  0.00    -0.291 OA
HETATM   18  C   UNK N   1      32.056  14.386   2.614  0.00  0.00     0.095 C 
ENDROOT
BRANCH   1  19
HETATM   19  C   UNK N   1      33.866  15.934   7.681  0.00  0.00     0.034 A 
HETATM   20  C   UNK N   1      34.006  16.337   9.031  0.00  0.00     0.049 A 
HETATM   21  C   UNK N   1      34.415  15.385   9.958  0.00  0.00     0.061 A 
HETATM   22  N   UNK N   1      34.631  15.550  11.271  0.00  0.00    -0.344 N 
HETATM   23  C   UNK N   1      34.695  14.104   9.606  0.00  0.00     0.060 A 
HETATM   24  C   UNK N   1      35.050  14.328  11.684  0.00  0.00     0.078 A 
HETATM   25  H   UNK N   1      34.514  16.367  11.807  0.00  0.00     0.167 HD
HETATM   26  C   UNK N   1      35.428  14.023  13.088  0.00  0.00     0.089 C 
HETATM   27  N   UNK N   1      35.101  13.415  10.681  0.00  0.00    -0.344 N 
ATOM     28  HN  UNK N   1      35.382  12.435  10.735  1.00  0.00     0.167 HD
HETATM   29  C   UNK N   1      34.568  13.650   8.302  0.00  0.00     0.033 A 
HETATM   30  C   UNK N   1      34.153  14.584   7.335  0.00  0.00     0.019 A 
ENDBRANCH   1  19
BRANCH  14  31
HETATM   31  C   UNK N   1      28.188  11.721   2.300  0.00  0.00     0.100 C 
HETATM   32  C   UNK N   1      26.876  11.316   2.945  0.00  0.00     0.034 C 
HETATM   33  C   UNK N   1      28.251  11.253   0.857  0.00  0.00     0.034 C 
ENDBRANCH  14  31
TORSDOF 2
ENDMDL
MODEL 9
REMARK VINA RESULT:      -7.1      6.334     11.666
REMARK  2 active torsions:
REMARK  status: ('A' for Active; 'I' for Inactive)
REMARK    1  A    between atoms: C_6  and  C_12 
REMARK       I    between atoms: C_12  and  N_14 
REMARK    2  A    between atoms: N_25  and  C_30 
ROOT
HETATM    1  C   UNK N   1      23.133  15.242   3.787  0.00  0.00     0.253 C 
HETATM    2  O   UNK N   1      22.634  15.301   2.670  0.00  0.00    -0.267 OA
HETATM    3  N   UNK N   1      24.499  15.183   3.900  0.00  0.00    -0.348 N 
HETATM    4  C   UNK N   1      25.327  15.494   2.763  0.00  0.00     0.127 C 
HETATM    5  C   UNK N   1      25.932  16.883   3.038  0.00  0.00     0.030 C 
HETATM    6  C   UNK N   1      26.690  16.930   4.382  0.00  0.00    -0.026 C 
HETATM    7  C   UNK N   1      25.846  16.316   5.522  0.00  0.00     0.030 C 
HETATM    8  C   UNK N   1      25.183  15.005   5.155  0.00  0.00     0.127 C 
HETATM    9  C   UNK N   1      28.046  16.193   4.201  0.00  0.00     0.052 C 
HETATM   10  C   UNK N   1      28.966  16.461   5.358  0.00  0.00    -0.009 A 
HETATM   11  C   UNK N   1      30.066  15.747   5.788  0.00  0.00     0.117 A 
HETATM   12  N   UNK N   1      30.511  16.328   6.928  0.00  0.00    -0.308 N 
ATOM     13  HN  UNK N   1      31.315  16.020   7.476  1.00  0.00     0.186 HD
HETATM   14  N   UNK N   1      29.732  17.362   7.216  0.00  0.00    -0.284 N 
HETATM   15  C   UNK N   1      28.794  17.477   6.253  0.00  0.00     0.104 A 
HETATM   16  C   UNK N   1      27.711  18.460   6.086  0.00  0.00     0.178 C 
HETATM   17  O   UNK N   1      27.439  19.283   6.945  0.00  0.00    -0.291 OA
HETATM   18  C   UNK N   1      26.927  18.399   4.792  0.00  0.00     0.095 C 
ENDROOT
BRANCH   1  19
HETATM   19  C   UNK N   1      22.219  15.372   4.968  0.00  0.00     0.034 A 
HETATM   20  C   UNK N   1      21.806  16.664   5.372  0.00  0.00     0.049 A 
HETATM   21  C   UNK N   1      21.117  16.783   6.574  0.00  0.00     0.061 A 
HETATM   22  N   UNK N   1      20.656  17.900   7.154  0.00  0.00    -0.344 N 
HETATM   23  C   UNK N   1      20.849  15.712   7.365  0.00  0.00     0.060 A 
HETATM   24  C   UNK N   1      20.108  17.458   8.314  0.00  0.00     0.078 A 
HETATM   25  H   UNK N   1      20.704  18.823   6.818  0.00  0.00     0.167 HD
HETATM   26  C   UNK N   1      19.472  18.354   9.314  0.00  0.00     0.089 C 
HETATM   27  N   UNK N   1      20.211  16.114   8.473  0.00  0.00    -0.344 N 
ATOM     28  HN  UNK N   1      19.882  15.545   9.253  1.00  0.00     0.167 HD
HETATM   29  C   UNK N   1      21.221  14.423   7.016  0.00  0.00     0.033 A 
HETATM   30  C   UNK N   1      21.917  14.262   5.805  0.00  0.00     0.019 A 
ENDBRANCH   1  19
BRANCH  14  31
HETATM   31  C   UNK N   1      29.915  18.165   8.422  0.00  0.00     0.100 C 
HETATM   32  C   UNK N   1      29.070  17.653   9.572  0.00  0.00     0.034 C 
HETATM   33  C   UNK N   1      31.381  18.227   8.810  0.00  0.00     0.034 C 
ENDBRANCH  14  31
TORSDOF 2
ENDMDL
