MODEL 1
REMARK VINA RESULT:      -7.4      0.000      0.000
REMARK  4 active torsions:
REMARK  status: ('A' for Active; 'I' for Inactive)
REMARK    1  A    between atoms: C_4  and  O_5 
REMARK    2  A    between atoms: C_10  and  C_11 
REMARK    3  A    between atoms: C_14  and  N_15 
REMARK    4  A    between atoms: N_15  and  N_16 
ROOT
HETATM    1  N   UNK N   1      32.747  16.575   9.016  0.00  0.00    -0.282 N 
ATOM      2  HN  UNK N   1      32.297  15.676   9.184  1.00  0.00     0.188 HD
HETATM    3  C   UNK N   1      33.992  16.649   8.758  0.00  0.00     0.209 C 
HETATM    4  C   UNK N   1      34.583  17.959   8.507  0.00  0.00     0.130 C 
HETATM    5  N   UNK N   1      34.943  19.046   8.325  0.00  0.00    -0.189 NA
HETATM    6  C   UNK N   1      34.734  15.433   8.698  0.00  0.00     0.130 C 
HETATM    7  N   UNK N   1      35.273  14.413   8.665  0.00  0.00    -0.189 NA
ENDROOT
BRANCH   1   8
HETATM    8  N   UNK N   1      32.041  17.732   9.059  0.00  0.00    -0.299 N 
HETATM    9  H   UNK N   1      32.444  18.521   9.487  0.00  0.00     0.187 HD
BRANCH   8  10
HETATM   10  C   UNK N   1      30.778  17.837   8.523  0.00  0.00     0.048 A 
HETATM   11  C   UNK N   1      30.627  17.365   7.243  0.00  0.00     0.032 A 
HETATM   12  C   UNK N   1      29.433  17.517   6.612  0.00  0.00     0.016 A 
HETATM   13  C   UNK N   1      28.370  18.161   7.243  0.00  0.00    -0.012 A 
HETATM   14  C   UNK N   1      28.496  18.587   8.575  0.00  0.00     0.016 A 
HETATM   15  C   UNK N   1      29.711  18.410   9.231  0.00  0.00     0.032 A 
BRANCH  13  16
HETATM   16  C   UNK N   1      27.228  18.477   6.393  0.00  0.00     0.040 C 
HETATM   17  N   UNK N   1      26.461  17.490   6.074  0.00  0.00    -0.302 N 
HETATM   18  N   UNK N   1      25.394  17.592   5.219  0.00  0.00    -0.283 N 
ATOM     19  HN  UNK N   1      26.660  16.578   6.484  1.00  0.00     0.186 HD
HETATM   20  C   UNK N   1      25.016  18.703   4.693  0.00  0.00     0.130 C 
ATOM     21  HN  UNK N   1      24.872  16.746   4.990  1.00  0.00     0.188 HD
HETATM   22  C   UNK N   1      25.726  20.005   4.968  0.00  0.00     0.096 C 
HETATM   23  C   UNK N   1      27.002  19.825   5.769  0.00  0.00     0.041 C 
HETATM   24  C   UNK N   1      27.778  21.071   6.167  0.00  0.00     0.017 C 
BRANCH  20  25
HETATM   25  O   UNK N   1      23.942  18.703   3.891  0.00  0.00    -0.348 OA
HETATM   26  H   UNK N   1      23.981  19.121   3.054  0.00  0.00     0.219 HD
ENDBRANCH  20  25
ENDBRANCH  13  16
ENDBRANCH   8  10
ENDBRANCH   1   8
TORSDOF 4
ENDMDL
MODEL 2
REMARK VINA RESULT:      -7.1      1.730      2.621
REMARK  4 active torsions:
REMARK  status: ('A' for Active; 'I' for Inactive)
REMARK    1  A    between atoms: C_4  and  O_5 
REMARK    2  A    between atoms: C_10  and  C_11 
REMARK    3  A    between atoms: C_14  and  N_15 
REMARK    4  A    between atoms: N_15  and  N_16 
ROOT
HETATM    1  N   UNK N   1      32.173  17.935   8.592  0.00  0.00    -0.282 N 
ATOM      2  HN  UNK N   1      32.072  18.842   9.048  1.00  0.00     0.188 HD
HETATM    3  C   UNK N   1      33.302  17.540   8.157  0.00  0.00     0.209 C 
HETATM    4  C   UNK N   1      33.396  16.227   7.529  0.00  0.00     0.130 C 
HETATM    5  N   UNK N   1      33.353  15.172   7.050  0.00  0.00    -0.189 NA
HETATM    6  C   UNK N   1      34.425  18.401   8.338  0.00  0.00     0.130 C 
HETATM    7  N   UNK N   1      35.289  19.145   8.518  0.00  0.00    -0.189 NA
ENDROOT
BRANCH   1   8
HETATM    8  N   UNK N   1      31.110  17.109   8.430  0.00  0.00    -0.299 N 
HETATM    9  H   UNK N   1      31.124  16.224   8.859  0.00  0.00     0.187 HD
BRANCH   8  10
HETATM   10  C   UNK N   1      30.011  17.471   7.685  0.00  0.00     0.048 A 
HETATM   11  C   UNK N   1      29.982  17.006   6.393  0.00  0.00     0.032 A 
HETATM   12  C   UNK N   1      28.975  17.395   5.566  0.00  0.00     0.016 A 
HETATM   13  C   UNK N   1      27.987  18.272   6.011  0.00  0.00    -0.012 A 
HETATM   14  C   UNK N   1      27.973  18.698   7.348  0.00  0.00     0.016 A 
HETATM   15  C   UNK N   1      28.990  18.280   8.203  0.00  0.00     0.032 A 
BRANCH  13  16
HETATM   16  C   UNK N   1      27.104  18.804   4.979  0.00  0.00     0.040 C 
HETATM   17  N   UNK N   1      27.485  19.898   4.409  0.00  0.00    -0.302 N 
HETATM   18  N   UNK N   1      26.740  20.578   3.480  0.00  0.00    -0.283 N 
ATOM     19  HN  UNK N   1      28.395  20.280   4.666  1.00  0.00     0.186 HD
HETATM   20  C   UNK N   1      25.608  20.158   3.040  0.00  0.00     0.130 C 
ATOM     21  HN  UNK N   1      27.103  21.460   3.118  1.00  0.00     0.188 HD
HETATM   22  C   UNK N   1      24.988  18.869   3.517  0.00  0.00     0.096 C 
HETATM   23  C   UNK N   1      25.748  18.239   4.670  0.00  0.00     0.041 C 
HETATM   24  C   UNK N   1      25.260  16.900   5.201  0.00  0.00     0.017 C 
BRANCH  20  25
HETATM   25  O   UNK N   1      24.970  20.882   2.109  0.00  0.00    -0.348 OA
HETATM   26  H   UNK N   1      25.454  21.292   1.420  0.00  0.00     0.219 HD
ENDBRANCH  20  25
ENDBRANCH  13  16
ENDBRANCH   8  10
ENDBRANCH   1   8
TORSDOF 4
ENDMDL
MODEL 3
REMARK VINA RESULT:      -6.9      3.495      7.970
REMARK  4 active torsions:
REMARK  status: ('A' for Active; 'I' for Inactive)
REMARK    1  A    between atoms: C_4  and  O_5 
REMARK    2  A    between atoms: C_10  and  C_11 
REMARK    3  A    between atoms: C_14  and  N_15 
REMARK    4  A    between atoms: N_15  and  N_16 
ROOT
HETATM    1  N   UNK N   1      26.837  18.715   6.009  0.00  0.00    -0.282 N 
ATOM      2  HN  UNK N   1      26.623  17.773   5.681  1.00  0.00     0.188 HD
HETATM    3  C   UNK N   1      26.528  19.738   5.317  0.00  0.00     0.209 C 
HETATM    4  C   UNK N   1      26.841  21.064   5.841  0.00  0.00     0.130 C 
HETATM    5  N   UNK N   1      27.135  22.062   6.352  0.00  0.00    -0.189 NA
HETATM    6  C   UNK N   1      25.860  19.527   4.075  0.00  0.00     0.130 C 
HETATM    7  N   UNK N   1      25.322  19.284   3.083  0.00  0.00    -0.189 NA
ENDROOT
BRANCH   1   8
HETATM    8  N   UNK N   1      27.460  18.920   7.196  0.00  0.00    -0.299 N 
HETATM    9  H   UNK N   1      27.139  19.639   7.785  0.00  0.00     0.187 HD
BRANCH   8  10
HETATM   10  C   UNK N   1      28.527  18.152   7.603  0.00  0.00     0.048 A 
HETATM   11  C   UNK N   1      28.894  18.282   8.919  0.00  0.00     0.032 A 
HETATM   12  C   UNK N   1      29.994  17.625   9.373  0.00  0.00     0.016 A 
HETATM   13  C   UNK N   1      30.760  16.839   8.514  0.00  0.00    -0.012 A 
HETATM   14  C   UNK N   1      30.354  16.648   7.184  0.00  0.00     0.016 A 
HETATM   15  C   UNK N   1      29.213  17.301   6.724  0.00  0.00     0.032 A 
BRANCH  13  16
HETATM   16  C   UNK N   1      32.039  16.383   9.047  0.00  0.00     0.040 C 
HETATM   17  N   UNK N   1      31.994  15.390   9.870  0.00  0.00    -0.302 N 
HETATM   18  N   UNK N   1      33.088  14.887  10.527  0.00  0.00    -0.283 N 
ATOM     19  HN  UNK N   1      31.089  14.951  10.042  1.00  0.00     0.186 HD
HETATM   20  C   UNK N   1      34.283  15.324  10.341  0.00  0.00     0.130 C 
ATOM     21  HN  UNK N   1      32.948  14.129  11.195  1.00  0.00     0.188 HD
HETATM   22  C   UNK N   1      34.589  16.443   9.378  0.00  0.00     0.096 C 
HETATM   23  C   UNK N   1      33.341  17.091   8.808  0.00  0.00     0.041 C 
HETATM   24  C   UNK N   1      33.516  18.193   7.774  0.00  0.00     0.017 C 
BRANCH  20  25
HETATM   25  O   UNK N   1      35.290  14.746  11.011  0.00  0.00    -0.348 OA
HETATM   26  H   UNK N   1      35.378  14.880  11.934  0.00  0.00     0.219 HD
ENDBRANCH  20  25
ENDBRANCH  13  16
ENDBRANCH   8  10
ENDBRANCH   1   8
TORSDOF 4
ENDMDL
MODEL 4
REMARK VINA RESULT:      -6.8      4.467      8.378
REMARK  4 active torsions:
REMARK  status: ('A' for Active; 'I' for Inactive)
REMARK    1  A    between atoms: C_4  and  O_5 
REMARK    2  A    between atoms: C_10  and  C_11 
REMARK    3  A    between atoms: C_14  and  N_15 
REMARK    4  A    between atoms: N_15  and  N_16 
ROOT
HETATM    1  N   UNK N   1      30.606  16.498   3.130  0.00  0.00    -0.282 N 
ATOM      2  HN  UNK N   1      31.306  15.893   2.703  1.00  0.00     0.188 HD
HETATM    3  C   UNK N   1      29.362  16.276   2.974  0.00  0.00     0.209 C 
HETATM    4  C   UNK N   1      28.401  17.162   3.623  0.00  0.00     0.130 C 
HETATM    5  N   UNK N   1      27.731  17.926   4.181  0.00  0.00    -0.189 NA
HETATM    6  C   UNK N   1      28.979  15.147   2.192  0.00  0.00     0.130 C 
HETATM    7  N   UNK N   1      28.740  14.218   1.550  0.00  0.00    -0.189 NA
ENDROOT
BRANCH   1   8
HETATM    8  N   UNK N   1      30.967  17.565   3.885  0.00  0.00    -0.299 N 
HETATM    9  H   UNK N   1      30.751  18.470   3.566  0.00  0.00     0.187 HD
BRANCH   8  10
HETATM   10  C   UNK N   1      31.626  17.421   5.084  0.00  0.00     0.048 A 
HETATM   11  C   UNK N   1      32.985  17.615   5.051  0.00  0.00     0.032 A 
HETATM   12  C   UNK N   1      33.718  17.402   6.175  0.00  0.00     0.016 A 
HETATM   13  C   UNK N   1      33.108  16.973   7.353  0.00  0.00    -0.012 A 
HETATM   14  C   UNK N   1      31.712  16.837   7.414  0.00  0.00     0.016 A 
HETATM   15  C   UNK N   1      30.957  17.079   6.268  0.00  0.00     0.032 A 
BRANCH  13  16
HETATM   16  C   UNK N   1      34.013  16.549   8.415  0.00  0.00     0.040 C 
HETATM   17  N   UNK N   1      34.169  17.372   9.396  0.00  0.00    -0.302 N 
HETATM   18  N   UNK N   1      35.041  17.171  10.435  0.00  0.00    -0.283 N 
ATOM     19  HN  UNK N   1      33.609  18.225   9.399  1.00  0.00     0.186 HD
HETATM   20  C   UNK N   1      35.752  16.108  10.563  0.00  0.00     0.130 C 
ATOM     21  HN  UNK N   1      35.131  17.901  11.142  1.00  0.00     0.188 HD
HETATM   22  C   UNK N   1      35.692  14.977   9.567  0.00  0.00     0.096 C 
HETATM   23  C   UNK N   1      34.857  15.309   8.344  0.00  0.00     0.041 C 
HETATM   24  C   UNK N   1      34.665  14.226   7.294  0.00  0.00     0.017 C 
BRANCH  20  25
HETATM   25  O   UNK N   1      36.554  15.994  11.630  0.00  0.00    -0.348 OA
HETATM   26  H   UNK N   1      36.187  15.919  12.489  0.00  0.00     0.219 HD
ENDBRANCH  20  25
ENDBRANCH  13  16
ENDBRANCH   8  10
ENDBRANCH   1   8
TORSDOF 4
ENDMDL
MODEL 5
REMARK VINA RESULT:      -6.7     11.117     14.419
REMARK  4 active torsions:
REMARK  status: ('A' for Active; 'I' for Inactive)
REMARK    1  A    between atoms: C_4  and  O_5 
REMARK    2  A    between atoms: C_10  and  C_11 
REMARK    3  A    between atoms: C_14  and  N_15 
REMARK    4  A    between atoms: N_15  and  N_16 
ROOT
HETATM    1  N   UNK N   1      35.609   9.781  21.079  0.00  0.00    -0.282 N 
ATOM      2  HN  UNK N   1      36.398   9.219  20.761  1.00  0.00     0.188 HD
HETATM    3  C   UNK N   1      34.649   9.257  21.731  0.00  0.00     0.209 C 
HETATM    4  C   UNK N   1      33.553  10.110  22.179  0.00  0.00     0.130 C 
HETATM    5  N   UNK N   1      32.740  10.878  22.483  0.00  0.00    -0.189 NA
HETATM    6  C   UNK N   1      34.718   7.861  22.013  0.00  0.00     0.130 C 
HETATM    7  N   UNK N   1      34.839   6.730  22.208  0.00  0.00    -0.189 NA
ENDROOT
BRANCH   1   8
HETATM    8  N   UNK N   1      35.547  11.111  20.823  0.00  0.00    -0.299 N 
HETATM    9  H   UNK N   1      35.587  11.744  21.575  0.00  0.00     0.187 HD
BRANCH   8  10
HETATM   10  C   UNK N   1      35.431  11.604  19.544  0.00  0.00     0.048 A 
HETATM   11  C   UNK N   1      35.707  10.720  18.531  0.00  0.00     0.032 A 
HETATM   12  C   UNK N   1      35.703  11.156  17.244  0.00  0.00     0.016 A 
HETATM   13  C   UNK N   1      35.440  12.492  16.945  0.00  0.00    -0.012 A 
HETATM   14  C   UNK N   1      35.092  13.387  17.969  0.00  0.00     0.016 A 
HETATM   15  C   UNK N   1      35.071  12.935  19.286  0.00  0.00     0.032 A 
BRANCH  13  16
HETATM   16  C   UNK N   1      35.698  12.894  15.567  0.00  0.00     0.040 C 
HETATM   17  N   UNK N   1      36.604  13.797  15.394  0.00  0.00    -0.302 N 
HETATM   18  N   UNK N   1      36.915  14.349  14.178  0.00  0.00    -0.283 N 
ATOM     19  HN  UNK N   1      37.119  14.120  16.213  1.00  0.00     0.186 HD
HETATM   20  C   UNK N   1      36.371  13.975  13.075  0.00  0.00     0.130 C 
ATOM     21  HN  UNK N   1      37.613  15.092  14.146  1.00  0.00     0.188 HD
HETATM   22  C   UNK N   1      35.326  12.889  13.021  0.00  0.00     0.096 C 
HETATM   23  C   UNK N   1      34.879  12.430  14.397  0.00  0.00     0.041 C 
HETATM   24  C   UNK N   1      33.873  11.292  14.479  0.00  0.00     0.017 C 
BRANCH  20  25
HETATM   25  O   UNK N   1      36.765  14.557  11.933  0.00  0.00    -0.348 OA
HETATM   26  H   UNK N   1      37.345  14.106  11.352  0.00  0.00     0.219 HD
ENDBRANCH  20  25
ENDBRANCH  13  16
ENDBRANCH   8  10
ENDBRANCH   1   8
TORSDOF 4
ENDMDL
MODEL 6
REMARK VINA RESULT:      -6.7      4.018      9.874
REMARK  4 active torsions:
REMARK  status: ('A' for Active; 'I' for Inactive)
REMARK    1  A    between atoms: C_4  and  O_5 
REMARK    2  A    between atoms: C_10  and  C_11 
REMARK    3  A    between atoms: C_14  and  N_15 
REMARK    4  A    between atoms: N_15  and  N_16 
ROOT
HETATM    1  N   UNK N   1      21.704  19.568   3.141  0.00  0.00    -0.282 N 
ATOM      2  HN  UNK N   1      21.567  19.062   4.016  1.00  0.00     0.188 HD
HETATM    3  C   UNK N   1      20.790  19.607   2.254  0.00  0.00     0.209 C 
HETATM    4  C   UNK N   1      21.030  20.360   1.028  0.00  0.00     0.130 C 
HETATM    5  N   UNK N   1      21.328  20.985   0.098  0.00  0.00    -0.189 NA
HETATM    6  C   UNK N   1      19.565  18.932   2.529  0.00  0.00     0.130 C 
HETATM    7  N   UNK N   1      18.601  18.365   2.816  0.00  0.00    -0.189 NA
ENDROOT
BRANCH   1   8
HETATM    8  N   UNK N   1      22.863  20.222   2.883  0.00  0.00    -0.299 N 
HETATM    9  H   UNK N   1      22.841  21.026   2.316  0.00  0.00     0.187 HD
BRANCH   8  10
HETATM   10  C   UNK N   1      24.070  19.797   3.388  0.00  0.00     0.048 A 
HETATM   11  C   UNK N   1      24.038  18.640   4.128  0.00  0.00     0.032 A 
HETATM   12  C   UNK N   1      25.173  18.206   4.736  0.00  0.00     0.016 A 
HETATM   13  C   UNK N   1      26.360  18.930   4.632  0.00  0.00    -0.012 A 
HETATM   14  C   UNK N   1      26.416  20.077   3.824  0.00  0.00     0.016 A 
HETATM   15  C   UNK N   1      25.260  20.509   3.180  0.00  0.00     0.032 A 
BRANCH  13  16
HETATM   16  C   UNK N   1      27.440  18.503   5.514  0.00  0.00     0.040 C 
HETATM   17  N   UNK N   1      27.407  18.960   6.721  0.00  0.00    -0.302 N 
HETATM   18  N   UNK N   1      28.383  18.728   7.656  0.00  0.00    -0.283 N 
ATOM     19  HN  UNK N   1      26.606  19.528   6.996  1.00  0.00     0.186 HD
HETATM   20  C   UNK N   1      29.405  17.979   7.437  0.00  0.00     0.130 C 
ATOM     21  HN  UNK N   1      28.294  19.170   8.571  1.00  0.00     0.188 HD
HETATM   22  C   UNK N   1      29.625  17.287   6.115  0.00  0.00     0.096 C 
HETATM   23  C   UNK N   1      28.627  17.708   5.053  0.00  0.00     0.041 C 
HETATM   24  C   UNK N   1      28.704  17.033   3.692  0.00  0.00     0.017 C 
BRANCH  20  25
HETATM   25  O   UNK N   1      30.289  17.791   8.427  0.00  0.00    -0.348 OA
HETATM   26  H   UNK N   1      30.108  18.117   9.286  0.00  0.00     0.219 HD
ENDBRANCH  20  25
ENDBRANCH  13  16
ENDBRANCH   8  10
ENDBRANCH   1   8
TORSDOF 4
ENDMDL
MODEL 7
REMARK VINA RESULT:      -6.7      8.485     12.644
REMARK  4 active torsions:
REMARK  status: ('A' for Active; 'I' for Inactive)
REMARK    1  A    between atoms: C_4  and  O_5 
REMARK    2  A    between atoms: C_10  and  C_11 
REMARK    3  A    between atoms: C_14  and  N_15 
REMARK    4  A    between atoms: N_15  and  N_16 
ROOT
HETATM    1  N   UNK N   1      34.495  14.115  11.184  0.00  0.00    -0.282 N 
ATOM      2  HN  UNK N   1      34.054  13.202  11.290  1.00  0.00     0.188 HD
HETATM    3  C   UNK N   1      34.171  14.895  10.231  0.00  0.00     0.209 C 
HETATM    4  C   UNK N   1      34.820  16.198  10.135  0.00  0.00     0.130 C 
HETATM    5  N   UNK N   1      35.397  17.203  10.157  0.00  0.00    -0.189 NA
HETATM    6  C   UNK N   1      33.162  14.457   9.324  0.00  0.00     0.130 C 
HETATM    7  N   UNK N   1      32.340  14.040   8.629  0.00  0.00    -0.189 NA
ENDROOT
BRANCH   1   8
HETATM    8  N   UNK N   1      35.445  14.540  12.052  0.00  0.00    -0.299 N 
HETATM    9  H   UNK N   1      36.005  15.311  11.807  0.00  0.00     0.187 HD
BRANCH   8  10
HETATM   10  C   UNK N   1      35.652  13.926  13.266  0.00  0.00     0.048 A 
HETATM   11  C   UNK N   1      34.885  12.816  13.517  0.00  0.00     0.032 A 
HETATM   12  C   UNK N   1      34.966  12.209  14.731  0.00  0.00     0.016 A 
HETATM   13  C   UNK N   1      35.803  12.713  15.725  0.00  0.00    -0.012 A 
HETATM   14  C   UNK N   1      36.639  13.807  15.454  0.00  0.00     0.016 A 
HETATM   15  C   UNK N   1      36.575  14.415  14.203  0.00  0.00     0.032 A 
BRANCH  13  16
HETATM   16  C   UNK N   1      35.629  12.131  17.051  0.00  0.00     0.040 C 
HETATM   17  N   UNK N   1      35.152  12.912  17.961  0.00  0.00    -0.302 N 
HETATM   18  N   UNK N   1      35.001  12.557  19.276  0.00  0.00    -0.283 N 
ATOM     19  HN  UNK N   1      34.870  13.853  17.684  1.00  0.00     0.186 HD
HETATM   20  C   UNK N   1      35.269  11.381  19.723  0.00  0.00     0.130 C 
ATOM     21  HN  UNK N   1      34.659  13.258  19.933  1.00  0.00     0.188 HD
HETATM   22  C   UNK N   1      35.783  10.280  18.831  0.00  0.00     0.096 C 
HETATM   23  C   UNK N   1      36.107  10.758  17.428  0.00  0.00     0.041 C 
HETATM   24  C   UNK N   1      36.575   9.728  16.412  0.00  0.00     0.017 C 
BRANCH  20  25
HETATM   25  O   UNK N   1      35.060  11.124  21.022  0.00  0.00    -0.348 OA
HETATM   26  H   UNK N   1      34.790  11.811  21.600  0.00  0.00     0.219 HD
ENDBRANCH  20  25
ENDBRANCH  13  16
ENDBRANCH   8  10
ENDBRANCH   1   8
TORSDOF 4
ENDMDL
MODEL 8
REMARK VINA RESULT:      -6.7      9.054     12.960
REMARK  4 active torsions:
REMARK  status: ('A' for Active; 'I' for Inactive)
REMARK    1  A    between atoms: C_4  and  O_5 
REMARK    2  A    between atoms: C_10  and  C_11 
REMARK    3  A    between atoms: C_14  and  N_15 
REMARK    4  A    between atoms: N_15  and  N_16 
ROOT
HETATM    1  N   UNK N   1      35.111  14.099  11.645  0.00  0.00    -0.282 N 
ATOM      2  HN  UNK N   1      34.248  14.563  11.930  1.00  0.00     0.188 HD
HETATM    3  C   UNK N   1      36.001  14.720  10.978  0.00  0.00     0.209 C 
HETATM    4  C   UNK N   1      37.225  14.016  10.610  0.00  0.00     0.130 C 
HETATM    5  N   UNK N   1      38.152  13.362  10.373  0.00  0.00    -0.189 NA
HETATM    6  C   UNK N   1      35.759  16.087  10.654  0.00  0.00     0.130 C 
HETATM    7  N   UNK N   1      35.499  17.189  10.427  0.00  0.00    -0.189 NA
ENDROOT
BRANCH   1   8
HETATM    8  N   UNK N   1      35.350  12.803  11.962  0.00  0.00    -0.299 N 
HETATM    9  H   UNK N   1      35.421  12.140  11.239  0.00  0.00     0.187 HD
BRANCH   8  10
HETATM   10  C   UNK N   1      35.496  12.386  13.265  0.00  0.00     0.048 A 
HETATM   11  C   UNK N   1      34.352  11.959  13.892  0.00  0.00     0.032 A 
HETATM   12  C   UNK N   1      34.399  11.617  15.207  0.00  0.00     0.016 A 
HETATM   13  C   UNK N   1      35.589  11.713  15.926  0.00  0.00    -0.012 A 
HETATM   14  C   UNK N   1      36.776  12.085  15.276  0.00  0.00     0.016 A 
HETATM   15  C   UNK N   1      36.734  12.411  13.923  0.00  0.00     0.032 A 
BRANCH  13  16
HETATM   16  C   UNK N   1      35.468  11.554  17.371  0.00  0.00     0.040 C 
HETATM   17  N   UNK N   1      35.445  10.341  17.813  0.00  0.00    -0.302 N 
HETATM   18  N   UNK N   1      35.255  10.008  19.129  0.00  0.00    -0.283 N 
ATOM     19  HN  UNK N   1      35.576   9.585  17.141  1.00  0.00     0.186 HD
HETATM   20  C   UNK N   1      35.138  10.879  20.067  0.00  0.00     0.130 C 
ATOM     21  HN  UNK N   1      35.205   9.020  19.377  1.00  0.00     0.188 HD
HETATM   22  C   UNK N   1      35.195  12.362  19.798  0.00  0.00     0.096 C 
HETATM   23  C   UNK N   1      35.225  12.694  18.317  0.00  0.00     0.041 C 
HETATM   24  C   UNK N   1      35.347  14.155  17.914  0.00  0.00     0.017 C 
BRANCH  20  25
HETATM   25  O   UNK N   1      34.984  10.451  21.328  0.00  0.00    -0.348 OA
HETATM   26  H   UNK N   1      35.733  10.212  21.837  0.00  0.00     0.219 HD
ENDBRANCH  20  25
ENDBRANCH  13  16
ENDBRANCH   8  10
ENDBRANCH   1   8
TORSDOF 4
ENDMDL
MODEL 9
REMARK VINA RESULT:      -6.7      4.674      7.115
REMARK  4 active torsions:
REMARK  status: ('A' for Active; 'I' for Inactive)
REMARK    1  A    between atoms: C_4  and  O_5 
REMARK    2  A    between atoms: C_10  and  C_11 
REMARK    3  A    between atoms: C_14  and  N_15 
REMARK    4  A    between atoms: N_15  and  N_16 
ROOT
HETATM    1  N   UNK N   1      36.734  14.584  13.167  0.00  0.00    -0.282 N 
ATOM      2  HN  UNK N   1      37.462  15.273  12.980  1.00  0.00     0.188 HD
HETATM    3  C   UNK N   1      36.406  14.283  14.360  0.00  0.00     0.209 C 
HETATM    4  C   UNK N   1      35.345  13.305  14.574  0.00  0.00     0.130 C 
HETATM    5  N   UNK N   1      34.494  12.520  14.625  0.00  0.00    -0.189 NA
HETATM    6  C   UNK N   1      37.079  14.949  15.426  0.00  0.00     0.130 C 
HETATM    7  N   UNK N   1      37.663  15.526  16.238  0.00  0.00    -0.189 NA
ENDROOT
BRANCH   1   8
HETATM    8  N   UNK N   1      36.083  13.959  12.156  0.00  0.00    -0.299 N 
HETATM    9  H   UNK N   1      36.110  12.976  12.107  0.00  0.00     0.187 HD
BRANCH   8  10
HETATM   10  C   UNK N   1      35.384  14.654  11.197  0.00  0.00     0.048 A 
HETATM   11  C   UNK N   1      34.549  13.909  10.402  0.00  0.00     0.032 A 
HETATM   12  C   UNK N   1      33.894  14.510   9.373  0.00  0.00     0.016 A 
HETATM   13  C   UNK N   1      34.077  15.866   9.107  0.00  0.00    -0.012 A 
HETATM   14  C   UNK N   1      34.878  16.648   9.955  0.00  0.00     0.016 A 
HETATM   15  C   UNK N   1      35.529  16.039  11.024  0.00  0.00     0.032 A 
BRANCH  13  16
HETATM   16  C   UNK N   1      33.519  16.343   7.847  0.00  0.00     0.040 C 
HETATM   17  N   UNK N   1      34.340  16.431   6.855  0.00  0.00    -0.302 N 
HETATM   18  N   UNK N   1      34.005  16.936   5.625  0.00  0.00    -0.283 N 
ATOM     19  HN  UNK N   1      35.296  16.105   6.995  1.00  0.00     0.186 HD
HETATM   20  C   UNK N   1      32.817  17.320   5.320  0.00  0.00     0.130 C 
ATOM     21  HN  UNK N   1      34.735  17.010   4.915  1.00  0.00     0.188 HD
HETATM   22  C   UNK N   1      31.675  17.254   6.303  0.00  0.00     0.096 C 
HETATM   23  C   UNK N   1      32.118  16.862   7.700  0.00  0.00     0.041 C 
HETATM   24  C   UNK N   1      31.049  16.699   8.770  0.00  0.00     0.017 C 
BRANCH  20  25
HETATM   25  O   UNK N   1      32.585  17.773   4.080  0.00  0.00    -0.348 OA
HETATM   26  H   UNK N   1      32.579  17.178   3.356  0.00  0.00     0.219 HD
ENDBRANCH  20  25
ENDBRANCH  13  16
ENDBRANCH   8  10
ENDBRANCH   1   8
TORSDOF 4
ENDMDL
