MODEL 1
REMARK VINA RESULT:      -6.5      0.000      0.000
REMARK  2 active torsions:
REMARK  status: ('A' for Active; 'I' for Inactive)
REMARK    1  A    between atoms: C_6  and  C_9 
REMARK    2  A    between atoms: C_9  and  C_11 
ROOT
HETATM    1  C   UNK N   1      34.986  11.417  15.118  0.00  0.00     0.066 C 
HETATM    2  C   UNK N   1      33.650  10.865  14.640  0.00  0.00     0.021 C 
ENDROOT
BRANCH   1   3
HETATM    3  C   UNK N   1      35.082  11.821  16.600  0.00  0.00    -0.042 A 
HETATM    4  C   UNK N   1      35.006  13.194  16.893  0.00  0.00     0.008 A 
HETATM    5  C   UNK N   1      35.108  13.671  18.197  0.00  0.00     0.001 A 
HETATM    6  C   UNK N   1      35.321  12.786  19.246  0.00  0.00     0.007 A 
HETATM    7  C   UNK N   1      35.435  11.418  19.000  0.00  0.00    -0.056 A 
HETATM    8  C   UNK N   1      35.701  10.513  20.158  0.00  0.00     0.049 C 
HETATM    9  C   UNK N   1      35.316  10.916  17.684  0.00  0.00    -0.049 A 
HETATM   10  C   UNK N   1      35.475   9.441  17.475  0.00  0.00     0.049 C 
ENDBRANCH   1   3
BRANCH   1  11
HETATM   11  C   UNK N   1      35.500  12.414  14.103  0.00  0.00     0.035 A 
HETATM   12  C   UNK N   1      36.801  12.855  13.929  0.00  0.00     0.116 A 
HETATM   13  N   UNK N   1      36.817  13.705  12.883  0.00  0.00    -0.341 N 
HETATM   14  C   UNK N   1      35.542  13.759  12.459  0.00  0.00     0.176 A 
HETATM   15  H   UNK N   1      37.593  14.183  12.511  0.00  0.00     0.167 HD
HETATM   16  S   UNK N   1      35.115  14.554  11.345  0.00  0.00    -0.041 SA
HETATM   17  N   UNK N   1      34.709  12.986  13.176  0.00  0.00    -0.335 N 
HETATM   18  H   UNK N   1      33.740  12.865  13.051  0.00  0.00     0.168 HD
ENDBRANCH   1  11
TORSDOF 2
ENDMDL
MODEL 2
REMARK VINA RESULT:      -6.5      1.854      3.258
REMARK  2 active torsions:
REMARK  status: ('A' for Active; 'I' for Inactive)
REMARK    1  A    between atoms: C_6  and  C_9 
REMARK    2  A    between atoms: C_9  and  C_11 
ROOT
HETATM    1  C   UNK N   1      36.928  13.124  14.263  0.00  0.00     0.066 C 
HETATM    2  C   UNK N   1      37.320  11.687  13.948  0.00  0.00     0.021 C 
ENDROOT
BRANCH   1   3
HETATM    3  C   UNK N   1      36.389  13.405  15.677  0.00  0.00    -0.042 A 
HETATM    4  C   UNK N   1      35.590  12.409  16.266  0.00  0.00     0.008 A 
HETATM    5  C   UNK N   1      35.032  12.572  17.530  0.00  0.00     0.001 A 
HETATM    6  C   UNK N   1      35.231  13.755  18.231  0.00  0.00     0.007 A 
HETATM    7  C   UNK N   1      35.989  14.783  17.674  0.00  0.00    -0.056 A 
HETATM    8  C   UNK N   1      36.143  16.048  18.453  0.00  0.00     0.049 C 
HETATM    9  C   UNK N   1      36.579  14.627  16.398  0.00  0.00    -0.049 A 
HETATM   10  C   UNK N   1      37.360  15.775  15.837  0.00  0.00     0.049 C 
ENDBRANCH   1   3
BRANCH   1  11
HETATM   11  C   UNK N   1      36.130  13.682  13.105  0.00  0.00     0.035 A 
HETATM   12  C   UNK N   1      35.049  13.103  12.459  0.00  0.00     0.116 A 
HETATM   13  N   UNK N   1      34.615  13.965  11.518  0.00  0.00    -0.341 N 
HETATM   14  C   UNK N   1      35.434  15.028  11.614  0.00  0.00     0.176 A 
HETATM   15  H   UNK N   1      33.863  13.843  10.895  0.00  0.00     0.167 HD
HETATM   16  S   UNK N   1      35.315  16.191  10.786  0.00  0.00    -0.041 SA
HETATM   17  N   UNK N   1      36.370  14.894  12.569  0.00  0.00    -0.335 N 
HETATM   18  H   UNK N   1      37.072  15.537  12.821  0.00  0.00     0.168 HD
ENDBRANCH   1  11
TORSDOF 2
ENDMDL
MODEL 3
REMARK VINA RESULT:      -6.2      7.046     10.560
REMARK  2 active torsions:
REMARK  status: ('A' for Active; 'I' for Inactive)
REMARK    1  A    between atoms: C_6  and  C_9 
REMARK    2  A    between atoms: C_9  and  C_11 
ROOT
HETATM    1  C   UNK N   1      32.397  17.094   7.974  0.00  0.00     0.066 C 
HETATM    2  C   UNK N   1      33.392  18.246   8.006  0.00  0.00     0.021 C 
ENDROOT
BRANCH   1   3
HETATM    3  C   UNK N   1      30.905  17.459   8.072  0.00  0.00    -0.042 A 
HETATM    4  C   UNK N   1      30.518  18.283   9.144  0.00  0.00     0.008 A 
HETATM    5  C   UNK N   1      29.191  18.652   9.341  0.00  0.00     0.001 A 
HETATM    6  C   UNK N   1      28.204  18.180   8.485  0.00  0.00     0.007 A 
HETATM    7  C   UNK N   1      28.535  17.335   7.427  0.00  0.00    -0.056 A 
HETATM    8  C   UNK N   1      27.432  16.826   6.558  0.00  0.00     0.049 C 
HETATM    9  C   UNK N   1      29.881  16.965   7.202  0.00  0.00    -0.049 A 
HETATM   10  C   UNK N   1      30.176  16.032   6.068  0.00  0.00     0.049 C 
ENDBRANCH   1   3
BRANCH   1  11
HETATM   11  C   UNK N   1      32.890  15.990   8.884  0.00  0.00     0.035 A 
HETATM   12  C   UNK N   1      32.534  14.651   8.866  0.00  0.00     0.116 A 
HETATM   13  N   UNK N   1      33.247  14.017   9.818  0.00  0.00    -0.341 N 
HETATM   14  C   UNK N   1      34.005  14.976  10.382  0.00  0.00     0.176 A 
HETATM   15  H   UNK N   1      33.220  13.061  10.051  0.00  0.00     0.167 HD
HETATM   16  S   UNK N   1      34.928  14.724  11.449  0.00  0.00    -0.041 SA
HETATM   17  N   UNK N   1      33.816  16.191   9.840  0.00  0.00    -0.335 N 
HETATM   18  H   UNK N   1      34.257  17.037  10.087  0.00  0.00     0.168 HD
ENDBRANCH   1  11
TORSDOF 2
ENDMDL
MODEL 4
REMARK VINA RESULT:      -6.1      1.445      2.801
REMARK  2 active torsions:
REMARK  status: ('A' for Active; 'I' for Inactive)
REMARK    1  A    between atoms: C_6  and  C_9 
REMARK    2  A    between atoms: C_9  and  C_11 
ROOT
HETATM    1  C   UNK N   1      36.136  13.704  15.100  0.00  0.00     0.066 C 
HETATM    2  C   UNK N   1      37.187  14.759  15.414  0.00  0.00     0.021 C 
ENDROOT
BRANCH   1   3
HETATM    3  C   UNK N   1      36.200  12.396  15.908  0.00  0.00    -0.042 A 
HETATM    4  C   UNK N   1      36.778  11.282  15.274  0.00  0.00     0.008 A 
HETATM    5  C   UNK N   1      36.864  10.044  15.904  0.00  0.00     0.001 A 
HETATM    6  C   UNK N   1      36.341   9.876  17.180  0.00  0.00     0.007 A 
HETATM    7  C   UNK N   1      35.729  10.943  17.835  0.00  0.00    -0.056 A 
HETATM    8  C   UNK N   1      35.151  10.700  19.191  0.00  0.00     0.049 C 
HETATM    9  C   UNK N   1      35.651  12.212  17.217  0.00  0.00    -0.049 A 
HETATM   10  C   UNK N   1      34.957  13.315  17.956  0.00  0.00     0.049 C 
ENDBRANCH   1   3
BRANCH   1  11
HETATM   11  C   UNK N   1      35.999  13.574  13.599  0.00  0.00     0.035 A 
HETATM   12  C   UNK N   1      34.978  12.964  12.889  0.00  0.00     0.116 A 
HETATM   13  N   UNK N   1      35.233  13.120  11.574  0.00  0.00    -0.341 N 
HETATM   14  C   UNK N   1      36.388  13.809  11.523  0.00  0.00     0.176 A 
HETATM   15  H   UNK N   1      34.693  12.800  10.816  0.00  0.00     0.167 HD
HETATM   16  S   UNK N   1      37.020  14.197  10.297  0.00  0.00    -0.041 SA
HETATM   17  N   UNK N   1      36.885  14.105  12.736  0.00  0.00    -0.335 N 
HETATM   18  H   UNK N   1      37.711  14.598  12.946  0.00  0.00     0.168 HD
ENDBRANCH   1  11
TORSDOF 2
ENDMDL
MODEL 5
REMARK VINA RESULT:      -6.0      4.478      6.429
REMARK  2 active torsions:
REMARK  status: ('A' for Active; 'I' for Inactive)
REMARK    1  A    between atoms: C_6  and  C_9 
REMARK    2  A    between atoms: C_9  and  C_11 
ROOT
HETATM    1  C   UNK N   1      35.344  10.024  19.577  0.00  0.00     0.066 C 
HETATM    2  C   UNK N   1      36.434  10.030  20.640  0.00  0.00     0.021 C 
ENDROOT
BRANCH   1   3
HETATM    3  C   UNK N   1      35.282  11.240  18.636  0.00  0.00    -0.042 A 
HETATM    4  C   UNK N   1      35.311  12.513  19.233  0.00  0.00     0.008 A 
HETATM    5  C   UNK N   1      35.235  13.678  18.477  0.00  0.00     0.001 A 
HETATM    6  C   UNK N   1      35.094  13.603  17.097  0.00  0.00     0.007 A 
HETATM    7  C   UNK N   1      35.027  12.363  16.463  0.00  0.00    -0.056 A 
HETATM    8  C   UNK N   1      34.839  12.338  14.982  0.00  0.00     0.049 C 
HETATM    9  C   UNK N   1      35.122  11.170  17.215  0.00  0.00    -0.049 A 
HETATM   10  C   UNK N   1      35.017   9.867  16.485  0.00  0.00     0.049 C 
ENDBRANCH   1   3
BRANCH   1  11
HETATM   11  C   UNK N   1      34.042   9.583  20.209  0.00  0.00     0.035 A 
HETATM   12  C   UNK N   1      33.559   9.896  21.469  0.00  0.00     0.116 A 
HETATM   13  N   UNK N   1      32.343   9.331  21.602  0.00  0.00    -0.341 N 
HETATM   14  C   UNK N   1      32.124   8.695  20.437  0.00  0.00     0.176 A 
HETATM   15  H   UNK N   1      31.744   9.373  22.383  0.00  0.00     0.167 HD
HETATM   16  S   UNK N   1      30.927   7.960  20.153  0.00  0.00    -0.041 SA
HETATM   17  N   UNK N   1      33.136   8.825  19.562  0.00  0.00    -0.335 N 
HETATM   18  H   UNK N   1      33.200   8.452  18.653  0.00  0.00     0.168 HD
ENDBRANCH   1  11
TORSDOF 2
ENDMDL
MODEL 6
REMARK VINA RESULT:      -5.9      0.744      1.998
REMARK  2 active torsions:
REMARK  status: ('A' for Active; 'I' for Inactive)
REMARK    1  A    between atoms: C_6  and  C_9 
REMARK    2  A    between atoms: C_9  and  C_11 
ROOT
HETATM    1  C   UNK N   1      35.120  10.952  14.589  0.00  0.00     0.066 C 
HETATM    2  C   UNK N   1      33.672  10.657  14.220  0.00  0.00     0.021 C 
ENDROOT
BRANCH   1   3
HETATM    3  C   UNK N   1      35.484  10.896  16.083  0.00  0.00    -0.042 A 
HETATM    4  C   UNK N   1      36.089   9.716  16.549  0.00  0.00     0.008 A 
HETATM    5  C   UNK N   1      36.435   9.550  17.886  0.00  0.00     0.001 A 
HETATM    6  C   UNK N   1      36.155  10.552  18.806  0.00  0.00     0.007 A 
HETATM    7  C   UNK N   1      35.528  11.728  18.397  0.00  0.00    -0.056 A 
HETATM    8  C   UNK N   1      35.217  12.759  19.431  0.00  0.00     0.049 C 
HETATM    9  C   UNK N   1      35.186  11.920  17.038  0.00  0.00    -0.049 A 
HETATM   10  C   UNK N   1      34.488  13.190  16.660  0.00  0.00     0.049 C 
ENDBRANCH   1   3
BRANCH   1  11
HETATM   11  C   UNK N   1      35.588  12.167  13.817  0.00  0.00     0.035 A 
HETATM   12  C   UNK N   1      36.859  12.717  13.787  0.00  0.00     0.116 A 
HETATM   13  N   UNK N   1      36.841  13.762  12.936  0.00  0.00    -0.341 N 
HETATM   14  C   UNK N   1      35.577  13.819  12.480  0.00  0.00     0.176 A 
HETATM   15  H   UNK N   1      37.591  14.355  12.699  0.00  0.00     0.167 HD
HETATM   16  S   UNK N   1      35.123  14.796  11.535  0.00  0.00    -0.041 SA
HETATM   17  N   UNK N   1      34.782  12.864  12.994  0.00  0.00    -0.335 N 
HETATM   18  H   UNK N   1      33.828  12.709  12.808  0.00  0.00     0.168 HD
ENDBRANCH   1  11
TORSDOF 2
ENDMDL
MODEL 7
REMARK VINA RESULT:      -5.9      1.988      3.705
REMARK  2 active torsions:
REMARK  status: ('A' for Active; 'I' for Inactive)
REMARK    1  A    between atoms: C_6  and  C_9 
REMARK    2  A    between atoms: C_9  and  C_11 
ROOT
HETATM    1  C   UNK N   1      36.111  13.107  12.415  0.00  0.00     0.066 C 
HETATM    2  C   UNK N   1      36.784  12.183  11.410  0.00  0.00     0.021 C 
ENDROOT
BRANCH   1   3
HETATM    3  C   UNK N   1      35.464  12.446  13.645  0.00  0.00    -0.042 A 
HETATM    4  C   UNK N   1      34.527  11.426  13.402  0.00  0.00     0.008 A 
HETATM    5  C   UNK N   1      33.864  10.780  14.441  0.00  0.00     0.001 A 
HETATM    6  C   UNK N   1      34.097  11.159  15.757  0.00  0.00     0.007 A 
HETATM    7  C   UNK N   1      34.993  12.187  16.044  0.00  0.00    -0.056 A 
HETATM    8  C   UNK N   1      35.181  12.581  17.473  0.00  0.00     0.049 C 
HETATM    9  C   UNK N   1      35.689  12.841  15.002  0.00  0.00    -0.049 A 
HETATM   10  C   UNK N   1      36.619  13.958  15.367  0.00  0.00     0.049 C 
ENDBRANCH   1   3
BRANCH   1  11
HETATM   11  C   UNK N   1      35.276  14.125  11.668  0.00  0.00     0.035 A 
HETATM   12  C   UNK N   1      35.388  15.505  11.701  0.00  0.00     0.116 A 
HETATM   13  N   UNK N   1      34.477  16.018  10.850  0.00  0.00    -0.341 N 
HETATM   14  C   UNK N   1      33.843  14.950  10.333  0.00  0.00     0.176 A 
HETATM   15  H   UNK N   1      34.311  16.967  10.651  0.00  0.00     0.167 HD
HETATM   16  S   UNK N   1      32.790  15.051   9.367  0.00  0.00    -0.041 SA
HETATM   17  N   UNK N   1      34.301  13.778  10.806  0.00  0.00    -0.335 N 
HETATM   18  H   UNK N   1      33.994  12.872  10.574  0.00  0.00     0.168 HD
ENDBRANCH   1  11
TORSDOF 2
ENDMDL
MODEL 8
REMARK VINA RESULT:      -5.7     11.072     12.843
REMARK  2 active torsions:
REMARK  status: ('A' for Active; 'I' for Inactive)
REMARK    1  A    between atoms: C_6  and  C_9 
REMARK    2  A    between atoms: C_9  and  C_11 
ROOT
HETATM    1  C   UNK N   1      28.841  17.476   7.234  0.00  0.00     0.066 C 
HETATM    2  C   UNK N   1      28.150  17.135   8.547  0.00  0.00     0.021 C 
ENDROOT
BRANCH   1   3
HETATM    3  C   UNK N   1      30.379  17.443   7.227  0.00  0.00    -0.042 A 
HETATM    4  C   UNK N   1      31.034  17.931   8.372  0.00  0.00     0.008 A 
HETATM    5  C   UNK N   1      32.421  17.970   8.460  0.00  0.00     0.001 A 
HETATM    6  C   UNK N   1      33.199  17.550   7.388  0.00  0.00     0.007 A 
HETATM    7  C   UNK N   1      32.594  17.089   6.219  0.00  0.00    -0.056 A 
HETATM    8  C   UNK N   1      33.474  16.684   5.082  0.00  0.00     0.049 C 
HETATM    9  C   UNK N   1      31.185  17.025   6.120  0.00  0.00    -0.049 A 
HETATM   10  C   UNK N   1      30.590  16.548   4.831  0.00  0.00     0.049 C 
ENDBRANCH   1   3
BRANCH   1  11
HETATM   11  C   UNK N   1      28.181  18.699   6.632  0.00  0.00     0.035 A 
HETATM   12  C   UNK N   1      28.112  19.055   5.295  0.00  0.00     0.116 A 
HETATM   13  N   UNK N   1      27.393  20.192   5.204  0.00  0.00    -0.341 N 
HETATM   14  C   UNK N   1      27.054  20.493   6.471  0.00  0.00     0.176 A 
HETATM   15  H   UNK N   1      27.167  20.694   4.388  0.00  0.00     0.167 HD
HETATM   16  S   UNK N   1      26.271  21.639   6.825  0.00  0.00    -0.041 SA
HETATM   17  N   UNK N   1      27.515  19.607   7.370  0.00  0.00    -0.335 N 
HETATM   18  H   UNK N   1      27.392  19.619   8.347  0.00  0.00     0.168 HD
ENDBRANCH   1  11
TORSDOF 2
ENDMDL
MODEL 9
REMARK VINA RESULT:      -5.6      1.617      2.939
REMARK  2 active torsions:
REMARK  status: ('A' for Active; 'I' for Inactive)
REMARK    1  A    between atoms: C_6  and  C_9 
REMARK    2  A    between atoms: C_9  and  C_11 
ROOT
HETATM    1  C   UNK N   1      36.085  13.693  15.091  0.00  0.00     0.066 C 
HETATM    2  C   UNK N   1      37.187  14.685  15.437  0.00  0.00     0.021 C 
ENDROOT
BRANCH   1   3
HETATM    3  C   UNK N   1      36.083  12.359  15.857  0.00  0.00    -0.042 A 
HETATM    4  C   UNK N   1      35.310  12.297  17.030  0.00  0.00     0.008 A 
HETATM    5  C   UNK N   1      35.258  11.147  17.811  0.00  0.00     0.001 A 
HETATM    6  C   UNK N   1      36.006  10.032  17.458  0.00  0.00     0.007 A 
HETATM    7  C   UNK N   1      36.812  10.057  16.321  0.00  0.00    -0.056 A 
HETATM    8  C   UNK N   1      37.625   8.844  16.006  0.00  0.00     0.049 C 
HETATM    9  C   UNK N   1      36.863  11.211  15.506  0.00  0.00    -0.049 A 
HETATM   10  C   UNK N   1      37.768  11.192  14.312  0.00  0.00     0.049 C 
ENDBRANCH   1   3
BRANCH   1  11
HETATM   11  C   UNK N   1      35.945  13.617  13.586  0.00  0.00     0.035 A 
HETATM   12  C   UNK N   1      34.937  13.007  12.856  0.00  0.00     0.116 A 
HETATM   13  N   UNK N   1      35.182  13.220  11.548  0.00  0.00    -0.341 N 
HETATM   14  C   UNK N   1      36.317  13.942  11.519  0.00  0.00     0.176 A 
HETATM   15  H   UNK N   1      34.647  12.914  10.781  0.00  0.00     0.167 HD
HETATM   16  S   UNK N   1      36.932  14.394  10.306  0.00  0.00    -0.041 SA
HETATM   17  N   UNK N   1      36.812  14.205  12.740  0.00  0.00    -0.335 N 
HETATM   18  H   UNK N   1      37.625  14.713  12.966  0.00  0.00     0.168 HD
ENDBRANCH   1  11
TORSDOF 2
ENDMDL
