MODEL 1
REMARK VINA RESULT:      -7.5      0.000      0.000
REMARK  3 active torsions:
REMARK  status: ('A' for Active; 'I' for Inactive)
REMARK    1  A    between atoms: C_4  and  C_7 
REMARK    2  A    between atoms: C_7  and  N_8 
REMARK    3  A    between atoms: N_11  and  C_15 
ROOT
HETATM    1  N   UNK N   1      27.050  26.088  -5.751  0.00  0.00    -0.254 N 
HETATM    2  C   UNK N   1      28.272  25.478  -5.430  0.00  0.00     0.343 A 
HETATM    3  O   UNK N   1      29.314  26.056  -5.653  0.00  0.00    -0.245 OA
HETATM    4  N   UNK N   1      28.215  24.203  -4.857  0.00  0.00    -0.227 N 
HETATM    5  S   UNK N   1      26.596  23.898  -4.779  0.00  0.00     0.060 SA
HETATM    6  C   UNK N   1      25.992  25.268  -5.420  0.00  0.00     0.311 A 
HETATM    7  O   UNK N   1      24.811  25.508  -5.571  0.00  0.00    -0.258 OA
ENDROOT
BRANCH   4   8
HETATM    8  C   UNK N   1      29.227  23.254  -4.391  0.00  0.00     0.062 A 
HETATM    9  C   UNK N   1      29.753  23.459  -3.100  0.00  0.00     0.031 A 
HETATM   10  C   UNK N   1      30.721  22.620  -2.554  0.00  0.00     0.003 A 
HETATM   11  C   UNK N   1      31.200  21.539  -3.282  0.00  0.00     0.012 A 
HETATM   12  C   UNK N   1      30.715  21.290  -4.562  0.00  0.00    -0.024 A 
HETATM   13  C   UNK N   1      29.728  22.134  -5.139  0.00  0.00     0.002 A 
HETATM   14  C   UNK N   1      31.217  20.192  -5.273  0.00  0.00     0.012 A 
HETATM   15  C   UNK N   1      29.288  21.822  -6.428  0.00  0.00     0.014 A 
HETATM   16  C   UNK N   1      29.787  20.730  -7.136  0.00  0.00     0.001 A 
HETATM   17  C   UNK N   1      30.753  19.913  -6.558  0.00  0.00     0.001 A 
ENDBRANCH   4   8
BRANCH   1  18
HETATM   18  C   UNK N   1      27.115  27.435  -6.356  0.00  0.00     0.176 C 
BRANCH  18  19
HETATM   19  C   UNK N   1      27.230  28.724  -5.601  0.00  0.00    -0.040 A 
HETATM   20  C   UNK N   1      26.361  28.879  -4.514  0.00  0.00     0.009 A 
HETATM   21  C   UNK N   1      26.384  30.041  -3.743  0.00  0.00     0.001 A 
HETATM   22  C   UNK N   1      27.283  31.062  -4.056  0.00  0.00     0.000 A 
HETATM   23  C   UNK N   1      28.154  30.916  -5.138  0.00  0.00     0.001 A 
HETATM   24  C   UNK N   1      28.124  29.750  -5.906  0.00  0.00     0.009 A 
ENDBRANCH  18  19
ENDBRANCH   1  18
TORSDOF 3
ENDMDL
MODEL 2
REMARK VINA RESULT:      -7.5      0.739      2.453
REMARK  3 active torsions:
REMARK  status: ('A' for Active; 'I' for Inactive)
REMARK    1  A    between atoms: C_4  and  C_7 
REMARK    2  A    between atoms: C_7  and  N_8 
REMARK    3  A    between atoms: N_11  and  C_15 
ROOT
HETATM    1  N   UNK N   1      26.972  25.862  -6.397  0.00  0.00    -0.254 N 
HETATM    2  C   UNK N   1      28.102  25.037  -6.511  0.00  0.00     0.343 A 
HETATM    3  O   UNK N   1      29.132  25.482  -6.970  0.00  0.00    -0.245 OA
HETATM    4  N   UNK N   1      27.969  23.714  -6.077  0.00  0.00    -0.227 N 
HETATM    5  S   UNK N   1      26.404  23.642  -5.560  0.00  0.00     0.060 SA
HETATM    6  C   UNK N   1      25.912  25.167  -5.855  0.00  0.00     0.311 A 
HETATM    7  O   UNK N   1      24.799  25.598  -5.630  0.00  0.00    -0.258 OA
ENDROOT
BRANCH   4   8
HETATM    8  C   UNK N   1      28.877  22.567  -6.026  0.00  0.00     0.062 A 
HETATM    9  C   UNK N   1      28.835  21.666  -7.109  0.00  0.00     0.031 A 
HETATM   10  C   UNK N   1      29.654  20.541  -7.167  0.00  0.00     0.003 A 
HETATM   11  C   UNK N   1      30.548  20.274  -6.139  0.00  0.00     0.012 A 
HETATM   12  C   UNK N   1      30.631  21.130  -5.046  0.00  0.00    -0.024 A 
HETATM   13  C   UNK N   1      29.805  22.284  -4.967  0.00  0.00     0.002 A 
HETATM   14  C   UNK N   1      31.543  20.835  -4.025  0.00  0.00     0.012 A 
HETATM   15  C   UNK N   1      29.943  23.097  -3.839  0.00  0.00     0.014 A 
HETATM   16  C   UNK N   1      30.850  22.805  -2.822  0.00  0.00     0.001 A 
HETATM   17  C   UNK N   1      31.652  21.671  -2.914  0.00  0.00     0.001 A 
ENDBRANCH   4   8
BRANCH   1  18
HETATM   18  C   UNK N   1      27.117  27.259  -6.857  0.00  0.00     0.176 C 
BRANCH  18  19
HETATM   19  C   UNK N   1      27.215  28.461  -5.968  0.00  0.00    -0.040 A 
HETATM   20  C   UNK N   1      28.177  29.414  -6.327  0.00  0.00     0.009 A 
HETATM   21  C   UNK N   1      28.351  30.571  -5.567  0.00  0.00     0.001 A 
HETATM   22  C   UNK N   1      27.560  30.784  -4.437  0.00  0.00     0.000 A 
HETATM   23  C   UNK N   1      26.598  29.839  -4.072  0.00  0.00     0.001 A 
HETATM   24  C   UNK N   1      26.429  28.684  -4.837  0.00  0.00     0.009 A 
ENDBRANCH  18  19
ENDBRANCH   1  18
TORSDOF 3
ENDMDL
MODEL 3
REMARK VINA RESULT:      -7.5     14.499     18.321
REMARK  3 active torsions:
REMARK  status: ('A' for Active; 'I' for Inactive)
REMARK    1  A    between atoms: C_4  and  C_7 
REMARK    2  A    between atoms: C_7  and  N_8 
REMARK    3  A    between atoms: N_11  and  C_15 
ROOT
HETATM    1  N   UNK N   1      34.118  15.867   9.686  0.00  0.00    -0.254 N 
HETATM    2  C   UNK N   1      33.301  15.709   8.556  0.00  0.00     0.343 A 
HETATM    3  O   UNK N   1      32.613  14.718   8.440  0.00  0.00    -0.245 OA
HETATM    4  N   UNK N   1      33.330  16.734   7.604  0.00  0.00    -0.227 N 
HETATM    5  S   UNK N   1      34.403  17.811   8.242  0.00  0.00     0.060 SA
HETATM    6  C   UNK N   1      34.814  17.055   9.624  0.00  0.00     0.311 A 
HETATM    7  O   UNK N   1      35.601  17.480  10.446  0.00  0.00    -0.258 OA
ENDROOT
BRANCH   4   8
HETATM    8  C   UNK N   1      32.650  16.950   6.325  0.00  0.00     0.062 A 
HETATM    9  C   UNK N   1      33.449  16.943   5.164  0.00  0.00     0.031 A 
HETATM   10  C   UNK N   1      32.911  17.138   3.895  0.00  0.00     0.003 A 
HETATM   11  C   UNK N   1      31.548  17.347   3.739  0.00  0.00     0.012 A 
HETATM   12  C   UNK N   1      30.712  17.363   4.850  0.00  0.00    -0.024 A 
HETATM   13  C   UNK N   1      31.241  17.166   6.156  0.00  0.00     0.002 A 
HETATM   14  C   UNK N   1      29.341  17.576   4.662  0.00  0.00     0.012 A 
HETATM   15  C   UNK N   1      30.341  17.196   7.224  0.00  0.00     0.014 A 
HETATM   16  C   UNK N   1      28.976  17.408   7.038  0.00  0.00     0.001 A 
HETATM   17  C   UNK N   1      28.474  17.598   5.755  0.00  0.00     0.001 A 
ENDBRANCH   4   8
BRANCH   1  18
HETATM   18  C   UNK N   1      34.084  14.783  10.690  0.00  0.00     0.176 C 
BRANCH  18  19
HETATM   19  C   UNK N   1      35.265  13.978  11.141  0.00  0.00    -0.040 A 
HETATM   20  C   UNK N   1      35.127  13.321  12.370  0.00  0.00     0.009 A 
HETATM   21  C   UNK N   1      36.167  12.546  12.883  0.00  0.00     0.001 A 
HETATM   22  C   UNK N   1      37.359  12.421  12.166  0.00  0.00     0.000 A 
HETATM   23  C   UNK N   1      37.504  13.073  10.940  0.00  0.00     0.001 A 
HETATM   24  C   UNK N   1      36.459  13.848  10.432  0.00  0.00     0.009 A 
ENDBRANCH  18  19
ENDBRANCH   1  18
TORSDOF 3
ENDMDL
MODEL 4
REMARK VINA RESULT:      -7.4     18.404     21.475
REMARK  3 active torsions:
REMARK  status: ('A' for Active; 'I' for Inactive)
REMARK    1  A    between atoms: C_4  and  C_7 
REMARK    2  A    between atoms: C_7  and  N_8 
REMARK    3  A    between atoms: N_11  and  C_15 
ROOT
HETATM    1  N   UNK N   1      35.888  15.217  10.436  0.00  0.00    -0.254 N 
HETATM    2  C   UNK N   1      35.084  14.508  11.342  0.00  0.00     0.343 A 
HETATM    3  O   UNK N   1      33.982  14.925  11.628  0.00  0.00    -0.245 OA
HETATM    4  N   UNK N   1      35.616  13.330  11.876  0.00  0.00    -0.227 N 
HETATM    5  S   UNK N   1      37.103  13.233  11.169  0.00  0.00     0.060 SA
HETATM    6  C   UNK N   1      37.094  14.577  10.248  0.00  0.00     0.311 A 
HETATM    7  O   UNK N   1      38.004  14.937   9.528  0.00  0.00    -0.258 OA
ENDROOT
BRANCH   4   8
HETATM    8  C   UNK N   1      35.118  12.329  12.822  0.00  0.00     0.062 A 
HETATM    9  C   UNK N   1      34.505  11.182  12.280  0.00  0.00     0.031 A 
HETATM   10  C   UNK N   1      33.995  10.167  13.085  0.00  0.00     0.003 A 
HETATM   11  C   UNK N   1      34.081  10.261  14.467  0.00  0.00     0.012 A 
HETATM   12  C   UNK N   1      34.676  11.371  15.056  0.00  0.00    -0.024 A 
HETATM   13  C   UNK N   1      35.203  12.420  14.253  0.00  0.00     0.002 A 
HETATM   14  C   UNK N   1      34.748  11.439  16.452  0.00  0.00     0.012 A 
HETATM   15  C   UNK N   1      35.787  13.504  14.914  0.00  0.00     0.014 A 
HETATM   16  C   UNK N   1      35.859  13.572  16.304  0.00  0.00     0.001 A 
HETATM   17  C   UNK N   1      35.339  12.538  17.076  0.00  0.00     0.001 A 
ENDBRANCH   4   8
BRANCH   1  18
HETATM   18  C   UNK N   1      35.322  16.461   9.874  0.00  0.00     0.176 C 
BRANCH  18  19
HETATM   19  C   UNK N   1      34.550  16.566   8.594  0.00  0.00    -0.040 A 
HETATM   20  C   UNK N   1      33.461  17.446   8.603  0.00  0.00     0.009 A 
HETATM   21  C   UNK N   1      32.675  17.618   7.463  0.00  0.00     0.001 A 
HETATM   22  C   UNK N   1      32.975  16.907   6.300  0.00  0.00     0.000 A 
HETATM   23  C   UNK N   1      34.059  16.026   6.282  0.00  0.00     0.001 A 
HETATM   24  C   UNK N   1      34.841  15.859   7.427  0.00  0.00     0.009 A 
ENDBRANCH  18  19
ENDBRANCH   1  18
TORSDOF 3
ENDMDL
MODEL 5
REMARK VINA RESULT:      -7.4     15.584     19.267
REMARK  3 active torsions:
REMARK  status: ('A' for Active; 'I' for Inactive)
REMARK    1  A    between atoms: C_4  and  C_7 
REMARK    2  A    between atoms: C_7  and  N_8 
REMARK    3  A    between atoms: N_11  and  C_15 
ROOT
HETATM    1  N   UNK N   1      34.905  14.862  10.104  0.00  0.00    -0.254 N 
HETATM    2  C   UNK N   1      33.708  14.890   9.372  0.00  0.00     0.343 A 
HETATM    3  O   UNK N   1      33.060  13.875   9.231  0.00  0.00    -0.245 OA
HETATM    4  N   UNK N   1      33.322  16.122   8.833  0.00  0.00    -0.227 N 
HETATM    5  S   UNK N   1      34.529  17.138   9.313  0.00  0.00     0.060 SA
HETATM    6  C   UNK N   1      35.483  16.113  10.145  0.00  0.00     0.311 A 
HETATM    7  O   UNK N   1      36.521  16.417  10.698  0.00  0.00    -0.258 OA
ENDROOT
BRANCH   4   8
HETATM    8  C   UNK N   1      32.179  16.566   8.032  0.00  0.00     0.062 A 
HETATM    9  C   UNK N   1      30.958  16.759   8.708  0.00  0.00     0.031 A 
HETATM   10  C   UNK N   1      29.806  17.179   8.048  0.00  0.00     0.003 A 
HETATM   11  C   UNK N   1      29.834  17.422   6.681  0.00  0.00     0.012 A 
HETATM   12  C   UNK N   1      31.012  17.247   5.964  0.00  0.00    -0.024 A 
HETATM   13  C   UNK N   1      32.200  16.819   6.619  0.00  0.00     0.002 A 
HETATM   14  C   UNK N   1      31.010  17.499   4.587  0.00  0.00     0.012 A 
HETATM   15  C   UNK N   1      33.346  16.664   5.834  0.00  0.00     0.014 A 
HETATM   16  C   UNK N   1      33.345  16.915   4.463  0.00  0.00     0.001 A 
HETATM   17  C   UNK N   1      32.175  17.334   3.838  0.00  0.00     0.001 A 
ENDBRANCH   4   8
BRANCH   1  18
HETATM   18  C   UNK N   1      35.309  13.559  10.671  0.00  0.00     0.176 C 
BRANCH  18  19
HETATM   19  C   UNK N   1      35.249  13.184  12.121  0.00  0.00    -0.040 A 
HETATM   20  C   UNK N   1      34.663  11.947  12.412  0.00  0.00     0.009 A 
HETATM   21  C   UNK N   1      34.557  11.502  13.730  0.00  0.00     0.001 A 
HETATM   22  C   UNK N   1      35.039  12.297  14.772  0.00  0.00     0.000 A 
HETATM   23  C   UNK N   1      35.625  13.533  14.490  0.00  0.00     0.001 A 
HETATM   24  C   UNK N   1      35.728  13.972  13.168  0.00  0.00     0.009 A 
ENDBRANCH  18  19
ENDBRANCH   1  18
TORSDOF 3
ENDMDL
MODEL 6
REMARK VINA RESULT:      -7.4     14.597     17.125
REMARK  3 active torsions:
REMARK  status: ('A' for Active; 'I' for Inactive)
REMARK    1  A    between atoms: C_4  and  C_7 
REMARK    2  A    between atoms: C_7  and  N_8 
REMARK    3  A    between atoms: N_11  and  C_15 
ROOT
HETATM    1  N   UNK N   1      21.701  14.650   6.755  0.00  0.00    -0.254 N 
HETATM    2  C   UNK N   1      21.899  16.011   6.478  0.00  0.00     0.343 A 
HETATM    3  O   UNK N   1      21.547  16.850   7.279  0.00  0.00    -0.245 OA
HETATM    4  N   UNK N   1      22.509  16.328   5.259  0.00  0.00    -0.227 N 
HETATM    5  S   UNK N   1      22.775  14.852   4.575  0.00  0.00     0.060 SA
HETATM    6  C   UNK N   1      22.169  13.867   5.722  0.00  0.00     0.311 A 
HETATM    7  O   UNK N   1      22.143  12.654   5.660  0.00  0.00    -0.258 OA
ENDROOT
BRANCH   4   8
HETATM    8  C   UNK N   1      22.885  17.586   4.610  0.00  0.00     0.062 A 
HETATM    9  C   UNK N   1      24.219  18.012   4.761  0.00  0.00     0.031 A 
HETATM   10  C   UNK N   1      24.688  19.192   4.188  0.00  0.00     0.003 A 
HETATM   11  C   UNK N   1      23.835  19.991   3.439  0.00  0.00     0.012 A 
HETATM   12  C   UNK N   1      22.508  19.619   3.258  0.00  0.00    -0.024 A 
HETATM   13  C   UNK N   1      22.009  18.418   3.834  0.00  0.00     0.002 A 
HETATM   14  C   UNK N   1      21.672  20.445   2.498  0.00  0.00     0.012 A 
HETATM   15  C   UNK N   1      20.665  18.108   3.610  0.00  0.00     0.014 A 
HETATM   16  C   UNK N   1      19.831  18.930   2.853  0.00  0.00     0.001 A 
HETATM   17  C   UNK N   1      20.335  20.101   2.296  0.00  0.00     0.001 A 
ENDBRANCH   4   8
BRANCH   1  18
HETATM   18  C   UNK N   1      21.056  14.319   8.044  0.00  0.00     0.176 C 
BRANCH  18  19
HETATM   19  C   UNK N   1      21.680  13.525   9.150  0.00  0.00    -0.040 A 
HETATM   20  C   UNK N   1      20.809  13.070  10.147  0.00  0.00     0.009 A 
HETATM   21  C   UNK N   1      21.287  12.321  11.223  0.00  0.00     0.001 A 
HETATM   22  C   UNK N   1      22.647  12.020  11.309  0.00  0.00     0.000 A 
HETATM   23  C   UNK N   1      23.524  12.470  10.318  0.00  0.00     0.001 A 
HETATM   24  C   UNK N   1      23.038  13.219   9.244  0.00  0.00     0.009 A 
ENDBRANCH  18  19
ENDBRANCH   1  18
TORSDOF 3
ENDMDL
MODEL 7
REMARK VINA RESULT:      -7.3     21.489     24.571
REMARK  3 active torsions:
REMARK  status: ('A' for Active; 'I' for Inactive)
REMARK    1  A    between atoms: C_4  and  C_7 
REMARK    2  A    between atoms: C_7  and  N_8 
REMARK    3  A    between atoms: N_11  and  C_15 
ROOT
HETATM    1  N   UNK N   1      35.876  12.225  12.419  0.00  0.00    -0.254 N 
HETATM    2  C   UNK N   1      35.366  11.861  13.675  0.00  0.00     0.343 A 
HETATM    3  O   UNK N   1      34.186  12.000  13.913  0.00  0.00    -0.245 OA
HETATM    4  N   UNK N   1      36.276  11.345  14.604  0.00  0.00    -0.227 N 
HETATM    5  S   UNK N   1      37.707  11.371  13.785  0.00  0.00     0.060 SA
HETATM    6  C   UNK N   1      37.232  11.989  12.355  0.00  0.00     0.311 A 
HETATM    7  O   UNK N   1      37.963  12.198  11.407  0.00  0.00    -0.258 OA
ENDROOT
BRANCH   4   8
HETATM    8  C   UNK N   1      36.155  10.861  15.981  0.00  0.00     0.062 A 
HETATM    9  C   UNK N   1      36.427   9.497  16.208  0.00  0.00     0.031 A 
HETATM   10  C   UNK N   1      36.344   8.928  17.476  0.00  0.00     0.003 A 
HETATM   11  C   UNK N   1      35.985   9.706  18.569  0.00  0.00     0.012 A 
HETATM   12  C   UNK N   1      35.705  11.058  18.402  0.00  0.00    -0.024 A 
HETATM   13  C   UNK N   1      35.784  11.659  17.116  0.00  0.00     0.002 A 
HETATM   14  C   UNK N   1      35.345  11.817  19.522  0.00  0.00     0.012 A 
HETATM   15  C   UNK N   1      35.490  13.022  17.025  0.00  0.00     0.014 A 
HETATM   16  C   UNK N   1      35.131  13.779  18.139  0.00  0.00     0.001 A 
HETATM   17  C   UNK N   1      35.059  13.176  19.391  0.00  0.00     0.001 A 
ENDBRANCH   4   8
BRANCH   1  18
HETATM   18  C   UNK N   1      34.912  12.771  11.441  0.00  0.00     0.176 C 
BRANCH  18  19
HETATM   19  C   UNK N   1      34.892  14.179  10.931  0.00  0.00    -0.040 A 
HETATM   20  C   UNK N   1      34.077  14.419   9.818  0.00  0.00     0.009 A 
HETATM   21  C   UNK N   1      33.987  15.696   9.263  0.00  0.00     0.001 A 
HETATM   22  C   UNK N   1      34.715  16.748   9.821  0.00  0.00     0.000 A 
HETATM   23  C   UNK N   1      35.531  16.518  10.931  0.00  0.00     0.001 A 
HETATM   24  C   UNK N   1      35.617  15.237  11.481  0.00  0.00     0.009 A 
ENDBRANCH  18  19
ENDBRANCH   1  18
TORSDOF 3
ENDMDL
MODEL 8
REMARK VINA RESULT:      -7.3     17.303     20.812
REMARK  3 active torsions:
REMARK  status: ('A' for Active; 'I' for Inactive)
REMARK    1  A    between atoms: C_4  and  C_7 
REMARK    2  A    between atoms: C_7  and  N_8 
REMARK    3  A    between atoms: N_11  and  C_15 
ROOT
HETATM    1  N   UNK N   1      35.799  13.522  11.593  0.00  0.00    -0.254 N 
HETATM    2  C   UNK N   1      34.955  14.390  10.882  0.00  0.00     0.343 A 
HETATM    3  O   UNK N   1      33.831  14.605  11.282  0.00  0.00    -0.245 OA
HETATM    4  N   UNK N   1      35.475  14.970   9.720  0.00  0.00    -0.227 N 
HETATM    5  S   UNK N   1      37.002  14.352   9.641  0.00  0.00     0.060 SA
HETATM    6  C   UNK N   1      37.025  13.415  10.972  0.00  0.00     0.311 A 
HETATM    7  O   UNK N   1      37.969  12.744  11.339  0.00  0.00    -0.258 OA
ENDROOT
BRANCH   4   8
HETATM    8  C   UNK N   1      34.940  15.900   8.723  0.00  0.00     0.062 A 
HETATM    9  C   UNK N   1      34.722  17.229   9.138  0.00  0.00     0.031 A 
HETATM   10  C   UNK N   1      34.217  18.199   8.276  0.00  0.00     0.003 A 
HETATM   11  C   UNK N   1      33.909  17.874   6.962  0.00  0.00     0.012 A 
HETATM   12  C   UNK N   1      34.104  16.577   6.500  0.00  0.00    -0.024 A 
HETATM   13  C   UNK N   1      34.619  15.571   7.363  0.00  0.00     0.002 A 
HETATM   14  C   UNK N   1      33.784  16.278   5.169  0.00  0.00     0.012 A 
HETATM   15  C   UNK N   1      34.788  14.291   6.829  0.00  0.00     0.014 A 
HETATM   16  C   UNK N   1      34.471  13.993   5.505  0.00  0.00     0.001 A 
HETATM   17  C   UNK N   1      33.968  14.988   4.673  0.00  0.00     0.001 A 
ENDBRANCH   4   8
BRANCH   1  18
HETATM   18  C   UNK N   1      35.245  12.911  12.820  0.00  0.00     0.176 C 
BRANCH  18  19
HETATM   19  C   UNK N   1      35.580  13.320  14.222  0.00  0.00    -0.040 A 
HETATM   20  C   UNK N   1      34.771  12.779  15.229  0.00  0.00     0.009 A 
HETATM   21  C   UNK N   1      34.996  13.094  16.569  0.00  0.00     0.001 A 
HETATM   22  C   UNK N   1      36.038  13.958  16.913  0.00  0.00     0.000 A 
HETATM   23  C   UNK N   1      36.850  14.501  15.915  0.00  0.00     0.001 A 
HETATM   24  C   UNK N   1      36.619  14.181  14.576  0.00  0.00     0.009 A 
ENDBRANCH  18  19
ENDBRANCH   1  18
TORSDOF 3
ENDMDL
MODEL 9
REMARK VINA RESULT:      -7.2     18.497     21.439
REMARK  3 active torsions:
REMARK  status: ('A' for Active; 'I' for Inactive)
REMARK    1  A    between atoms: C_4  and  C_7 
REMARK    2  A    between atoms: C_7  and  N_8 
REMARK    3  A    between atoms: N_11  and  C_15 
ROOT
HETATM    1  N   UNK N   1      35.279  14.057   9.755  0.00  0.00    -0.254 N 
HETATM    2  C   UNK N   1      34.943  14.076  11.117  0.00  0.00     0.343 A 
HETATM    3  O   UNK N   1      33.837  14.432  11.464  0.00  0.00    -0.245 OA
HETATM    4  N   UNK N   1      35.932  13.672  12.021  0.00  0.00    -0.227 N 
HETATM    5  S   UNK N   1      37.208  13.303  11.043  0.00  0.00     0.060 SA
HETATM    6  C   UNK N   1      36.575  13.624   9.576  0.00  0.00     0.311 A 
HETATM    7  O   UNK N   1      37.161  13.497   8.520  0.00  0.00    -0.258 OA
ENDROOT
BRANCH   4   8
HETATM    8  C   UNK N   1      35.986  13.551  13.479  0.00  0.00     0.062 A 
HETATM    9  C   UNK N   1      36.661  14.568  14.183  0.00  0.00     0.031 A 
HETATM   10  C   UNK N   1      36.774  14.557  15.570  0.00  0.00     0.003 A 
HETATM   11  C   UNK N   1      36.215  13.523  16.308  0.00  0.00     0.012 A 
HETATM   12  C   UNK N   1      35.537  12.493  15.665  0.00  0.00    -0.024 A 
HETATM   13  C   UNK N   1      35.409  12.485  14.249  0.00  0.00     0.002 A 
HETATM   14  C   UNK N   1      34.983  11.463  16.436  0.00  0.00     0.012 A 
HETATM   15  C   UNK N   1      34.715  11.418  13.672  0.00  0.00     0.014 A 
HETATM   16  C   UNK N   1      34.163  10.393  14.438  0.00  0.00     0.001 A 
HETATM   17  C   UNK N   1      34.297  10.415  15.823  0.00  0.00     0.001 A 
ENDBRANCH   4   8
BRANCH   1  18
HETATM   18  C   UNK N   1      34.231  14.484   8.804  0.00  0.00     0.176 C 
BRANCH  18  19
HETATM   19  C   UNK N   1      33.784  15.897   8.579  0.00  0.00    -0.040 A 
HETATM   20  C   UNK N   1      32.402  16.116   8.607  0.00  0.00     0.009 A 
HETATM   21  C   UNK N   1      31.879  17.394   8.409  0.00  0.00     0.001 A 
HETATM   22  C   UNK N   1      32.741  18.468   8.181  0.00  0.00     0.000 A 
HETATM   23  C   UNK N   1      34.122  18.259   8.151  0.00  0.00     0.001 A 
HETATM   24  C   UNK N   1      34.638  16.977   8.350  0.00  0.00     0.009 A 
ENDBRANCH  18  19
ENDBRANCH   1  18
TORSDOF 3
ENDMDL
