MODEL 1
REMARK VINA RESULT:      -7.0      0.000      0.000
REMARK  6 active torsions:
REMARK  status: ('A' for Active; 'I' for Inactive)
REMARK    1  A    between atoms: C_7  and  O_1 
REMARK    2  A    between atoms: O_2  and  C_10 
REMARK    3  A    between atoms: O_3  and  C_11 
REMARK    4  A    between atoms: O_4  and  C_12 
REMARK    5  A    between atoms: O_5  and  C_13 
REMARK    6  A    between atoms: C_8  and  C_16 
ROOT
HETATM    1  O   UNK N   1      33.622  15.909   6.905  0.00  0.00    -0.338 OA
HETATM    2  C   UNK N   1      32.181  17.426   8.073  0.00  0.00     0.156 C 
HETATM    3  C   UNK N   1      32.932  16.084   8.097  0.00  0.00     0.191 C 
HETATM    4  C   UNK N   1      31.224  17.435   6.875  0.00  0.00     0.079 C 
HETATM    5  C   UNK N   1      31.337  17.237   4.355  0.00  0.00     0.077 A 
HETATM    6  C   UNK N   1      33.195  16.111   3.281  0.00  0.00     0.071 A 
HETATM    7  C   UNK N   1      33.092  16.221   5.697  0.00  0.00     0.081 A 
HETATM    8  C   UNK N   1      31.893  16.957   5.616  0.00  0.00     0.011 A 
HETATM    9  C   UNK N   1      31.989  16.814   3.196  0.00  0.00     0.073 A 
HETATM   10  C   UNK N   1      33.743  15.813   4.532  0.00  0.00     0.074 A 
ENDROOT
BRANCH   3  11
HETATM   11  C   UNK N   1      33.860  15.873   9.275  0.00  0.00    -0.024 A 
HETATM   12  C   UNK N   1      33.685  14.769  10.127  0.00  0.00     0.049 A 
HETATM   13  C   UNK N   1      34.490  14.607  11.258  0.00  0.00     0.099 A 
HETATM   14  C   UNK N   1      35.492  15.544  11.540  0.00  0.00     0.098 A 
HETATM   15  C   UNK N   1      35.674  16.644  10.697  0.00  0.00     0.040 A 
HETATM   16  C   UNK N   1      34.852  16.815   9.579  0.00  0.00     0.013 A 
BRANCH  13  17
HETATM   17  O   UNK N   1      34.292  13.556  12.072  0.00  0.00    -0.358 OA
HETATM   18  H   UNK N   1      34.158  13.682  12.990  0.00  0.00     0.217 HD
ENDBRANCH  13  17
BRANCH  14  19
HETATM   19  O   UNK N   1      36.275  15.396  12.623  0.00  0.00    -0.358 OA
HETATM   20  H   UNK N   1      36.053  14.769  13.283  0.00  0.00     0.217 HD
ENDBRANCH  14  19
ENDBRANCH   3  11
BRANCH   2  21
HETATM   21  O   UNK N   1      31.425  17.598   9.233  0.00  0.00    -0.392 OA
HETATM   22  H   UNK N   1      31.700  18.222   9.923  0.00  0.00     0.210 HD
ENDBRANCH   2  21
BRANCH   5  23
HETATM   23  O   UNK N   1      30.181  17.917   4.257  0.00  0.00    -0.360 OA
HETATM   24  H   UNK N   1      29.532  17.652   3.635  0.00  0.00     0.217 HD
ENDBRANCH   5  23
BRANCH   6  25
HETATM   25  O   UNK N   1      33.826  15.720   2.163  0.00  0.00    -0.361 OA
HETATM   26  H   UNK N   1      34.621  15.226   2.223  0.00  0.00     0.217 HD
ENDBRANCH   6  25
TORSDOF 6
ENDMDL
MODEL 2
REMARK VINA RESULT:      -6.9      5.548      8.517
REMARK  6 active torsions:
REMARK  status: ('A' for Active; 'I' for Inactive)
REMARK    1  A    between atoms: C_7  and  O_1 
REMARK    2  A    between atoms: O_2  and  C_10 
REMARK    3  A    between atoms: O_3  and  C_11 
REMARK    4  A    between atoms: O_4  and  C_12 
REMARK    5  A    between atoms: O_5  and  C_13 
REMARK    6  A    between atoms: C_8  and  C_16 
ROOT
HETATM    1  O   UNK N   1      35.744  13.436  14.396  0.00  0.00    -0.338 OA
HETATM    2  C   UNK N   1      34.219  11.595  14.240  0.00  0.00     0.156 C 
HETATM    3  C   UNK N   1      35.448  12.196  14.943  0.00  0.00     0.191 C 
HETATM    4  C   UNK N   1      34.514  11.481  12.740  0.00  0.00     0.079 C 
HETATM    5  C   UNK N   1      35.116  12.995  10.805  0.00  0.00     0.077 A 
HETATM    6  C   UNK N   1      36.197  15.130  11.190  0.00  0.00     0.071 A 
HETATM    7  C   UNK N   1      35.697  13.682  13.064  0.00  0.00     0.081 A 
HETATM    8  C   UNK N   1      35.119  12.742  12.188  0.00  0.00     0.011 A 
HETATM    9  C   UNK N   1      35.653  14.187  10.313  0.00  0.00     0.073 A 
HETATM   10  C   UNK N   1      36.221  14.875  12.564  0.00  0.00     0.074 A 
ENDROOT
BRANCH   3  11
HETATM   11  C   UNK N   1      35.358  12.296  16.451  0.00  0.00    -0.024 A 
HETATM   12  C   UNK N   1      35.165  13.543  17.069  0.00  0.00     0.049 A 
HETATM   13  C   UNK N   1      35.155  13.653  18.463  0.00  0.00     0.099 A 
HETATM   14  C   UNK N   1      35.324  12.511  19.254  0.00  0.00     0.098 A 
HETATM   15  C   UNK N   1      35.515  11.266  18.648  0.00  0.00     0.040 A 
HETATM   16  C   UNK N   1      35.547  11.162  17.254  0.00  0.00     0.013 A 
BRANCH  13  17
HETATM   17  O   UNK N   1      34.990  14.859  19.035  0.00  0.00    -0.358 OA
HETATM   18  H   UNK N   1      34.797  15.612  18.512  0.00  0.00     0.217 HD
ENDBRANCH  13  17
BRANCH  14  19
HETATM   19  O   UNK N   1      35.311  12.605  20.595  0.00  0.00    -0.358 OA
HETATM   20  H   UNK N   1      36.041  12.978  21.048  0.00  0.00     0.217 HD
ENDBRANCH  14  19
ENDBRANCH   3  11
BRANCH   2  21
HETATM   21  O   UNK N   1      33.939  10.317  14.726  0.00  0.00    -0.392 OA
HETATM   22  H   UNK N   1      33.040  10.066  14.989  0.00  0.00     0.210 HD
ENDBRANCH   2  21
BRANCH   5  23
HETATM   23  O   UNK N   1      34.591  12.100   9.950  0.00  0.00    -0.360 OA
HETATM   24  H   UNK N   1      35.136  11.440   9.568  0.00  0.00     0.217 HD
ENDBRANCH   5  23
BRANCH   6  25
HETATM   25  O   UNK N   1      36.698  16.280  10.713  0.00  0.00    -0.361 OA
HETATM   26  H   UNK N   1      36.358  17.100  11.017  0.00  0.00     0.217 HD
ENDBRANCH   6  25
TORSDOF 6
ENDMDL
MODEL 3
REMARK VINA RESULT:      -6.8      6.048      9.068
REMARK  6 active torsions:
REMARK  status: ('A' for Active; 'I' for Inactive)
REMARK    1  A    between atoms: C_7  and  O_1 
REMARK    2  A    between atoms: O_2  and  C_10 
REMARK    3  A    between atoms: O_3  and  C_11 
REMARK    4  A    between atoms: O_4  and  C_12 
REMARK    5  A    between atoms: O_5  and  C_13 
REMARK    6  A    between atoms: C_8  and  C_16 
ROOT
HETATM    1  O   UNK N   1      35.159  12.481  14.756  0.00  0.00    -0.338 OA
HETATM    2  C   UNK N   1      36.782  14.103  15.448  0.00  0.00     0.156 C 
HETATM    3  C   UNK N   1      35.464  13.378  15.771  0.00  0.00     0.191 C 
HETATM    4  C   UNK N   1      36.633  14.822  14.102  0.00  0.00     0.079 C 
HETATM    5  C   UNK N   1      36.138  14.246  11.689  0.00  0.00     0.077 A 
HETATM    6  C   UNK N   1      34.921  12.229  11.118  0.00  0.00     0.071 A 
HETATM    7  C   UNK N   1      35.317  12.776  13.443  0.00  0.00     0.081 A 
HETATM    8  C   UNK N   1      36.019  13.935  13.054  0.00  0.00     0.011 A 
HETATM    9  C   UNK N   1      35.590  13.394  10.728  0.00  0.00     0.073 A 
HETATM   10  C   UNK N   1      34.783  11.924  12.476  0.00  0.00     0.074 A 
ENDROOT
BRANCH   3  11
HETATM   11  C   UNK N   1      35.409  12.685  17.116  0.00  0.00    -0.024 A 
HETATM   12  C   UNK N   1      35.045  13.402  18.269  0.00  0.00     0.049 A 
HETATM   13  C   UNK N   1      35.063  12.789  19.525  0.00  0.00     0.099 A 
HETATM   14  C   UNK N   1      35.433  11.444  19.638  0.00  0.00     0.098 A 
HETATM   15  C   UNK N   1      35.796  10.722  18.497  0.00  0.00     0.040 A 
HETATM   16  C   UNK N   1      35.798  11.345  17.245  0.00  0.00     0.013 A 
BRANCH  13  17
HETATM   17  O   UNK N   1      34.732  13.499  20.618  0.00  0.00    -0.358 OA
HETATM   18  H   UNK N   1      34.697  13.090  21.460  0.00  0.00     0.217 HD
ENDBRANCH  13  17
BRANCH  14  19
HETATM   19  O   UNK N   1      35.450  10.843  20.841  0.00  0.00    -0.358 OA
HETATM   20  H   UNK N   1      36.230  10.422  21.146  0.00  0.00     0.217 HD
ENDBRANCH  14  19
ENDBRANCH   3  11
BRANCH   2  21
HETATM   21  O   UNK N   1      37.078  15.059  16.420  0.00  0.00    -0.392 OA
HETATM   22  H   UNK N   1      37.285  15.975  16.177  0.00  0.00     0.210 HD
ENDBRANCH   2  21
BRANCH   5  23
HETATM   23  O   UNK N   1      36.783  15.360  11.298  0.00  0.00    -0.360 OA
HETATM   24  H   UNK N   1      36.620  16.174  11.732  0.00  0.00     0.217 HD
ENDBRANCH   5  23
BRANCH   6  25
HETATM   25  O   UNK N   1      34.410  11.405  10.191  0.00  0.00    -0.361 OA
HETATM   26  H   UNK N   1      34.041  11.757   9.404  0.00  0.00     0.217 HD
ENDBRANCH   6  25
TORSDOF 6
ENDMDL
MODEL 4
REMARK VINA RESULT:      -6.6      4.769      9.537
REMARK  6 active torsions:
REMARK  status: ('A' for Active; 'I' for Inactive)
REMARK    1  A    between atoms: C_7  and  O_1 
REMARK    2  A    between atoms: O_2  and  C_10 
REMARK    3  A    between atoms: O_3  and  C_11 
REMARK    4  A    between atoms: O_4  and  C_12 
REMARK    5  A    between atoms: O_5  and  C_13 
REMARK    6  A    between atoms: C_8  and  C_16 
ROOT
HETATM    1  O   UNK N   1      27.561  18.674   6.404  0.00  0.00    -0.338 OA
HETATM    2  C   UNK N   1      28.639  17.943   4.393  0.00  0.00     0.156 C 
HETATM    3  C   UNK N   1      27.315  18.122   5.155  0.00  0.00     0.191 C 
HETATM    4  C   UNK N   1      29.566  17.044   5.220  0.00  0.00     0.079 C 
HETATM    5  C   UNK N   1      30.658  17.035   7.502  0.00  0.00     0.077 A 
HETATM    6  C   UNK N   1      29.710  18.303   9.337  0.00  0.00     0.071 A 
HETATM    7  C   UNK N   1      28.598  18.286   7.187  0.00  0.00     0.081 A 
HETATM    8  C   UNK N   1      29.613  17.460   6.664  0.00  0.00     0.011 A 
HETATM    9  C   UNK N   1      30.703  17.458   8.832  0.00  0.00     0.073 A 
HETATM   10  C   UNK N   1      28.657  18.713   8.514  0.00  0.00     0.074 A 
ENDROOT
BRANCH   3  11
HETATM   11  C   UNK N   1      26.245  18.916   4.433  0.00  0.00    -0.024 A 
HETATM   12  C   UNK N   1      24.894  18.545   4.538  0.00  0.00     0.049 A 
HETATM   13  C   UNK N   1      23.910  19.227   3.817  0.00  0.00     0.099 A 
HETATM   14  C   UNK N   1      24.268  20.299   2.992  0.00  0.00     0.098 A 
HETATM   15  C   UNK N   1      25.609  20.677   2.883  0.00  0.00     0.040 A 
HETATM   16  C   UNK N   1      26.594  19.978   3.588  0.00  0.00     0.013 A 
BRANCH  13  17
HETATM   17  O   UNK N   1      22.625  18.842   3.915  0.00  0.00    -0.358 OA
HETATM   18  H   UNK N   1      21.940  19.477   3.966  0.00  0.00     0.217 HD
ENDBRANCH  13  17
BRANCH  14  19
HETATM   19  O   UNK N   1      23.329  20.965   2.297  0.00  0.00    -0.358 OA
HETATM   20  H   UNK N   1      23.580  21.589   1.644  0.00  0.00     0.217 HD
ENDBRANCH  14  19
ENDBRANCH   3  11
BRANCH   2  21
HETATM   21  O   UNK N   1      28.427  17.328   3.158  0.00  0.00    -0.392 OA
HETATM   22  H   UNK N   1      29.102  17.354   2.462  0.00  0.00     0.210 HD
ENDBRANCH   2  21
BRANCH   5  23
HETATM   23  O   UNK N   1      31.624  16.226   7.029  0.00  0.00    -0.360 OA
HETATM   24  H   UNK N   1      31.396  15.444   6.567  0.00  0.00     0.217 HD
ENDBRANCH   5  23
BRANCH   6  25
HETATM   25  O   UNK N   1      29.765  18.719  10.611  0.00  0.00    -0.361 OA
HETATM   26  H   UNK N   1      29.851  18.093  11.305  0.00  0.00     0.217 HD
ENDBRANCH   6  25
TORSDOF 6
ENDMDL
MODEL 5
REMARK VINA RESULT:      -6.6      1.748      3.632
REMARK  6 active torsions:
REMARK  status: ('A' for Active; 'I' for Inactive)
REMARK    1  A    between atoms: C_7  and  O_1 
REMARK    2  A    between atoms: O_2  and  C_10 
REMARK    3  A    between atoms: O_3  and  C_11 
REMARK    4  A    between atoms: O_4  and  C_12 
REMARK    5  A    between atoms: O_5  and  C_13 
REMARK    6  A    between atoms: C_8  and  C_16 
ROOT
HETATM    1  O   UNK N   1      31.788  17.050   9.020  0.00  0.00    -0.338 OA
HETATM    2  C   UNK N   1      32.617  15.562   7.334  0.00  0.00     0.156 C 
HETATM    3  C   UNK N   1      32.956  16.589   8.428  0.00  0.00     0.191 C 
HETATM    4  C   UNK N   1      31.700  16.227   6.301  0.00  0.00     0.079 C 
HETATM    5  C   UNK N   1      29.432  17.346   6.219  0.00  0.00     0.077 A 
HETATM    6  C   UNK N   1      28.474  18.354   8.203  0.00  0.00     0.071 A 
HETATM    7  C   UNK N   1      30.674  17.351   8.309  0.00  0.00     0.081 A 
HETATM    8  C   UNK N   1      30.578  16.989   6.951  0.00  0.00     0.011 A 
HETATM    9  C   UNK N   1      28.387  18.025   6.847  0.00  0.00     0.073 A 
HETATM   10  C   UNK N   1      29.619  18.020   8.932  0.00  0.00     0.074 A 
ENDROOT
BRANCH   3  11
HETATM   11  C   UNK N   1      33.931  16.120   9.488  0.00  0.00    -0.024 A 
HETATM   12  C   UNK N   1      33.664  14.959  10.234  0.00  0.00     0.049 A 
HETATM   13  C   UNK N   1      34.522  14.561  11.264  0.00  0.00     0.099 A 
HETATM   14  C   UNK N   1      35.666  15.315  11.549  0.00  0.00     0.098 A 
HETATM   15  C   UNK N   1      35.940  16.471  10.811  0.00  0.00     0.040 A 
HETATM   16  C   UNK N   1      35.068  16.878   9.797  0.00  0.00     0.013 A 
BRANCH  13  17
HETATM   17  O   UNK N   1      34.237  13.459  11.979  0.00  0.00    -0.358 OA
HETATM   18  H   UNK N   1      34.479  13.400  12.882  0.00  0.00     0.217 HD
ENDBRANCH  13  17
BRANCH  14  19
HETATM   19  O   UNK N   1      36.500  14.939  12.534  0.00  0.00    -0.358 OA
HETATM   20  H   UNK N   1      36.276  14.221  13.092  0.00  0.00     0.217 HD
ENDBRANCH  14  19
ENDBRANCH   3  11
BRANCH   2  21
HETATM   21  O   UNK N   1      33.770  15.131   6.677  0.00  0.00    -0.392 OA
HETATM   22  H   UNK N   1      33.830  15.143   5.709  0.00  0.00     0.210 HD
ENDBRANCH   2  21
BRANCH   5  23
HETATM   23  O   UNK N   1      29.331  17.031   4.915  0.00  0.00    -0.360 OA
HETATM   24  H   UNK N   1      29.511  16.157   4.628  0.00  0.00     0.217 HD
ENDBRANCH   5  23
BRANCH   6  25
HETATM   25  O   UNK N   1      27.460  18.994   8.807  0.00  0.00    -0.361 OA
HETATM   26  H   UNK N   1      26.830  18.508   9.304  0.00  0.00     0.217 HD
ENDBRANCH   6  25
TORSDOF 6
ENDMDL
MODEL 6
REMARK VINA RESULT:      -6.5     12.434     17.277
REMARK  6 active torsions:
REMARK  status: ('A' for Active; 'I' for Inactive)
REMARK    1  A    between atoms: C_7  and  O_1 
REMARK    2  A    between atoms: O_2  and  C_10 
REMARK    3  A    between atoms: O_3  and  C_11 
REMARK    4  A    between atoms: O_4  and  C_12 
REMARK    5  A    between atoms: O_5  and  C_13 
REMARK    6  A    between atoms: C_8  and  C_16 
ROOT
HETATM    1  O   UNK N   1      28.747  22.904  -5.963  0.00  0.00    -0.338 OA
HETATM    2  C   UNK N   1      27.598  24.399  -4.484  0.00  0.00     0.156 C 
HETATM    3  C   UNK N   1      28.148  24.154  -5.900  0.00  0.00     0.191 C 
HETATM    4  C   UNK N   1      28.751  24.287  -3.480  0.00  0.00     0.079 C 
HETATM    5  C   UNK N   1      30.452  22.572  -2.728  0.00  0.00     0.077 A 
HETATM    6  C   UNK N   1      31.117  20.759  -4.192  0.00  0.00     0.071 A 
HETATM    7  C   UNK N   1      29.535  22.416  -4.974  0.00  0.00     0.081 A 
HETATM    8  C   UNK N   1      29.598  23.069  -3.727  0.00  0.00     0.011 A 
HETATM    9  C   UNK N   1      31.206  21.421  -2.964  0.00  0.00     0.073 A 
HETATM   10  C   UNK N   1      30.284  21.259  -5.197  0.00  0.00     0.074 A 
ENDROOT
BRANCH   3  11
HETATM   11  C   UNK N   1      27.151  24.316  -7.028  0.00  0.00    -0.024 A 
HETATM   12  C   UNK N   1      26.127  23.371  -7.211  0.00  0.00     0.049 A 
HETATM   13  C   UNK N   1      25.248  23.473  -8.293  0.00  0.00     0.099 A 
HETATM   14  C   UNK N   1      25.378  24.533  -9.198  0.00  0.00     0.098 A 
HETATM   15  C   UNK N   1      26.393  25.478  -9.024  0.00  0.00     0.040 A 
HETATM   16  C   UNK N   1      27.284  25.361  -7.953  0.00  0.00     0.013 A 
BRANCH  13  17
HETATM   17  O   UNK N   1      24.289  22.546  -8.462  0.00  0.00    -0.358 OA
HETATM   18  H   UNK N   1      23.552  22.718  -9.014  0.00  0.00     0.217 HD
ENDBRANCH  13  17
BRANCH  14  19
HETATM   19  O   UNK N   1      24.535  24.643 -10.240  0.00  0.00    -0.358 OA
HETATM   20  H   UNK N   1      24.068  23.893 -10.550  0.00  0.00     0.217 HD
ENDBRANCH  14  19
ENDBRANCH   3  11
BRANCH   2  21
HETATM   21  O   UNK N   1      27.049  25.677  -4.374  0.00  0.00    -0.392 OA
HETATM   22  H   UNK N   1      27.496  26.373  -3.868  0.00  0.00     0.210 HD
ENDBRANCH   2  21
BRANCH   5  23
HETATM   23  O   UNK N   1      30.544  23.195  -1.539  0.00  0.00    -0.360 OA
HETATM   24  H   UNK N   1      31.378  23.285  -1.120  0.00  0.00     0.217 HD
ENDBRANCH   5  23
BRANCH   6  25
HETATM   25  O   UNK N   1      31.832  19.644  -4.408  0.00  0.00    -0.361 OA
HETATM   26  H   UNK N   1      32.649  19.693  -4.866  0.00  0.00     0.217 HD
ENDBRANCH   6  25
TORSDOF 6
ENDMDL
MODEL 7
REMARK VINA RESULT:      -6.5     10.908     14.221
REMARK  6 active torsions:
REMARK  status: ('A' for Active; 'I' for Inactive)
REMARK    1  A    between atoms: C_7  and  O_1 
REMARK    2  A    between atoms: O_2  and  C_10 
REMARK    3  A    between atoms: O_3  and  C_11 
REMARK    4  A    between atoms: O_4  and  C_12 
REMARK    5  A    between atoms: O_5  and  C_13 
REMARK    6  A    between atoms: C_8  and  C_16 
ROOT
HETATM    1  O   UNK N   1      20.563  17.186   5.333  0.00  0.00    -0.338 OA
HETATM    2  C   UNK N   1      22.890  16.875   4.850  0.00  0.00     0.156 C 
HETATM    3  C   UNK N   1      21.465  17.028   4.290  0.00  0.00     0.191 C 
HETATM    4  C   UNK N   1      22.922  15.669   5.795  0.00  0.00     0.079 C 
HETATM    5  C   UNK N   1      21.797  14.899   7.927  0.00  0.00     0.077 A 
HETATM    6  C   UNK N   1      19.618  15.751   8.558  0.00  0.00     0.071 A 
HETATM    7  C   UNK N   1      20.630  16.464   6.477  0.00  0.00     0.081 A 
HETATM    8  C   UNK N   1      21.763  15.674   6.754  0.00  0.00     0.011 A 
HETATM    9  C   UNK N   1      20.727  14.942   8.822  0.00  0.00     0.073 A 
HETATM   10  C   UNK N   1      19.570  16.509   7.384  0.00  0.00     0.074 A 
ENDROOT
BRANCH   3  11
HETATM   11  C   UNK N   1      21.278  18.126   3.264  0.00  0.00    -0.024 A 
HETATM   12  C   UNK N   1      21.770  19.419   3.510  0.00  0.00     0.049 A 
HETATM   13  C   UNK N   1      21.537  20.455   2.601  0.00  0.00     0.099 A 
HETATM   14  C   UNK N   1      20.819  20.204   1.426  0.00  0.00     0.098 A 
HETATM   15  C   UNK N   1      20.328  18.920   1.172  0.00  0.00     0.040 A 
HETATM   16  C   UNK N   1      20.543  17.891   2.093  0.00  0.00     0.013 A 
BRANCH  13  17
HETATM   17  O   UNK N   1      21.997  21.690   2.867  0.00  0.00    -0.358 OA
HETATM   18  H   UNK N   1      21.974  22.359   2.212  0.00  0.00     0.217 HD
ENDBRANCH  13  17
BRANCH  14  19
HETATM   19  O   UNK N   1      20.593  21.192   0.543  0.00  0.00    -0.358 OA
HETATM   20  H   UNK N   1      21.312  21.651   0.155  0.00  0.00     0.217 HD
ENDBRANCH  14  19
ENDBRANCH   3  11
BRANCH   2  21
HETATM   21  O   UNK N   1      23.809  16.648   3.825  0.00  0.00    -0.392 OA
HETATM   22  H   UNK N   1      23.705  15.902   3.214  0.00  0.00     0.210 HD
ENDBRANCH   2  21
BRANCH   5  23
HETATM   23  O   UNK N   1      22.860  14.120   8.198  0.00  0.00    -0.360 OA
HETATM   24  H   UNK N   1      22.734  13.262   8.553  0.00  0.00     0.217 HD
ENDBRANCH   5  23
BRANCH   6  25
HETATM   25  O   UNK N   1      18.598  15.801   9.428  0.00  0.00    -0.361 OA
HETATM   26  H   UNK N   1      18.587  16.456  10.100  0.00  0.00     0.217 HD
ENDBRANCH   6  25
TORSDOF 6
ENDMDL
MODEL 8
REMARK VINA RESULT:      -6.5     10.146     13.889
REMARK  6 active torsions:
REMARK  status: ('A' for Active; 'I' for Inactive)
REMARK    1  A    between atoms: C_7  and  O_1 
REMARK    2  A    between atoms: O_2  and  C_10 
REMARK    3  A    between atoms: O_3  and  C_11 
REMARK    4  A    between atoms: O_4  and  C_12 
REMARK    5  A    between atoms: O_5  and  C_13 
REMARK    6  A    between atoms: C_8  and  C_16 
ROOT
HETATM    1  O   UNK N   1      22.176  16.725   4.945  0.00  0.00    -0.338 OA
HETATM    2  C   UNK N   1      19.892  16.044   4.698  0.00  0.00     0.156 C 
HETATM    3  C   UNK N   1      20.896  17.209   4.714  0.00  0.00     0.191 C 
HETATM    4  C   UNK N   1      19.969  15.308   6.041  0.00  0.00     0.079 C 
HETATM    5  C   UNK N   1      21.682  14.063   7.426  0.00  0.00     0.077 A 
HETATM    6  C   UNK N   1      24.050  14.498   7.155  0.00  0.00     0.071 A 
HETATM    7  C   UNK N   1      22.441  15.758   5.857  0.00  0.00     0.081 A 
HETATM    8  C   UNK N   1      21.390  15.034   6.452  0.00  0.00     0.011 A 
HETATM    9  C   UNK N   1      23.009  13.799   7.772  0.00  0.00     0.073 A 
HETATM   10  C   UNK N   1      23.765  15.479   6.200  0.00  0.00     0.074 A 
ENDROOT
BRANCH   3  11
HETATM   11  C   UNK N   1      20.886  18.100   3.489  0.00  0.00    -0.024 A 
HETATM   12  C   UNK N   1      21.206  19.464   3.601  0.00  0.00     0.049 A 
HETATM   13  C   UNK N   1      21.127  20.307   2.489  0.00  0.00     0.099 A 
HETATM   14  C   UNK N   1      20.740  19.790   1.248  0.00  0.00     0.098 A 
HETATM   15  C   UNK N   1      20.422  18.434   1.126  0.00  0.00     0.040 A 
HETATM   16  C   UNK N   1      20.480  17.598   2.245  0.00  0.00     0.013 A 
BRANCH  13  17
HETATM   17  O   UNK N   1      21.417  21.614   2.622  0.00  0.00    -0.358 OA
HETATM   18  H   UNK N   1      22.053  21.900   3.247  0.00  0.00     0.217 HD
ENDBRANCH  13  17
BRANCH  14  19
HETATM   19  O   UNK N   1      20.666  20.591   0.171  0.00  0.00    -0.358 OA
HETATM   20  H   UNK N   1      21.266  20.482  -0.541  0.00  0.00     0.217 HD
ENDBRANCH  14  19
ENDBRANCH   3  11
BRANCH   2  21
HETATM   21  O   UNK N   1      18.587  16.510   4.533  0.00  0.00    -0.392 OA
HETATM   22  H   UNK N   1      18.018  16.168   3.826  0.00  0.00     0.210 HD
ENDBRANCH   2  21
BRANCH   5  23
HETATM   23  O   UNK N   1      20.691  13.378   8.024  0.00  0.00    -0.360 OA
HETATM   24  H   UNK N   1      19.956  13.082   7.523  0.00  0.00     0.217 HD
ENDBRANCH   5  23
BRANCH   6  25
HETATM   25  O   UNK N   1      25.325  14.230   7.479  0.00  0.00    -0.361 OA
HETATM   26  H   UNK N   1      25.824  13.631   6.958  0.00  0.00     0.217 HD
ENDBRANCH   6  25
TORSDOF 6
ENDMDL
MODEL 9
REMARK VINA RESULT:      -6.4     12.645     15.856
REMARK  6 active torsions:
REMARK  status: ('A' for Active; 'I' for Inactive)
REMARK    1  A    between atoms: C_7  and  O_1 
REMARK    2  A    between atoms: O_2  and  C_10 
REMARK    3  A    between atoms: O_3  and  C_11 
REMARK    4  A    between atoms: O_4  and  C_12 
REMARK    5  A    between atoms: O_5  and  C_13 
REMARK    6  A    between atoms: C_8  and  C_16 
ROOT
HETATM    1  O   UNK N   1      29.122  25.815  -4.286  0.00  0.00    -0.338 OA
HETATM    2  C   UNK N   1      27.252  24.801  -3.184  0.00  0.00     0.156 C 
HETATM    3  C   UNK N   1      28.336  24.672  -4.267  0.00  0.00     0.191 C 
HETATM    4  C   UNK N   1      26.408  26.046  -3.476  0.00  0.00     0.079 C 
HETATM    5  C   UNK N   1      26.732  28.544  -3.717  0.00  0.00     0.077 A 
HETATM    6  C   UNK N   1      28.891  29.462  -4.326  0.00  0.00     0.071 A 
HETATM    7  C   UNK N   1      28.607  27.063  -4.169  0.00  0.00     0.081 A 
HETATM    8  C   UNK N   1      27.261  27.244  -3.793  0.00  0.00     0.011 A 
HETATM    9  C   UNK N   1      27.548  29.646  -3.983  0.00  0.00     0.073 A 
HETATM   10  C   UNK N   1      29.417  28.171  -4.422  0.00  0.00     0.074 A 
ENDROOT
BRANCH   3  11
HETATM   11  C   UNK N   1      29.209  23.437  -4.178  0.00  0.00    -0.024 A 
HETATM   12  C   UNK N   1      30.082  23.262  -3.091  0.00  0.00     0.049 A 
HETATM   13  C   UNK N   1      30.943  22.162  -3.039  0.00  0.00     0.099 A 
HETATM   14  C   UNK N   1      30.930  21.217  -4.071  0.00  0.00     0.098 A 
HETATM   15  C   UNK N   1      30.064  21.382  -5.156  0.00  0.00     0.040 A 
HETATM   16  C   UNK N   1      29.219  22.495  -5.216  0.00  0.00     0.013 A 
BRANCH  13  17
HETATM   17  O   UNK N   1      31.786  22.024  -2.000  0.00  0.00    -0.358 OA
HETATM   18  H   UNK N   1      32.500  21.421  -2.043  0.00  0.00     0.217 HD
ENDBRANCH  13  17
BRANCH  14  19
HETATM   19  O   UNK N   1      31.751  20.153  -4.029  0.00  0.00    -0.358 OA
HETATM   20  H   UNK N   1      31.405  19.287  -4.119  0.00  0.00     0.217 HD
ENDBRANCH  14  19
ENDBRANCH   3  11
BRANCH   2  21
HETATM   21  O   UNK N   1      26.405  23.692  -3.188  0.00  0.00    -0.392 OA
HETATM   22  H   UNK N   1      25.494  23.755  -2.863  0.00  0.00     0.210 HD
ENDBRANCH   2  21
BRANCH   5  23
HETATM   23  O   UNK N   1      25.443  28.737  -3.383  0.00  0.00    -0.360 OA
HETATM   24  H   UNK N   1      24.762  28.344  -3.892  0.00  0.00     0.217 HD
ENDBRANCH   5  23
BRANCH   6  25
HETATM   25  O   UNK N   1      29.675  30.524  -4.565  0.00  0.00    -0.361 OA
HETATM   26  H   UNK N   1      29.334  31.392  -4.458  0.00  0.00     0.217 HD
ENDBRANCH   6  25
TORSDOF 6
ENDMDL
