MODEL 1
REMARK VINA RESULT:      -7.8      0.000      0.000
REMARK  6 active torsions:
REMARK  status: ('A' for Active; 'I' for Inactive)
REMARK    1  A    between atoms: C_2  and  C_3 
REMARK    2  A    between atoms: C_2  and  O_31 
REMARK    3  A    between atoms: C_3  and  N_4 
REMARK    4  A    between atoms: C_8  and  C_20 
REMARK    5  A    between atoms: C_22  and  C_27 
REMARK    6  A    between atoms: C_27  and  O_30 
ROOT
HETATM    1  N   UNK N   1      22.875  19.120   3.763  0.00  0.00    -0.294 N 
HETATM    2  C   UNK N   1      21.758  18.357   3.738  0.00  0.00     0.080 A 
HETATM    3  C   UNK N   1      21.488  17.158   4.386  0.00  0.00     0.021 A 
HETATM    4  C   UNK N   1      22.421  16.550   5.202  0.00  0.00     0.028 A 
HETATM    5  C   UNK N   1      22.134  15.356   5.864  0.00  0.00    -0.024 A 
HETATM    6  C   UNK N   1      20.870  14.761   5.691  0.00  0.00     0.014 A 
HETATM    7  C   UNK N   1      19.913  15.368   4.855  0.00  0.00     0.031 A 
HETATM    8  C   UNK N   1      20.215  16.572   4.199  0.00  0.00     0.044 A 
HETATM    9  N   UNK N   1      19.291  17.185   3.388  0.00  0.00    -0.363 N 
ATOM     10  HN  UNK N   1      18.377  16.750   3.259  1.00  0.00     0.165 HD
HETATM   11  C   UNK N   1      19.565  18.368   2.749  0.00  0.00     0.120 A 
HETATM   12  C   UNK N   1      20.821  18.948   2.940  0.00  0.00     0.081 A 
HETATM   13  N   UNK N   1      21.320  20.095   2.441  0.00  0.00    -0.300 N 
HETATM   14  C   UNK N   1      22.580  20.185   2.961  0.00  0.00     0.329 A 
HETATM   15  O   UNK N   1      23.347  21.106   2.740  0.00  0.00    -0.246 OA
HETATM   16  C   UNK N   1      20.659  21.039   1.555  0.00  0.00     0.161 C 
ENDROOT
BRANCH   5  17
HETATM   17  C   UNK N   1      23.178  14.794   6.749  0.00  0.00    -0.010 A 
HETATM   18  C   UNK N   1      22.780  14.045   7.860  0.00  0.00     0.025 A 
HETATM   19  C   UNK N   1      23.713  13.453   8.704  0.00  0.00    -0.009 A 
HETATM   20  C   UNK N   1      25.073  13.626   8.413  0.00  0.00     0.097 A 
HETATM   21  N   UNK N   1      25.457  14.366   7.334  0.00  0.00    -0.374 N 
HETATM   22  C   UNK N   1      24.546  14.947   6.501  0.00  0.00     0.100 A 
ATOM     23  HN  UNK N   1      26.452  14.489   7.144  1.00  0.00     0.164 HD
BRANCH  19  24
HETATM   24  C   UNK N   1      23.233  12.643   9.887  0.00  0.00     0.079 C 
HETATM   25  C   UNK N   1      21.844  13.102  10.298  0.00  0.00     0.051 C 
HETATM   26  C   UNK N   1      23.166  11.170   9.519  0.00  0.00     0.051 C 
BRANCH  24  27
HETATM   27  O   UNK N   1      24.092  12.791  10.977  0.00  0.00    -0.386 OA
HETATM   28  H   UNK N   1      23.829  13.318  11.748  0.00  0.00     0.211 HD
ENDBRANCH  24  27
ENDBRANCH  19  24
ENDBRANCH   5  17
BRANCH   1  29
HETATM   29  C   UNK N   1      24.106  18.865   4.515  0.00  0.00     0.165 C 
BRANCH  29  30
HETATM   30  C   UNK N   1      25.306  18.539   3.627  0.00  0.00     0.135 C 
HETATM   31  C   UNK N   1      25.489  17.042   3.438  0.00  0.00     0.041 C 
BRANCH  30  32
HETATM   32  O   UNK N   1      26.458  19.067   4.218  0.00  0.00    -0.389 OA
HETATM   33  C   UNK N   1      26.696  20.274   3.558  0.00  0.00     0.202 C 
ENDBRANCH  30  32
ENDBRANCH  29  30
ENDBRANCH   1  29
TORSDOF 6
ENDMDL
MODEL 2
REMARK VINA RESULT:      -7.5      3.744      5.209
REMARK  6 active torsions:
REMARK  status: ('A' for Active; 'I' for Inactive)
REMARK    1  A    between atoms: C_2  and  C_3 
REMARK    2  A    between atoms: C_2  and  O_31 
REMARK    3  A    between atoms: C_3  and  N_4 
REMARK    4  A    between atoms: C_8  and  C_20 
REMARK    5  A    between atoms: C_22  and  C_27 
REMARK    6  A    between atoms: C_27  and  O_30 
ROOT
HETATM    1  N   UNK N   1      24.852  19.414   3.621  0.00  0.00    -0.294 N 
HETATM    2  C   UNK N   1      24.249  18.394   4.274  0.00  0.00     0.080 A 
HETATM    3  C   UNK N   1      24.810  17.356   5.009  0.00  0.00     0.021 A 
HETATM    4  C   UNK N   1      26.177  17.236   5.166  0.00  0.00     0.028 A 
HETATM    5  C   UNK N   1      26.730  16.203   5.921  0.00  0.00    -0.024 A 
HETATM    6  C   UNK N   1      25.877  15.264   6.531  0.00  0.00     0.014 A 
HETATM    7  C   UNK N   1      24.481  15.372   6.372  0.00  0.00     0.031 A 
HETATM    8  C   UNK N   1      23.939  16.420   5.612  0.00  0.00     0.044 A 
HETATM    9  N   UNK N   1      22.580  16.549   5.455  0.00  0.00    -0.363 N 
ATOM     10  HN  UNK N   1      21.962  15.865   5.893  1.00  0.00     0.165 HD
HETATM   11  C   UNK N   1      22.033  17.574   4.726  0.00  0.00     0.120 A 
HETATM   12  C   UNK N   1      22.895  18.500   4.136  0.00  0.00     0.081 A 
HETATM   13  N   UNK N   1      22.608  19.587   3.394  0.00  0.00    -0.300 N 
HETATM   14  C   UNK N   1      23.821  20.135   3.091  0.00  0.00     0.329 A 
HETATM   15  O   UNK N   1      23.968  21.150   2.430  0.00  0.00    -0.246 OA
HETATM   16  C   UNK N   1      21.294  20.077   3.010  0.00  0.00     0.161 C 
ENDROOT
BRANCH   5  17
HETATM   17  C   UNK N   1      28.202  16.172   6.068  0.00  0.00    -0.010 A 
HETATM   18  C   UNK N   1      28.777  16.813   7.169  0.00  0.00     0.025 A 
HETATM   19  C   UNK N   1      30.151  16.781   7.387  0.00  0.00    -0.009 A 
HETATM   20  C   UNK N   1      30.951  16.086   6.470  0.00  0.00     0.097 A 
HETATM   21  N   UNK N   1      30.386  15.470   5.392  0.00  0.00    -0.374 N 
HETATM   22  C   UNK N   1      29.039  15.496   5.174  0.00  0.00     0.100 A 
ATOM     23  HN  UNK N   1      30.986  14.976   4.731  1.00  0.00     0.164 HD
BRANCH  19  24
HETATM   24  C   UNK N   1      30.725  17.481   8.597  0.00  0.00     0.079 C 
HETATM   25  C   UNK N   1      32.146  17.934   8.306  0.00  0.00     0.051 C 
HETATM   26  C   UNK N   1      29.888  18.703   8.939  0.00  0.00     0.051 C 
BRANCH  24  27
HETATM   27  O   UNK N   1      30.745  16.632   9.704  0.00  0.00    -0.386 OA
HETATM   28  H   UNK N   1      31.556  16.159   9.952  0.00  0.00     0.211 HD
ENDBRANCH  24  27
ENDBRANCH  19  24
ENDBRANCH   5  17
BRANCH   1  29
HETATM   29  C   UNK N   1      26.288  19.688   3.539  0.00  0.00     0.165 C 
BRANCH  29  30
HETATM   30  C   UNK N   1      26.778  20.686   4.588  0.00  0.00     0.135 C 
HETATM   31  C   UNK N   1      28.098  20.262   5.210  0.00  0.00     0.041 C 
BRANCH  30  32
HETATM   32  O   UNK N   1      25.812  20.787   5.595  0.00  0.00    -0.389 OA
HETATM   33  C   UNK N   1      26.508  21.175   6.741  0.00  0.00     0.202 C 
ENDBRANCH  30  32
ENDBRANCH  29  30
ENDBRANCH   1  29
TORSDOF 6
ENDMDL
MODEL 3
REMARK VINA RESULT:      -7.5      6.787      8.871
REMARK  6 active torsions:
REMARK  status: ('A' for Active; 'I' for Inactive)
REMARK    1  A    between atoms: C_2  and  C_3 
REMARK    2  A    between atoms: C_2  and  O_31 
REMARK    3  A    between atoms: C_3  and  N_4 
REMARK    4  A    between atoms: C_8  and  C_20 
REMARK    5  A    between atoms: C_22  and  C_27 
REMARK    6  A    between atoms: C_27  and  O_30 
ROOT
HETATM    1  N   UNK N   1      29.496  15.819   4.062  0.00  0.00    -0.294 N 
HETATM    2  C   UNK N   1      28.749  16.511   4.954  0.00  0.00     0.080 A 
HETATM    3  C   UNK N   1      29.108  17.047   6.185  0.00  0.00     0.021 A 
HETATM    4  C   UNK N   1      30.388  16.917   6.686  0.00  0.00     0.028 A 
HETATM    5  C   UNK N   1      30.745  17.475   7.913  0.00  0.00    -0.024 A 
HETATM    6  C   UNK N   1      29.778  18.180   8.654  0.00  0.00     0.014 A 
HETATM    7  C   UNK N   1      28.466  18.312   8.157  0.00  0.00     0.031 A 
HETATM    8  C   UNK N   1      28.124  17.748   6.918  0.00  0.00     0.044 A 
HETATM    9  N   UNK N   1      26.854  17.877   6.411  0.00  0.00    -0.363 N 
ATOM     10  HN  UNK N   1      26.151  18.383   6.951  1.00  0.00     0.165 HD
HETATM   11  C   UNK N   1      26.505  17.343   5.196  0.00  0.00     0.120 A 
HETATM   12  C   UNK N   1      27.481  16.655   4.471  0.00  0.00     0.081 A 
HETATM   13  N   UNK N   1      27.393  16.060   3.266  0.00  0.00    -0.300 N 
HETATM   14  C   UNK N   1      28.641  15.556   3.032  0.00  0.00     0.329 A 
HETATM   15  O   UNK N   1      28.955  14.949   2.021  0.00  0.00    -0.246 OA
HETATM   16  C   UNK N   1      26.229  15.981   2.398  0.00  0.00     0.161 C 
ENDROOT
BRANCH   5  17
HETATM   17  C   UNK N   1      32.148  17.321   8.356  0.00  0.00    -0.010 A 
HETATM   18  C   UNK N   1      32.531  16.119   8.957  0.00  0.00     0.025 A 
HETATM   19  C   UNK N   1      33.846  15.896   9.354  0.00  0.00    -0.009 A 
HETATM   20  C   UNK N   1      34.784  16.914   9.137  0.00  0.00     0.097 A 
HETATM   21  N   UNK N   1      34.403  18.090   8.560  0.00  0.00    -0.374 N 
HETATM   22  C   UNK N   1      33.117  18.312   8.166  0.00  0.00     0.100 A 
ATOM     23  HN  UNK N   1      35.099  18.822   8.419  1.00  0.00     0.164 HD
BRANCH  19  24
HETATM   24  C   UNK N   1      34.213  14.575   9.990  0.00  0.00     0.079 C 
HETATM   25  C   UNK N   1      33.637  13.431   9.174  0.00  0.00     0.051 C 
HETATM   26  C   UNK N   1      35.725  14.422  10.039  0.00  0.00     0.051 C 
BRANCH  24  27
HETATM   27  O   UNK N   1      33.716  14.490  11.291  0.00  0.00    -0.386 OA
HETATM   28  H   UNK N   1      34.295  14.644  12.055  0.00  0.00     0.211 HD
ENDBRANCH  24  27
ENDBRANCH  19  24
ENDBRANCH   5  17
BRANCH   1  29
HETATM   29  C   UNK N   1      30.914  15.469   4.176  0.00  0.00     0.165 C 
BRANCH  29  30
HETATM   30  C   UNK N   1      31.811  16.243   3.212  0.00  0.00     0.135 C 
HETATM   31  C   UNK N   1      33.201  15.635   3.108  0.00  0.00     0.041 C 
BRANCH  30  32
HETATM   32  O   UNK N   1      31.924  17.561   3.665  0.00  0.00    -0.389 OA
HETATM   33  C   UNK N   1      33.063  17.582   4.473  0.00  0.00     0.202 C 
ENDBRANCH  30  32
ENDBRANCH  29  30
ENDBRANCH   1  29
TORSDOF 6
ENDMDL
MODEL 4
REMARK VINA RESULT:      -7.2      3.382      5.530
REMARK  6 active torsions:
REMARK  status: ('A' for Active; 'I' for Inactive)
REMARK    1  A    between atoms: C_2  and  C_3 
REMARK    2  A    between atoms: C_2  and  O_31 
REMARK    3  A    between atoms: C_3  and  N_4 
REMARK    4  A    between atoms: C_8  and  C_20 
REMARK    5  A    between atoms: C_22  and  C_27 
REMARK    6  A    between atoms: C_27  and  O_30 
ROOT
HETATM    1  N   UNK N   1      22.663  17.603   4.817  0.00  0.00    -0.294 N 
HETATM    2  C   UNK N   1      23.171  18.639   4.109  0.00  0.00     0.080 A 
HETATM    3  C   UNK N   1      24.478  19.108   4.037  0.00  0.00     0.021 A 
HETATM    4  C   UNK N   1      25.500  18.516   4.752  0.00  0.00     0.028 A 
HETATM    5  C   UNK N   1      26.811  18.980   4.659  0.00  0.00    -0.024 A 
HETATM    6  C   UNK N   1      27.094  20.077   3.821  0.00  0.00     0.014 A 
HETATM    7  C   UNK N   1      26.058  20.693   3.093  0.00  0.00     0.031 A 
HETATM    8  C   UNK N   1      24.743  20.211   3.195  0.00  0.00     0.044 A 
HETATM    9  N   UNK N   1      23.722  20.792   2.483  0.00  0.00    -0.363 N 
ATOM     10  HN  UNK N   1      23.926  21.590   1.881  1.00  0.00     0.165 HD
HETATM   11  C   UNK N   1      22.433  20.326   2.561  0.00  0.00     0.120 A 
HETATM   12  C   UNK N   1      22.174  19.232   3.390  0.00  0.00     0.081 A 
HETATM   13  N   UNK N   1      21.014  18.589   3.624  0.00  0.00    -0.300 N 
HETATM   14  C   UNK N   1      21.336  17.591   4.499  0.00  0.00     0.329 A 
HETATM   15  O   UNK N   1      20.535  16.784   4.940  0.00  0.00    -0.246 OA
HETATM   16  C   UNK N   1      19.707  18.884   3.059  0.00  0.00     0.161 C 
ENDROOT
BRANCH   5  17
HETATM   17  C   UNK N   1      27.851  18.264   5.429  0.00  0.00    -0.010 A 
HETATM   18  C   UNK N   1      27.889  18.431   6.816  0.00  0.00     0.025 A 
HETATM   19  C   UNK N   1      28.814  17.749   7.601  0.00  0.00    -0.009 A 
HETATM   20  C   UNK N   1      29.715  16.885   6.963  0.00  0.00     0.097 A 
HETATM   21  N   UNK N   1      29.680  16.734   5.608  0.00  0.00    -0.374 N 
HETATM   22  C   UNK N   1      28.774  17.397   4.834  0.00  0.00     0.100 A 
ATOM     23  HN  UNK N   1      30.350  16.107   5.161  1.00  0.00     0.164 HD
BRANCH  19  24
HETATM   24  C   UNK N   1      28.809  17.955   9.098  0.00  0.00     0.079 C 
HETATM   25  C   UNK N   1      29.138  16.649   9.800  0.00  0.00     0.051 C 
HETATM   26  C   UNK N   1      29.853  18.989   9.486  0.00  0.00     0.051 C 
BRANCH  24  27
HETATM   27  O   UNK N   1      27.561  18.396   9.538  0.00  0.00    -0.386 OA
HETATM   28  H   UNK N   1      27.111  17.956  10.278  0.00  0.00     0.211 HD
ENDBRANCH  24  27
ENDBRANCH  19  24
ENDBRANCH   5  17
BRANCH   1  29
HETATM   29  C   UNK N   1      23.393  16.687   5.696  0.00  0.00     0.165 C 
BRANCH  29  30
HETATM   30  C   UNK N   1      23.731  15.351   5.038  0.00  0.00     0.135 C 
HETATM   31  C   UNK N   1      25.022  14.756   5.577  0.00  0.00     0.041 C 
BRANCH  30  32
HETATM   32  O   UNK N   1      23.863  15.551   3.660  0.00  0.00    -0.389 OA
HETATM   33  C   UNK N   1      25.119  15.039   3.327  0.00  0.00     0.202 C 
ENDBRANCH  30  32
ENDBRANCH  29  30
ENDBRANCH   1  29
TORSDOF 6
ENDMDL
MODEL 5
REMARK VINA RESULT:      -7.0     15.308     19.441
REMARK  6 active torsions:
REMARK  status: ('A' for Active; 'I' for Inactive)
REMARK    1  A    between atoms: C_2  and  C_3 
REMARK    2  A    between atoms: C_2  and  O_31 
REMARK    3  A    between atoms: C_3  and  N_4 
REMARK    4  A    between atoms: C_8  and  C_20 
REMARK    5  A    between atoms: C_22  and  C_27 
REMARK    6  A    between atoms: C_27  and  O_30 
ROOT
HETATM    1  N   UNK N   1      35.313   8.637  17.895  0.00  0.00    -0.294 N 
HETATM    2  C   UNK N   1      35.175   9.727  18.685  0.00  0.00     0.080 A 
HETATM    3  C   UNK N   1      35.271  11.076  18.361  0.00  0.00     0.021 A 
HETATM    4  C   UNK N   1      35.549  11.493  17.075  0.00  0.00     0.028 A 
HETATM    5  C   UNK N   1      35.624  12.849  16.755  0.00  0.00    -0.024 A 
HETATM    6  C   UNK N   1      35.414  13.806  17.766  0.00  0.00     0.014 A 
HETATM    7  C   UNK N   1      35.137  13.391  19.084  0.00  0.00     0.031 A 
HETATM    8  C   UNK N   1      35.061  12.023  19.389  0.00  0.00     0.044 A 
HETATM    9  N   UNK N   1      34.780  11.599  20.665  0.00  0.00    -0.363 N 
ATOM     10  HN  UNK N   1      34.634  12.293  21.399  1.00  0.00     0.165 HD
HETATM   11  C   UNK N   1      34.690  10.267  20.979  0.00  0.00     0.120 A 
HETATM   12  C   UNK N   1      34.891   9.332  19.960  0.00  0.00     0.081 A 
HETATM   13  N   UNK N   1      34.844   7.987  20.010  0.00  0.00    -0.300 N 
HETATM   14  C   UNK N   1      35.102   7.580  18.732  0.00  0.00     0.329 A 
HETATM   15  O   UNK N   1      35.135   6.413  18.379  0.00  0.00    -0.246 OA
HETATM   16  C   UNK N   1      34.567   7.151  21.166  0.00  0.00     0.161 C 
ENDROOT
BRANCH   5  17
HETATM   17  C   UNK N   1      35.889  13.208  15.345  0.00  0.00    -0.010 A 
HETATM   18  C   UNK N   1      35.387  12.380  14.338  0.00  0.00     0.025 A 
HETATM   19  C   UNK N   1      35.565  12.688  12.993  0.00  0.00    -0.009 A 
HETATM   20  C   UNK N   1      36.265  13.858  12.669  0.00  0.00     0.097 A 
HETATM   21  N   UNK N   1      36.762  14.658  13.655  0.00  0.00    -0.374 N 
HETATM   22  C   UNK N   1      36.589  14.362  14.975  0.00  0.00     0.100 A 
ATOM     23  HN  UNK N   1      37.277  15.501  13.399  1.00  0.00     0.164 HD
BRANCH  19  24
HETATM   24  C   UNK N   1      34.994  11.766  11.940  0.00  0.00     0.079 C 
HETATM   25  C   UNK N   1      36.117  11.178  11.104  0.00  0.00     0.051 C 
HETATM   26  C   UNK N   1      34.236  10.626  12.601  0.00  0.00     0.051 C 
BRANCH  24  27
HETATM   27  O   UNK N   1      34.120  12.451  11.095  0.00  0.00    -0.386 OA
HETATM   28  H   UNK N   1      33.206  12.148  10.975  0.00  0.00     0.211 HD
ENDBRANCH  24  27
ENDBRANCH  19  24
ENDBRANCH   5  17
BRANCH   1  29
HETATM   29  C   UNK N   1      35.593   8.615  16.457  0.00  0.00     0.165 C 
BRANCH  29  30
HETATM   30  C   UNK N   1      37.074   8.434  16.128  0.00  0.00     0.135 C 
HETATM   31  C   UNK N   1      37.499   9.257  14.923  0.00  0.00     0.041 C 
BRANCH  30  32
HETATM   32  O   UNK N   1      37.312   7.082  15.861  0.00  0.00    -0.389 OA
HETATM   33  C   UNK N   1      38.590   6.822  16.360  0.00  0.00     0.202 C 
ENDBRANCH  30  32
ENDBRANCH  29  30
ENDBRANCH   1  29
TORSDOF 6
ENDMDL
MODEL 6
REMARK VINA RESULT:      -6.8      6.044      8.054
REMARK  6 active torsions:
REMARK  status: ('A' for Active; 'I' for Inactive)
REMARK    1  A    between atoms: C_2  and  C_3 
REMARK    2  A    between atoms: C_2  and  O_31 
REMARK    3  A    between atoms: C_3  and  N_4 
REMARK    4  A    between atoms: C_8  and  C_20 
REMARK    5  A    between atoms: C_22  and  C_27 
REMARK    6  A    between atoms: C_27  and  O_30 
ROOT
HETATM    1  N   UNK N   1      27.426  16.625   4.324  0.00  0.00    -0.294 N 
HETATM    2  C   UNK N   1      27.538  17.565   5.290  0.00  0.00     0.080 A 
HETATM    3  C   UNK N   1      28.451  17.659   6.335  0.00  0.00     0.021 A 
HETATM    4  C   UNK N   1      29.436  16.710   6.523  0.00  0.00     0.028 A 
HETATM    5  C   UNK N   1      30.360  16.823   7.561  0.00  0.00    -0.024 A 
HETATM    6  C   UNK N   1      30.281  17.925   8.434  0.00  0.00     0.014 A 
HETATM    7  C   UNK N   1      29.276  18.896   8.256  0.00  0.00     0.031 A 
HETATM    8  C   UNK N   1      28.356  18.770   7.204  0.00  0.00     0.044 A 
HETATM    9  N   UNK N   1      27.376  19.713   7.007  0.00  0.00    -0.363 N 
ATOM     10  HN  UNK N   1      27.316  20.508   7.643  1.00  0.00     0.165 HD
HETATM   11  C   UNK N   1      26.476  19.612   5.976  0.00  0.00     0.120 A 
HETATM   12  C   UNK N   1      26.576  18.517   5.115  0.00  0.00     0.081 A 
HETATM   13  N   UNK N   1      25.831  18.203   4.037  0.00  0.00    -0.300 N 
HETATM   14  C   UNK N   1      26.371  17.041   3.564  0.00  0.00     0.329 A 
HETATM   15  O   UNK N   1      25.963  16.449   2.579  0.00  0.00    -0.246 OA
HETATM   16  C   UNK N   1      24.708  18.945   3.489  0.00  0.00     0.161 C 
ENDROOT
BRANCH   5  17
HETATM   17  C   UNK N   1      31.405  15.782   7.668  0.00  0.00    -0.010 A 
HETATM   18  C   UNK N   1      32.284  15.825   8.753  0.00  0.00     0.025 A 
HETATM   19  C   UNK N   1      33.260  14.850   8.932  0.00  0.00    -0.009 A 
HETATM   20  C   UNK N   1      33.341  13.813   7.992  0.00  0.00     0.097 A 
HETATM   21  N   UNK N   1      32.487  13.781   6.929  0.00  0.00    -0.374 N 
HETATM   22  C   UNK N   1      31.527  14.733   6.749  0.00  0.00     0.100 A 
ATOM     23  HN  UNK N   1      32.567  13.024   6.250  1.00  0.00     0.164 HD
BRANCH  19  24
HETATM   24  C   UNK N   1      34.181  14.935  10.128  0.00  0.00     0.079 C 
HETATM   25  C   UNK N   1      35.186  13.796  10.088  0.00  0.00     0.051 C 
HETATM   26  C   UNK N   1      34.940  16.251  10.109  0.00  0.00     0.051 C 
BRANCH  24  27
HETATM   27  O   UNK N   1      33.461  14.853  11.321  0.00  0.00    -0.386 OA
HETATM   28  H   UNK N   1      33.471  14.039  11.851  0.00  0.00     0.211 HD
ENDBRANCH  24  27
ENDBRANCH  19  24
ENDBRANCH   5  17
BRANCH   1  29
HETATM   29  C   UNK N   1      28.275  15.447   4.130  0.00  0.00     0.165 C 
BRANCH  29  30
HETATM   30  C   UNK N   1      29.239  15.580   2.952  0.00  0.00     0.135 C 
HETATM   31  C   UNK N   1      30.290  14.482   2.946  0.00  0.00     0.041 C 
BRANCH  30  32
HETATM   32  O   UNK N   1      29.878  16.821   3.035  0.00  0.00    -0.389 OA
HETATM   33  C   UNK N   1      31.239  16.533   3.153  0.00  0.00     0.202 C 
ENDBRANCH  30  32
ENDBRANCH  29  30
ENDBRANCH   1  29
TORSDOF 6
ENDMDL
MODEL 7
REMARK VINA RESULT:      -6.8      3.403      6.392
REMARK  6 active torsions:
REMARK  status: ('A' for Active; 'I' for Inactive)
REMARK    1  A    between atoms: C_2  and  C_3 
REMARK    2  A    between atoms: C_2  and  O_31 
REMARK    3  A    between atoms: C_3  and  N_4 
REMARK    4  A    between atoms: C_8  and  C_20 
REMARK    5  A    between atoms: C_22  and  C_27 
REMARK    6  A    between atoms: C_27  and  O_30 
ROOT
HETATM    1  N   UNK N   1      22.778  17.358   4.699  0.00  0.00    -0.294 N 
HETATM    2  C   UNK N   1      23.232  18.468   4.072  0.00  0.00     0.080 A 
HETATM    3  C   UNK N   1      24.524  18.975   3.990  0.00  0.00     0.021 A 
HETATM    4  C   UNK N   1      25.589  18.346   4.603  0.00  0.00     0.028 A 
HETATM    5  C   UNK N   1      26.885  18.851   4.500  0.00  0.00    -0.024 A 
HETATM    6  C   UNK N   1      27.106  20.027   3.758  0.00  0.00     0.014 A 
HETATM    7  C   UNK N   1      26.026  20.682   3.135  0.00  0.00     0.031 A 
HETATM    8  C   UNK N   1      24.728  20.159   3.245  0.00  0.00     0.044 A 
HETATM    9  N   UNK N   1      23.664  20.777   2.635  0.00  0.00    -0.363 N 
ATOM     10  HN  UNK N   1      23.824  21.633   2.102  1.00  0.00     0.165 HD
HETATM   11  C   UNK N   1      22.391  20.273   2.722  0.00  0.00     0.120 A 
HETATM   12  C   UNK N   1      22.192  19.100   3.453  0.00  0.00     0.081 A 
HETATM   13  N   UNK N   1      21.057  18.409   3.674  0.00  0.00    -0.300 N 
HETATM   14  C   UNK N   1      21.439  17.343   4.437  0.00  0.00     0.329 A 
HETATM   15  O   UNK N   1      20.676  16.477   4.832  0.00  0.00    -0.246 OA
HETATM   16  C   UNK N   1      19.721  18.722   3.194  0.00  0.00     0.161 C 
ENDROOT
BRANCH   5  17
HETATM   17  C   UNK N   1      27.972  18.092   5.155  0.00  0.00    -0.010 A 
HETATM   18  C   UNK N   1      29.101  17.757   4.403  0.00  0.00     0.025 A 
HETATM   19  C   UNK N   1      30.176  17.083   4.974  0.00  0.00    -0.009 A 
HETATM   20  C   UNK N   1      30.101  16.747   6.332  0.00  0.00     0.097 A 
HETATM   21  N   UNK N   1      28.992  17.067   7.060  0.00  0.00    -0.374 N 
HETATM   22  C   UNK N   1      27.936  17.729   6.506  0.00  0.00     0.100 A 
ATOM     23  HN  UNK N   1      28.952  16.805   8.045  1.00  0.00     0.164 HD
BRANCH  19  24
HETATM   24  C   UNK N   1      31.379  16.752   4.121  0.00  0.00     0.079 C 
HETATM   25  C   UNK N   1      32.593  17.516   4.622  0.00  0.00     0.051 C 
HETATM   26  C   UNK N   1      31.679  15.264   4.198  0.00  0.00     0.051 C 
BRANCH  24  27
HETATM   27  O   UNK N   1      31.156  17.093   2.787  0.00  0.00    -0.386 OA
HETATM   28  H   UNK N   1      31.883  17.412   2.228  0.00  0.00     0.211 HD
ENDBRANCH  24  27
ENDBRANCH  19  24
ENDBRANCH   5  17
BRANCH   1  29
HETATM   29  C   UNK N   1      23.566  16.384   5.457  0.00  0.00     0.165 C 
BRANCH  29  30
HETATM   30  C   UNK N   1      23.733  15.046   4.739  0.00  0.00     0.135 C 
HETATM   31  C   UNK N   1      23.483  13.864   5.662  0.00  0.00     0.041 C 
BRANCH  30  32
HETATM   32  O   UNK N   1      25.037  14.965   4.240  0.00  0.00    -0.389 OA
HETATM   33  C   UNK N   1      24.906  14.978   2.850  0.00  0.00     0.202 C 
ENDBRANCH  30  32
ENDBRANCH  29  30
ENDBRANCH   1  29
TORSDOF 6
ENDMDL
MODEL 8
REMARK VINA RESULT:      -6.8      3.593      7.442
REMARK  6 active torsions:
REMARK  status: ('A' for Active; 'I' for Inactive)
REMARK    1  A    between atoms: C_2  and  C_3 
REMARK    2  A    between atoms: C_2  and  O_31 
REMARK    3  A    between atoms: C_3  and  N_4 
REMARK    4  A    between atoms: C_8  and  C_20 
REMARK    5  A    between atoms: C_22  and  C_27 
REMARK    6  A    between atoms: C_27  and  O_30 
ROOT
HETATM    1  N   UNK N   1      26.647  15.551   4.358  0.00  0.00    -0.294 N 
HETATM    2  C   UNK N   1      27.148  16.808   4.377  0.00  0.00     0.080 A 
HETATM    3  C   UNK N   1      26.507  18.021   4.150  0.00  0.00     0.021 A 
HETATM    4  C   UNK N   1      25.162  18.084   3.848  0.00  0.00     0.028 A 
HETATM    5  C   UNK N   1      24.523  19.307   3.642  0.00  0.00    -0.024 A 
HETATM    6  C   UNK N   1      25.269  20.497   3.741  0.00  0.00     0.014 A 
HETATM    7  C   UNK N   1      26.644  20.444   4.042  0.00  0.00     0.031 A 
HETATM    8  C   UNK N   1      27.272  19.206   4.251  0.00  0.00     0.044 A 
HETATM    9  N   UNK N   1      28.609  19.135   4.556  0.00  0.00    -0.363 N 
ATOM     10  HN  UNK N   1      29.151  19.997   4.622  1.00  0.00     0.165 HD
HETATM   11  C   UNK N   1      29.236  17.934   4.775  0.00  0.00     0.120 A 
HETATM   12  C   UNK N   1      28.477  16.765   4.682  0.00  0.00     0.081 A 
HETATM   13  N   UNK N   1      28.851  15.484   4.863  0.00  0.00    -0.300 N 
HETATM   14  C   UNK N   1      27.714  14.755   4.664  0.00  0.00     0.329 A 
HETATM   15  O   UNK N   1      27.655  13.540   4.752  0.00  0.00    -0.246 OA
HETATM   16  C   UNK N   1      30.173  14.986   5.208  0.00  0.00     0.161 C 
ENDROOT
BRANCH   5  17
HETATM   17  C   UNK N   1      23.071  19.285   3.360  0.00  0.00    -0.010 A 
HETATM   18  C   UNK N   1      22.363  18.103   3.593  0.00  0.00     0.025 A 
HETATM   19  C   UNK N   1      20.988  18.032   3.390  0.00  0.00    -0.009 A 
HETATM   20  C   UNK N   1      20.325  19.183   2.943  0.00  0.00     0.097 A 
HETATM   21  N   UNK N   1      21.023  20.331   2.707  0.00  0.00    -0.374 N 
HETATM   22  C   UNK N   1      22.370  20.407   2.906  0.00  0.00     0.100 A 
ATOM     23  HN  UNK N   1      20.524  21.156   2.373  1.00  0.00     0.164 HD
BRANCH  19  24
HETATM   24  C   UNK N   1      20.265  16.734   3.666  0.00  0.00     0.079 C 
HETATM   25  C   UNK N   1      20.377  15.814   2.463  0.00  0.00     0.051 C 
HETATM   26  C   UNK N   1      20.883  16.038   4.867  0.00  0.00     0.051 C 
BRANCH  24  27
HETATM   27  O   UNK N   1      18.913  16.961   3.930  0.00  0.00    -0.386 OA
HETATM   28  H   UNK N   1      18.260  16.957   3.212  0.00  0.00     0.211 HD
ENDBRANCH  24  27
ENDBRANCH  19  24
ENDBRANCH   5  17
BRANCH   1  29
HETATM   29  C   UNK N   1      25.262  15.152   4.101  0.00  0.00     0.165 C 
BRANCH  29  30
HETATM   30  C   UNK N   1      25.076  14.416   2.775  0.00  0.00     0.135 C 
HETATM   31  C   UNK N   1      25.677  15.181   1.606  0.00  0.00     0.041 C 
BRANCH  30  32
HETATM   32  O   UNK N   1      23.708  14.240   2.547  0.00  0.00    -0.389 OA
HETATM   33  C   UNK N   1      23.542  14.346   1.165  0.00  0.00     0.202 C 
ENDBRANCH  30  32
ENDBRANCH  29  30
ENDBRANCH   1  29
TORSDOF 6
ENDMDL
MODEL 9
REMARK VINA RESULT:      -6.8      5.981      9.742
REMARK  6 active torsions:
REMARK  status: ('A' for Active; 'I' for Inactive)
REMARK    1  A    between atoms: C_2  and  C_3 
REMARK    2  A    between atoms: C_2  and  O_31 
REMARK    3  A    between atoms: C_3  and  N_4 
REMARK    4  A    between atoms: C_8  and  C_20 
REMARK    5  A    between atoms: C_22  and  C_27 
REMARK    6  A    between atoms: C_27  and  O_30 
ROOT
HETATM    1  N   UNK N   1      32.287  16.222   5.042  0.00  0.00    -0.294 N 
HETATM    2  C   UNK N   1      32.183  16.557   6.349  0.00  0.00     0.080 A 
HETATM    3  C   UNK N   1      31.138  17.175   7.026  0.00  0.00     0.021 A 
HETATM    4  C   UNK N   1      29.980  17.556   6.378  0.00  0.00     0.028 A 
HETATM    5  C   UNK N   1      28.929  18.158   7.069  0.00  0.00    -0.024 A 
HETATM    6  C   UNK N   1      29.055  18.382   8.453  0.00  0.00     0.014 A 
HETATM    7  C   UNK N   1      30.235  18.004   9.124  0.00  0.00     0.031 A 
HETATM    8  C   UNK N   1      31.283  17.396   8.415  0.00  0.00     0.044 A 
HETATM    9  N   UNK N   1      32.436  17.009   9.054  0.00  0.00    -0.363 N 
ATOM     10  HN  UNK N   1      32.530  17.177  10.056  1.00  0.00     0.165 HD
HETATM   11  C   UNK N   1      33.465  16.403   8.379  0.00  0.00     0.120 A 
HETATM   12  C   UNK N   1      33.318  16.181   7.008  0.00  0.00     0.081 A 
HETATM   13  N   UNK N   1      34.165  15.600   6.137  0.00  0.00    -0.300 N 
HETATM   14  C   UNK N   1      33.513  15.632   4.938  0.00  0.00     0.329 A 
HETATM   15  O   UNK N   1      33.968  15.183   3.899  0.00  0.00    -0.246 OA
HETATM   16  C   UNK N   1      35.481  15.048   6.415  0.00  0.00     0.161 C 
ENDROOT
BRANCH   5  17
HETATM   17  C   UNK N   1      27.710  18.499   6.304  0.00  0.00    -0.010 A 
HETATM   18  C   UNK N   1      27.113  17.509   5.519  0.00  0.00     0.025 A 
HETATM   19  C   UNK N   1      25.941  17.756   4.812  0.00  0.00    -0.009 A 
HETATM   20  C   UNK N   1      25.367  19.031   4.905  0.00  0.00     0.097 A 
HETATM   21  N   UNK N   1      25.959  19.998   5.664  0.00  0.00    -0.374 N 
HETATM   22  C   UNK N   1      27.107  19.761   6.361  0.00  0.00     0.100 A 
ATOM     23  HN  UNK N   1      25.531  20.923   5.712  1.00  0.00     0.164 HD
BRANCH  19  24
HETATM   24  C   UNK N   1      25.328  16.648   3.985  0.00  0.00     0.079 C 
HETATM   25  C   UNK N   1      25.562  15.309   4.662  0.00  0.00     0.051 C 
HETATM   26  C   UNK N   1      23.830  16.867   3.849  0.00  0.00     0.051 C 
BRANCH  24  27
HETATM   27  O   UNK N   1      25.890  16.608   2.709  0.00  0.00    -0.386 OA
HETATM   28  H   UNK N   1      26.760  17.001   2.537  0.00  0.00     0.211 HD
ENDBRANCH  24  27
ENDBRANCH  19  24
ENDBRANCH   5  17
BRANCH   1  29
HETATM   29  C   UNK N   1      31.284  16.423   3.993  0.00  0.00     0.165 C 
BRANCH  29  30
HETATM   30  C   UNK N   1      30.550  15.142   3.600  0.00  0.00     0.135 C 
HETATM   31  C   UNK N   1      29.160  15.423   3.053  0.00  0.00     0.041 C 
BRANCH  30  32
HETATM   32  O   UNK N   1      30.438  14.325   4.729  0.00  0.00    -0.389 OA
HETATM   33  C   UNK N   1      29.067  14.179   4.950  0.00  0.00     0.202 C 
ENDBRANCH  30  32
ENDBRANCH  29  30
ENDBRANCH   1  29
TORSDOF 6
ENDMDL
