MODEL 1
REMARK VINA RESULT:      -8.5      0.000      0.000
REMARK  19 active torsions:
REMARK  status: ('A' for Active; 'I' for Inactive)
REMARK    1  A    between atoms: C_2  and  C_10 
REMARK    2  A    between atoms: N_3  and  N_5 
REMARK       I    between atoms: N_5  and  C_6 
REMARK       I    between atoms: C_6  and  N_9 
REMARK    3  A    between atoms: C_12  and  N_25 
REMARK    4  A    between atoms: C_14  and  C_16 
REMARK    5  A    between atoms: N_17  and  N_19 
REMARK       I    between atoms: N_19  and  C_20 
REMARK       I    between atoms: C_20  and  N_23 
REMARK       I    between atoms: N_25  and  C_26 
REMARK    6  A    between atoms: C_26  and  C_28 
REMARK    7  A    between atoms: C_28  and  C_29 
REMARK    8  A    between atoms: C_29  and  C_30 
REMARK    9  A    between atoms: C_30  and  C_31 
REMARK   10  A    between atoms: C_31  and  C_32 
REMARK   11  A    between atoms: C_32  and  C_33 
REMARK   12  A    between atoms: C_33  and  C_34 
REMARK   13  A    between atoms: C_34  and  C_35 
REMARK   14  A    between atoms: C_35  and  C_36 
REMARK       I    between atoms: C_36  and  N_38 
REMARK   15  A    between atoms: N_38  and  C_39 
REMARK   16  A    between atoms: C_41  and  C_54 
REMARK   17  A    between atoms: C_43  and  C_45 
REMARK   18  A    between atoms: N_46  and  N_48 
REMARK       I    between atoms: N_48  and  C_49 
REMARK       I    between atoms: C_49  and  N_52 
REMARK   19  A    between atoms: N_55  and  N_57 
REMARK       I    between atoms: N_57  and  C_58 
REMARK       I    between atoms: C_58  and  N_61 
ROOT
HETATM    1  C   UNK N   1      26.486  11.518   3.647  0.00  0.00     0.000 C 
ENDROOT
BRANCH   1   2
HETATM    2  C   UNK N   1      27.975  11.343   3.902  0.00  0.00     0.000 C 
BRANCH   2   3
HETATM    3  C   UNK N   1      28.813  11.975   2.805  0.00  0.00     0.009 C 
BRANCH   3   4
HETATM    4  C   UNK N   1      30.221  12.261   3.296  0.00  0.00     0.103 C 
BRANCH   4   5
HETATM    5  C   UNK N   1      30.297  13.614   3.918  0.00  0.00     0.222 C 
HETATM    6  N   UNK N   1      30.301  13.727   5.275  0.00  0.00    -0.327 N 
HETATM    7  H   UNK N   1      30.175  12.904   5.800  0.00  0.00     0.169 HD
HETATM    8  O   UNK N   1      30.369  14.598   3.199  0.00  0.00    -0.273 OA
BRANCH   6   9
HETATM    9  C   UNK N   1      30.475  14.942   5.991  0.00  0.00     0.036 A 
HETATM   10  C   UNK N   1      31.687  15.201   6.607  0.00  0.00     0.043 A 
HETATM   11  C   UNK N   1      31.916  16.409   7.284  0.00  0.00    -0.009 A 
HETATM   12  C   UNK N   1      30.893  17.386   7.327  0.00  0.00     0.027 A 
HETATM   13  C   UNK N   1      29.656  17.119   6.702  0.00  0.00    -0.009 A 
HETATM   14  C   UNK N   1      29.476  15.900   6.049  0.00  0.00     0.043 A 
BRANCH  11  15
HETATM   15  C   UNK N   1      33.230  16.582   7.944  0.00  0.00     0.033 C 
HETATM   16  C   UNK N   1      34.492  16.697   7.141  0.00  0.00     0.070 C 
HETATM   17  N   UNK N   1      33.248  16.658   9.234  0.00  0.00    -0.290 N 
ATOM     18  HN  UNK N   1      32.364  16.574   9.734  1.00  0.00     0.187 HD
BRANCH  17  19
HETATM   19  N   UNK N   1      34.393  16.849   9.966  0.00  0.00    -0.133 N 
HETATM   20  C   UNK N   1      34.735  15.908  10.971  0.00  0.00     0.684 C 
HETATM   21  N   UNK N   1      35.786  16.084  11.681  0.00  0.00    -0.234 N 
HETATM   22  N   UNK N   1      33.908  14.786  11.209  0.00  0.00    -0.234 N 
HETATM   23  H   UNK N   1      35.914  15.606  12.531  0.00  0.00     0.174 HD
ATOM     24  HN  UNK N   1      36.504  16.732  11.358  1.00  0.00     0.174 HD
HETATM   25  H   UNK N   1      33.113  14.598  10.658  0.00  0.00     0.174 HD
HETATM   26  H   UNK N   1      34.132  14.175  11.948  0.00  0.00     0.174 HD
HETATM   27  H   UNK N   1      34.970  17.629   9.797  0.00  0.00     0.205 HD
ENDBRANCH  17  19
ENDBRANCH  11  15
BRANCH  13  28
HETATM   28  C   UNK N   1      28.502  18.048   6.700  0.00  0.00     0.033 C 
HETATM   29  N   UNK N   1      27.665  17.947   5.720  0.00  0.00    -0.290 N 
ATOM     30  HN  UNK N   1      27.854  17.248   5.002  1.00  0.00     0.187 HD
HETATM   31  C   UNK N   1      28.299  19.048   7.799  0.00  0.00     0.070 C 
BRANCH  29  32
HETATM   32  N   UNK N   1      26.540  18.719   5.582  0.00  0.00    -0.133 N 
HETATM   33  C   UNK N   1      26.486  19.680   4.537  0.00  0.00     0.684 C 
HETATM   34  N   UNK N   1      27.459  19.789   3.706  0.00  0.00    -0.234 N 
HETATM   35  N   UNK N   1      25.352  20.505   4.395  0.00  0.00    -0.234 N 
HETATM   36  H   UNK N   1      27.445  20.488   3.013  0.00  0.00     0.174 HD
ATOM     37  HN  UNK N   1      28.250  19.148   3.763  1.00  0.00     0.174 HD
HETATM   38  H   UNK N   1      24.619  20.456   5.050  0.00  0.00     0.174 HD
HETATM   39  H   UNK N   1      25.292  21.132   3.637  0.00  0.00     0.174 HD
HETATM   40  H   UNK N   1      25.780  18.609   6.199  0.00  0.00     0.205 HD
ENDBRANCH  29  32
ENDBRANCH  13  28
ENDBRANCH   6   9
ENDBRANCH   4   5
ENDBRANCH   3   4
ENDBRANCH   2   3
ENDBRANCH   1   2
BRANCH   1  41
HETATM   41  C   UNK N   1      26.034  12.886   4.128  0.00  0.00     0.000 C 
BRANCH  41  42
HETATM   42  C   UNK N   1      26.865  13.312   5.328  0.00  0.00     0.000 C 
BRANCH  42  43
HETATM   43  C   UNK N   1      26.041  14.065   6.358  0.00  0.00     0.009 C 
BRANCH  43  44
HETATM   44  C   UNK N   1      25.040  13.146   7.040  0.00  0.00     0.103 C 
BRANCH  44  45
HETATM   45  C   UNK N   1      23.654  13.653   6.837  0.00  0.00     0.222 C 
HETATM   46  O   UNK N   1      22.739  12.855   6.696  0.00  0.00    -0.273 OA
HETATM   47  N   UNK N   1      23.433  14.996   6.803  0.00  0.00    -0.327 N 
HETATM   48  H   UNK N   1      24.205  15.585   6.962  0.00  0.00     0.169 HD
BRANCH  47  49
HETATM   49  C   UNK N   1      22.178  15.615   6.558  0.00  0.00     0.036 A 
HETATM   50  C   UNK N   1      21.818  16.054   5.296  0.00  0.00     0.043 A 
HETATM   51  C   UNK N   1      20.607  16.701   5.053  0.00  0.00    -0.009 A 
HETATM   52  C   UNK N   1      19.716  16.914   6.127  0.00  0.00     0.027 A 
HETATM   53  C   UNK N   1      20.070  16.459   7.421  0.00  0.00    -0.009 A 
HETATM   54  C   UNK N   1      21.304  15.818   7.612  0.00  0.00     0.043 A 
BRANCH  51  55
HETATM   55  C   UNK N   1      20.346  17.110   3.653  0.00  0.00     0.033 C 
HETATM   56  N   UNK N   1      20.588  18.342   3.347  0.00  0.00    -0.290 N 
ATOM     57  HN  UNK N   1      20.931  18.956   4.086  1.00  0.00     0.187 HD
HETATM   58  C   UNK N   1      19.842  16.136   2.631  0.00  0.00     0.070 C 
BRANCH  56  59
HETATM   59  N   UNK N   1      20.416  18.879   2.098  0.00  0.00    -0.133 N 
HETATM   60  C   UNK N   1      20.552  20.283   1.929  0.00  0.00     0.684 C 
HETATM   61  N   UNK N   1      20.881  21.027   2.924  0.00  0.00    -0.234 N 
HETATM   62  N   UNK N   1      20.343  20.866   0.662  0.00  0.00    -0.234 N 
HETATM   63  H   UNK N   1      20.933  22.005   2.820  0.00  0.00     0.174 HD
ATOM     64  HN  UNK N   1      21.089  20.602   3.826  1.00  0.00     0.174 HD
HETATM   65  H   UNK N   1      20.024  20.315  -0.089  0.00  0.00     0.174 HD
HETATM   66  H   UNK N   1      20.516  21.826   0.529  0.00  0.00     0.174 HD
HETATM   67  H   UNK N   1      20.201  18.302   1.331  0.00  0.00     0.205 HD
ENDBRANCH  56  59
ENDBRANCH  51  55
BRANCH  53  68
HETATM   68  C   UNK N   1      19.191  16.608   8.605  0.00  0.00     0.033 C 
HETATM   69  N   UNK N   1      18.530  17.711   8.726  0.00  0.00    -0.290 N 
ATOM     70  HN  UNK N   1      18.633  18.417   7.997  1.00  0.00     0.187 HD
HETATM   71  C   UNK N   1      19.089  15.524   9.636  0.00  0.00     0.070 C 
BRANCH  69  72
HETATM   72  N   UNK N   1      17.698  17.986   9.781  0.00  0.00    -0.133 N 
HETATM   73  C   UNK N   1      18.052  19.013  10.693  0.00  0.00     0.684 C 
HETATM   74  N   UNK N   1      17.296  19.268  11.693  0.00  0.00    -0.234 N 
HETATM   75  N   UNK N   1      19.245  19.751  10.508  0.00  0.00    -0.234 N 
HETATM   76  H   UNK N   1      17.638  19.758  12.476  0.00  0.00     0.174 HD
ATOM     77  HN  UNK N   1      16.324  18.959  11.681  1.00  0.00     0.174 HD
HETATM   78  H   UNK N   1      19.810  19.655   9.708  0.00  0.00     0.174 HD
HETATM   79  H   UNK N   1      19.521  20.386  11.208  0.00  0.00     0.174 HD
HETATM   80  H   UNK N   1      16.865  17.474   9.904  0.00  0.00     0.205 HD
ENDBRANCH  69  72
ENDBRANCH  53  68
ENDBRANCH  47  49
ENDBRANCH  44  45
ENDBRANCH  43  44
ENDBRANCH  42  43
ENDBRANCH  41  42
ENDBRANCH   1  41
TORSDOF 19
ENDMDL
MODEL 2
REMARK VINA RESULT:      -8.1      3.381      6.945
REMARK  19 active torsions:
REMARK  status: ('A' for Active; 'I' for Inactive)
REMARK    1  A    between atoms: C_2  and  C_10 
REMARK    2  A    between atoms: N_3  and  N_5 
REMARK       I    between atoms: N_5  and  C_6 
REMARK       I    between atoms: C_6  and  N_9 
REMARK    3  A    between atoms: C_12  and  N_25 
REMARK    4  A    between atoms: C_14  and  C_16 
REMARK    5  A    between atoms: N_17  and  N_19 
REMARK       I    between atoms: N_19  and  C_20 
REMARK       I    between atoms: C_20  and  N_23 
REMARK       I    between atoms: N_25  and  C_26 
REMARK    6  A    between atoms: C_26  and  C_28 
REMARK    7  A    between atoms: C_28  and  C_29 
REMARK    8  A    between atoms: C_29  and  C_30 
REMARK    9  A    between atoms: C_30  and  C_31 
REMARK   10  A    between atoms: C_31  and  C_32 
REMARK   11  A    between atoms: C_32  and  C_33 
REMARK   12  A    between atoms: C_33  and  C_34 
REMARK   13  A    between atoms: C_34  and  C_35 
REMARK   14  A    between atoms: C_35  and  C_36 
REMARK       I    between atoms: C_36  and  N_38 
REMARK   15  A    between atoms: N_38  and  C_39 
REMARK   16  A    between atoms: C_41  and  C_54 
REMARK   17  A    between atoms: C_43  and  C_45 
REMARK   18  A    between atoms: N_46  and  N_48 
REMARK       I    between atoms: N_48  and  C_49 
REMARK       I    between atoms: C_49  and  N_52 
REMARK   19  A    between atoms: N_55  and  N_57 
REMARK       I    between atoms: N_57  and  C_58 
REMARK       I    between atoms: C_58  and  N_61 
ROOT
HETATM    1  C   UNK N   1      27.460  20.981   6.153  0.00  0.00     0.000 C 
ENDROOT
BRANCH   1   2
HETATM    2  C   UNK N   1      27.067  19.984   7.233  0.00  0.00     0.000 C 
BRANCH   2   3
HETATM    3  C   UNK N   1      28.282  19.303   7.838  0.00  0.00     0.009 C 
BRANCH   3   4
HETATM    4  C   UNK N   1      28.115  17.793   7.830  0.00  0.00     0.103 C 
BRANCH   4   5
HETATM    5  C   UNK N   1      29.284  17.139   7.174  0.00  0.00     0.222 C 
HETATM    6  N   UNK N   1      30.528  17.663   7.347  0.00  0.00    -0.327 N 
HETATM    7  H   UNK N   1      30.599  18.511   7.842  0.00  0.00     0.169 HD
HETATM    8  O   UNK N   1      29.106  16.133   6.505  0.00  0.00    -0.273 OA
BRANCH   6   9
HETATM    9  C   UNK N   1      31.732  17.080   6.868  0.00  0.00     0.036 A 
HETATM   10  C   UNK N   1      32.695  16.669   7.773  0.00  0.00     0.043 A 
HETATM   11  C   UNK N   1      33.878  16.045   7.344  0.00  0.00    -0.009 A 
HETATM   12  C   UNK N   1      34.083  15.822   5.961  0.00  0.00     0.027 A 
HETATM   13  C   UNK N   1      33.102  16.246   5.040  0.00  0.00    -0.009 A 
HETATM   14  C   UNK N   1      31.948  16.867   5.516  0.00  0.00     0.043 A 
BRANCH  11  15
HETATM   15  C   UNK N   1      34.867  15.673   8.382  0.00  0.00     0.033 C 
HETATM   16  C   UNK N   1      35.828  14.542   8.166  0.00  0.00     0.070 C 
HETATM   17  N   UNK N   1      34.891  16.375   9.466  0.00  0.00    -0.290 N 
ATOM     18  HN  UNK N   1      34.216  17.132   9.565  1.00  0.00     0.187 HD
BRANCH  17  19
HETATM   19  N   UNK N   1      35.776  16.156  10.491  0.00  0.00    -0.133 N 
HETATM   20  C   UNK N   1      35.424  15.252  11.526  0.00  0.00     0.684 C 
HETATM   21  N   UNK N   1      36.228  15.055  12.504  0.00  0.00    -0.234 N 
HETATM   22  N   UNK N   1      34.179  14.583  11.497  0.00  0.00    -0.234 N 
HETATM   23  H   UNK N   1      35.920  14.645  13.344  0.00  0.00     0.174 HD
ATOM     24  HN  UNK N   1      37.206  15.329  12.410  1.00  0.00     0.174 HD
HETATM   25  H   UNK N   1      33.552  14.680  10.743  0.00  0.00     0.174 HD
HETATM   26  H   UNK N   1      33.930  14.003  12.252  0.00  0.00     0.174 HD
HETATM   27  H   UNK N   1      36.645  16.620  10.509  0.00  0.00     0.205 HD
ENDBRANCH  17  19
ENDBRANCH  11  15
BRANCH  13  28
HETATM   28  C   UNK N   1      33.213  16.093   3.570  0.00  0.00     0.033 C 
HETATM   29  N   UNK N   1      33.987  15.155   3.132  0.00  0.00    -0.290 N 
ATOM     30  HN  UNK N   1      34.484  14.587   3.819  1.00  0.00     0.187 HD
HETATM   31  C   UNK N   1      32.445  16.972   2.630  0.00  0.00     0.070 C 
BRANCH  29  32
HETATM   32  N   UNK N   1      34.184  14.873   1.805  0.00  0.00    -0.133 N 
HETATM   33  C   UNK N   1      34.655  13.584   1.435  0.00  0.00     0.684 C 
HETATM   34  N   UNK N   1      34.848  12.684   2.330  0.00  0.00    -0.234 N 
HETATM   35  N   UNK N   1      34.892  13.282   0.079  0.00  0.00    -0.234 N 
HETATM   36  H   UNK N   1      35.223  11.808   2.081  0.00  0.00     0.174 HD
ATOM     37  HN  UNK N   1      34.612  12.876   3.303  1.00  0.00     0.174 HD
HETATM   38  H   UNK N   1      34.785  13.978  -0.610  0.00  0.00     0.174 HD
HETATM   39  H   UNK N   1      35.166  12.372  -0.181  0.00  0.00     0.174 HD
HETATM   40  H   UNK N   1      34.001  15.553   1.117  0.00  0.00     0.205 HD
ENDBRANCH  29  32
ENDBRANCH  13  28
ENDBRANCH   6   9
ENDBRANCH   4   5
ENDBRANCH   3   4
ENDBRANCH   2   3
ENDBRANCH   1   2
BRANCH   1  41
HETATM   41  C   UNK N   1      26.633  20.744   4.901  0.00  0.00     0.000 C 
BRANCH  41  42
HETATM   42  C   UNK N   1      27.170  19.537   4.149  0.00  0.00     0.000 C 
BRANCH  42  43
HETATM   43  C   UNK N   1      26.109  18.469   3.946  0.00  0.00     0.009 C 
BRANCH  43  44
HETATM   44  C   UNK N   1      26.630  17.095   4.336  0.00  0.00     0.103 C 
BRANCH  44  45
HETATM   45  C   UNK N   1      25.498  16.205   4.718  0.00  0.00     0.222 C 
HETATM   46  O   UNK N   1      25.647  14.993   4.665  0.00  0.00    -0.273 OA
HETATM   47  N   UNK N   1      24.317  16.757   5.109  0.00  0.00    -0.327 N 
HETATM   48  H   UNK N   1      24.274  17.738   5.167  0.00  0.00     0.169 HD
BRANCH  47  49
HETATM   49  C   UNK N   1      23.142  16.031   5.441  0.00  0.00     0.036 A 
HETATM   50  C   UNK N   1      22.911  15.572   6.726  0.00  0.00     0.043 A 
HETATM   51  C   UNK N   1      21.782  14.823   7.055  0.00  0.00    -0.009 A 
HETATM   52  C   UNK N   1      20.841  14.522   6.045  0.00  0.00     0.027 A 
HETATM   53  C   UNK N   1      21.064  14.995   4.729  0.00  0.00    -0.009 A 
HETATM   54  C   UNK N   1      22.219  15.742   4.451  0.00  0.00     0.043 A 
BRANCH  51  55
HETATM   55  C   UNK N   1      21.656  14.405   8.471  0.00  0.00     0.033 C 
HETATM   56  N   UNK N   1      22.670  13.801   8.995  0.00  0.00    -0.290 N 
ATOM     57  HN  UNK N   1      23.486  13.640   8.405  1.00  0.00     0.187 HD
HETATM   58  C   UNK N   1      20.417  14.684   9.265  0.00  0.00     0.070 C 
BRANCH  56  59
HETATM   59  N   UNK N   1      22.725  13.362  10.293  0.00  0.00    -0.133 N 
HETATM   60  C   UNK N   1      22.882  11.971  10.542  0.00  0.00     0.684 C 
HETATM   61  N   UNK N   1      23.020  11.149   9.564  0.00  0.00    -0.234 N 
HETATM   62  N   UNK N   1      22.903  11.488  11.867  0.00  0.00    -0.234 N 
HETATM   63  H   UNK N   1      23.086  10.181   9.731  0.00  0.00     0.174 HD
ATOM     64  HN  UNK N   1      23.063  11.502   8.609  1.00  0.00     0.174 HD
HETATM   65  H   UNK N   1      22.729  12.101  12.618  0.00  0.00     0.174 HD
HETATM   66  H   UNK N   1      23.093  10.538  12.040  0.00  0.00     0.174 HD
HETATM   67  H   UNK N   1      22.656  13.998  11.040  0.00  0.00     0.205 HD
ENDBRANCH  56  59
ENDBRANCH  51  55
BRANCH  53  68
HETATM   68  C   UNK N   1      20.122  14.758   3.609  0.00  0.00     0.033 C 
HETATM   69  N   UNK N   1      20.209  15.531   2.579  0.00  0.00    -0.290 N 
ATOM     70  HN  UNK N   1      20.927  16.256   2.578  1.00  0.00     0.187 HD
HETATM   71  C   UNK N   1      19.092  13.671   3.680  0.00  0.00     0.070 C 
BRANCH  69  72
HETATM   72  N   UNK N   1      19.387  15.433   1.485  0.00  0.00    -0.133 N 
HETATM   73  C   UNK N   1      19.314  16.518   0.575  0.00  0.00     0.684 C 
HETATM   74  N   UNK N   1      18.537  16.450  -0.440  0.00  0.00    -0.234 N 
HETATM   75  N   UNK N   1      20.087  17.684   0.789  0.00  0.00    -0.234 N 
HETATM   76  H   UNK N   1      18.253  17.263  -0.918  0.00  0.00     0.174 HD
ATOM     77  HN  UNK N   1      18.207  15.539  -0.760  1.00  0.00     0.174 HD
HETATM   78  H   UNK N   1      20.764  17.747   1.501  0.00  0.00     0.174 HD
HETATM   79  H   UNK N   1      19.943  18.462   0.204  0.00  0.00     0.174 HD
HETATM   80  H   UNK N   1      18.854  14.619   1.334  0.00  0.00     0.205 HD
ENDBRANCH  69  72
ENDBRANCH  53  68
ENDBRANCH  47  49
ENDBRANCH  44  45
ENDBRANCH  43  44
ENDBRANCH  42  43
ENDBRANCH  41  42
ENDBRANCH   1  41
TORSDOF 19
ENDMDL
MODEL 3
REMARK VINA RESULT:      -8.0      3.634     12.113
REMARK  19 active torsions:
REMARK  status: ('A' for Active; 'I' for Inactive)
REMARK    1  A    between atoms: C_2  and  C_10 
REMARK    2  A    between atoms: N_3  and  N_5 
REMARK       I    between atoms: N_5  and  C_6 
REMARK       I    between atoms: C_6  and  N_9 
REMARK    3  A    between atoms: C_12  and  N_25 
REMARK    4  A    between atoms: C_14  and  C_16 
REMARK    5  A    between atoms: N_17  and  N_19 
REMARK       I    between atoms: N_19  and  C_20 
REMARK       I    between atoms: C_20  and  N_23 
REMARK       I    between atoms: N_25  and  C_26 
REMARK    6  A    between atoms: C_26  and  C_28 
REMARK    7  A    between atoms: C_28  and  C_29 
REMARK    8  A    between atoms: C_29  and  C_30 
REMARK    9  A    between atoms: C_30  and  C_31 
REMARK   10  A    between atoms: C_31  and  C_32 
REMARK   11  A    between atoms: C_32  and  C_33 
REMARK   12  A    between atoms: C_33  and  C_34 
REMARK   13  A    between atoms: C_34  and  C_35 
REMARK   14  A    between atoms: C_35  and  C_36 
REMARK       I    between atoms: C_36  and  N_38 
REMARK   15  A    between atoms: N_38  and  C_39 
REMARK   16  A    between atoms: C_41  and  C_54 
REMARK   17  A    between atoms: C_43  and  C_45 
REMARK   18  A    between atoms: N_46  and  N_48 
REMARK       I    between atoms: N_48  and  C_49 
REMARK       I    between atoms: C_49  and  N_52 
REMARK   19  A    between atoms: N_55  and  N_57 
REMARK       I    between atoms: N_57  and  C_58 
REMARK       I    between atoms: C_58  and  N_61 
ROOT
HETATM    1  C   UNK N   1      28.124  18.946   5.243  0.00  0.00     0.000 C 
ENDROOT
BRANCH   1   2
HETATM    2  C   UNK N   1      27.150  20.088   5.489  0.00  0.00     0.000 C 
BRANCH   2   3
HETATM    3  C   UNK N   1      25.879  19.929   4.674  0.00  0.00     0.009 C 
BRANCH   3   4
HETATM    4  C   UNK N   1      26.082  18.935   3.544  0.00  0.00     0.103 C 
BRANCH   4   5
HETATM    5  C   UNK N   1      25.337  17.671   3.814  0.00  0.00     0.222 C 
HETATM    6  N   UNK N   1      24.413  17.641   4.813  0.00  0.00    -0.327 N 
HETATM    7  H   UNK N   1      24.325  18.443   5.376  0.00  0.00     0.169 HD
HETATM    8  O   UNK N   1      25.558  16.689   3.124  0.00  0.00    -0.273 OA
BRANCH   6   9
HETATM    9  C   UNK N   1      23.563  16.540   5.104  0.00  0.00     0.036 A 
HETATM   10  C   UNK N   1      23.872  15.703   6.163  0.00  0.00     0.043 A 
HETATM   11  C   UNK N   1      23.034  14.632   6.513  0.00  0.00    -0.009 A 
HETATM   12  C   UNK N   1      21.844  14.412   5.778  0.00  0.00     0.027 A 
HETATM   13  C   UNK N   1      21.533  15.264   4.696  0.00  0.00    -0.009 A 
HETATM   14  C   UNK N   1      22.402  16.308   4.384  0.00  0.00     0.043 A 
BRANCH  11  15
HETATM   15  C   UNK N   1      23.465  13.769   7.636  0.00  0.00     0.033 C 
HETATM   16  C   UNK N   1      24.503  12.704   7.441  0.00  0.00     0.070 C 
HETATM   17  N   UNK N   1      22.937  13.985   8.795  0.00  0.00    -0.290 N 
ATOM     18  HN  UNK N   1      22.235  14.720   8.875  1.00  0.00     0.187 HD
BRANCH  17  19
HETATM   19  N   UNK N   1      23.270  13.279   9.923  0.00  0.00    -0.133 N 
HETATM   20  C   UNK N   1      22.249  12.618  10.651  0.00  0.00     0.684 C 
HETATM   21  N   UNK N   1      22.538  11.975  11.721  0.00  0.00    -0.234 N 
HETATM   22  N   UNK N   1      20.905  12.682  10.214  0.00  0.00    -0.234 N 
HETATM   23  H   UNK N   1      21.843  11.727  12.372  0.00  0.00     0.174 HD
ATOM     24  HN  UNK N   1      23.508  11.716  11.900  1.00  0.00     0.174 HD
HETATM   25  H   UNK N   1      20.650  13.134   9.377  0.00  0.00     0.174 HD
HETATM   26  H   UNK N   1      20.203  12.263  10.764  0.00  0.00     0.174 HD
HETATM   27  H   UNK N   1      24.207  13.232  10.224  0.00  0.00     0.205 HD
ENDBRANCH  17  19
ENDBRANCH  11  15
BRANCH  13  28
HETATM   28  C   UNK N   1      20.334  15.120   3.838  0.00  0.00     0.033 C 
HETATM   29  N   UNK N   1      20.428  15.541   2.619  0.00  0.00    -0.290 N 
ATOM     30  HN  UNK N   1      21.311  15.957   2.325  1.00  0.00     0.187 HD
HETATM   31  C   UNK N   1      19.073  14.494   4.351  0.00  0.00     0.070 C 
BRANCH  29  32
HETATM   32  N   UNK N   1      19.416  15.464   1.695  0.00  0.00    -0.133 N 
HETATM   33  C   UNK N   1      19.302  16.483   0.712  0.00  0.00     0.684 C 
HETATM   34  N   UNK N   1      20.161  17.435   0.661  0.00  0.00    -0.234 N 
HETATM   35  N   UNK N   1      18.253  16.439  -0.230  0.00  0.00    -0.234 N 
HETATM   36  H   UNK N   1      20.055  18.168   0.012  0.00  0.00     0.174 HD
ATOM     37  HN  UNK N   1      20.960  17.432   1.295  1.00  0.00     0.174 HD
HETATM   38  H   UNK N   1      17.567  15.735  -0.174  0.00  0.00     0.174 HD
HETATM   39  H   UNK N   1      18.206  17.115  -0.945  0.00  0.00     0.174 HD
HETATM   40  H   UNK N   1      18.779  14.713   1.714  0.00  0.00     0.205 HD
ENDBRANCH  29  32
ENDBRANCH  13  28
ENDBRANCH   6   9
ENDBRANCH   4   5
ENDBRANCH   3   4
ENDBRANCH   2   3
ENDBRANCH   1   2
BRANCH   1  41
HETATM   41  C   UNK N   1      28.396  18.206   6.541  0.00  0.00     0.000 C 
BRANCH  41  42
HETATM   42  C   UNK N   1      28.199  19.144   7.721  0.00  0.00     0.000 C 
BRANCH  42  43
HETATM   43  C   UNK N   1      28.471  18.459   9.049  0.00  0.00     0.009 C 
BRANCH  43  44
HETATM   44  C   UNK N   1      29.888  18.730   9.528  0.00  0.00     0.103 C 
BRANCH  44  45
HETATM   45  C   UNK N   1      30.811  17.671   9.032  0.00  0.00     0.222 C 
HETATM   46  O   UNK N   1      30.441  16.506   9.037  0.00  0.00    -0.273 OA
HETATM   47  N   UNK N   1      32.051  18.019   8.592  0.00  0.00    -0.327 N 
HETATM   48  H   UNK N   1      32.273  18.978   8.578  0.00  0.00     0.169 HD
BRANCH  47  49
HETATM   49  C   UNK N   1      33.049  17.111   8.151  0.00  0.00     0.036 A 
HETATM   50  C   UNK N   1      33.130  16.706   6.829  0.00  0.00     0.043 A 
HETATM   51  C   UNK N   1      34.080  15.783   6.393  0.00  0.00    -0.009 A 
HETATM   52  C   UNK N   1      34.992  15.244   7.327  0.00  0.00     0.027 A 
HETATM   53  C   UNK N   1      34.924  15.660   8.679  0.00  0.00    -0.009 A 
HETATM   54  C   UNK N   1      33.945  16.588   9.066  0.00  0.00     0.043 A 
BRANCH  51  55
HETATM   55  C   UNK N   1      34.059  15.447   4.950  0.00  0.00     0.033 C 
HETATM   56  N   UNK N   1      34.639  14.348   4.596  0.00  0.00    -0.290 N 
ATOM     57  HN  UNK N   1      35.083  13.789   5.324  1.00  0.00     0.187 HD
HETATM   58  C   UNK N   1      33.381  16.330   3.947  0.00  0.00     0.070 C 
BRANCH  56  59
HETATM   59  N   UNK N   1      34.699  13.883   3.308  0.00  0.00    -0.133 N 
HETATM   60  C   UNK N   1      35.939  13.403   2.808  0.00  0.00     0.684 C 
HETATM   61  N   UNK N   1      36.973  13.360   3.569  0.00  0.00    -0.234 N 
HETATM   62  N   UNK N   1      36.038  12.954   1.474  0.00  0.00    -0.234 N 
HETATM   63  H   UNK N   1      37.844  13.069   3.214  0.00  0.00     0.174 HD
ATOM     64  HN  UNK N   1      36.891  13.630   4.549  1.00  0.00     0.174 HD
HETATM   65  H   UNK N   1      35.270  13.047   0.864  0.00  0.00     0.174 HD
HETATM   66  H   UNK N   1      36.874  12.547   1.154  0.00  0.00     0.174 HD
HETATM   67  H   UNK N   1      33.896  13.882   2.739  0.00  0.00     0.205 HD
ENDBRANCH  56  59
ENDBRANCH  51  55
BRANCH  53  68
HETATM   68  C   UNK N   1      35.854  15.175   9.726  0.00  0.00     0.033 C 
HETATM   69  N   UNK N   1      35.635  15.550  10.942  0.00  0.00    -0.290 N 
ATOM     70  HN  UNK N   1      34.829  16.147  11.125  1.00  0.00     0.187 HD
HETATM   71  C   UNK N   1      37.020  14.296   9.382  0.00  0.00     0.070 C 
BRANCH  69  72
HETATM   72  N   UNK N   1      36.429  15.190  12.002  0.00  0.00    -0.133 N 
HETATM   73  C   UNK N   1      36.038  14.102  12.822  0.00  0.00     0.684 C 
HETATM   74  N   UNK N   1      36.757  13.766  13.826  0.00  0.00    -0.234 N 
HETATM   75  N   UNK N   1      34.847  13.389  12.542  0.00  0.00    -0.234 N 
HETATM   76  H   UNK N   1      36.386  13.222  14.557  0.00  0.00     0.174 HD
ATOM     77  HN  UNK N   1      37.731  14.067  13.869  1.00  0.00     0.174 HD
HETATM   78  H   UNK N   1      34.311  13.549  11.732  0.00  0.00     0.174 HD
HETATM   79  H   UNK N   1      34.544  12.706  13.183  0.00  0.00     0.174 HD
HETATM   80  H   UNK N   1      37.260  15.684  12.191  0.00  0.00     0.205 HD
ENDBRANCH  69  72
ENDBRANCH  53  68
ENDBRANCH  47  49
ENDBRANCH  44  45
ENDBRANCH  43  44
ENDBRANCH  42  43
ENDBRANCH  41  42
ENDBRANCH   1  41
TORSDOF 19
ENDMDL
MODEL 4
REMARK VINA RESULT:      -8.0      9.056     14.921
REMARK  19 active torsions:
REMARK  status: ('A' for Active; 'I' for Inactive)
REMARK    1  A    between atoms: C_2  and  C_10 
REMARK    2  A    between atoms: N_3  and  N_5 
REMARK       I    between atoms: N_5  and  C_6 
REMARK       I    between atoms: C_6  and  N_9 
REMARK    3  A    between atoms: C_12  and  N_25 
REMARK    4  A    between atoms: C_14  and  C_16 
REMARK    5  A    between atoms: N_17  and  N_19 
REMARK       I    between atoms: N_19  and  C_20 
REMARK       I    between atoms: C_20  and  N_23 
REMARK       I    between atoms: N_25  and  C_26 
REMARK    6  A    between atoms: C_26  and  C_28 
REMARK    7  A    between atoms: C_28  and  C_29 
REMARK    8  A    between atoms: C_29  and  C_30 
REMARK    9  A    between atoms: C_30  and  C_31 
REMARK   10  A    between atoms: C_31  and  C_32 
REMARK   11  A    between atoms: C_32  and  C_33 
REMARK   12  A    between atoms: C_33  and  C_34 
REMARK   13  A    between atoms: C_34  and  C_35 
REMARK   14  A    between atoms: C_35  and  C_36 
REMARK       I    between atoms: C_36  and  N_38 
REMARK   15  A    between atoms: N_38  and  C_39 
REMARK   16  A    between atoms: C_41  and  C_54 
REMARK   17  A    between atoms: C_43  and  C_45 
REMARK   18  A    between atoms: N_46  and  N_48 
REMARK       I    between atoms: N_48  and  C_49 
REMARK       I    between atoms: C_49  and  N_52 
REMARK   19  A    between atoms: N_55  and  N_57 
REMARK       I    between atoms: N_57  and  C_58 
REMARK       I    between atoms: C_58  and  N_61 
ROOT
HETATM    1  C   UNK N   1      36.475  13.853  14.891  0.00  0.00     0.000 C 
ENDROOT
BRANCH   1   2
HETATM    2  C   UNK N   1      35.492  12.693  14.905  0.00  0.00     0.000 C 
BRANCH   2   3
HETATM    3  C   UNK N   1      34.628  12.703  16.153  0.00  0.00     0.009 C 
BRANCH   3   4
HETATM    4  C   UNK N   1      35.204  13.636  17.204  0.00  0.00     0.103 C 
BRANCH   4   5
HETATM    5  C   UNK N   1      35.244  12.968  18.536  0.00  0.00     0.222 C 
HETATM    6  N   UNK N   1      35.302  11.610  18.602  0.00  0.00    -0.327 N 
HETATM    7  H   UNK N   1      35.237  11.111  17.756  0.00  0.00     0.169 HD
HETATM    8  O   UNK N   1      35.240  13.652  19.547  0.00  0.00    -0.273 OA
BRANCH   6   9
HETATM    9  C   UNK N   1      35.451  10.856  19.798  0.00  0.00     0.036 A 
HETATM   10  C   UNK N   1      36.689  10.328  20.119  0.00  0.00     0.043 A 
HETATM   11  C   UNK N   1      36.889   9.618  21.314  0.00  0.00    -0.009 A 
HETATM   12  C   UNK N   1      35.808   9.451  22.212  0.00  0.00     0.027 A 
HETATM   13  C   UNK N   1      34.545   9.986  21.880  0.00  0.00    -0.009 A 
HETATM   14  C   UNK N   1      34.396  10.677  20.678  0.00  0.00     0.043 A 
BRANCH  11  15
HETATM   15  C   UNK N   1      38.239   9.058  21.555  0.00  0.00     0.033 C 
HETATM   16  C   UNK N   1      38.958   8.283  20.491  0.00  0.00     0.070 C 
HETATM   17  N   UNK N   1      38.785   9.284  22.704  0.00  0.00    -0.290 N 
ATOM     18  HN  UNK N   1      38.254   9.815  23.393  1.00  0.00     0.187 HD
BRANCH  17  19
HETATM   19  N   UNK N   1      40.041   8.850  23.044  0.00  0.00    -0.133 N 
HETATM   20  C   UNK N   1      41.110   9.781  23.072  0.00  0.00     0.684 C 
HETATM   21  N   UNK N   1      42.294   9.388  23.363  0.00  0.00    -0.234 N 
HETATM   22  N   UNK N   1      40.881  11.140  22.758  0.00  0.00    -0.234 N 
HETATM   23  H   UNK N   1      43.082   9.937  23.149  0.00  0.00     0.174 HD
ATOM     24  HN  UNK N   1      42.422   8.488  23.826  1.00  0.00     0.174 HD
HETATM   25  H   UNK N   1      39.979  11.487  22.567  0.00  0.00     0.174 HD
HETATM   26  H   UNK N   1      41.646  11.760  22.728  0.00  0.00     0.174 HD
HETATM   27  H   UNK N   1      40.199   7.903  23.267  0.00  0.00     0.205 HD
ENDBRANCH  17  19
ENDBRANCH  11  15
BRANCH  13  28
HETATM   28  C   UNK N   1      33.334   9.855  22.724  0.00  0.00     0.033 C 
HETATM   29  N   UNK N   1      33.094  10.809  23.563  0.00  0.00    -0.290 N 
ATOM     30  HN  UNK N   1      33.755  11.584  23.606  1.00  0.00     0.187 HD
HETATM   31  C   UNK N   1      32.412   8.680  22.594  0.00  0.00     0.070 C 
BRANCH  29  32
HETATM   32  N   UNK N   1      32.008  10.846  24.400  0.00  0.00    -0.133 N 
HETATM   33  C   UNK N   1      32.214  11.062  25.789  0.00  0.00     0.684 C 
HETATM   34  N   UNK N   1      33.397  11.266  26.245  0.00  0.00    -0.234 N 
HETATM   35  N   UNK N   1      31.115  11.075  26.672  0.00  0.00    -0.234 N 
HETATM   36  H   UNK N   1      33.547  11.366  27.212  0.00  0.00     0.174 HD
ATOM     37  HN  UNK N   1      34.186  11.327  25.601  1.00  0.00     0.174 HD
HETATM   38  H   UNK N   1      30.209  10.880  26.338  0.00  0.00     0.174 HD
HETATM   39  H   UNK N   1      31.253  11.280  27.625  0.00  0.00     0.174 HD
HETATM   40  H   UNK N   1      31.098  10.725  24.043  0.00  0.00     0.205 HD
ENDBRANCH  29  32
ENDBRANCH  13  28
ENDBRANCH   6   9
ENDBRANCH   4   5
ENDBRANCH   3   4
ENDBRANCH   2   3
ENDBRANCH   1   2
BRANCH   1  41
HETATM   41  C   UNK N   1      36.417  14.567  13.552  0.00  0.00     0.000 C 
BRANCH  41  42
HETATM   42  C   UNK N   1      35.454  13.845  12.624  0.00  0.00     0.000 C 
BRANCH  42  43
HETATM   43  C   UNK N   1      35.450  14.441  11.226  0.00  0.00     0.009 C 
BRANCH  43  44
HETATM   44  C   UNK N   1      35.440  15.960  11.276  0.00  0.00     0.103 C 
BRANCH  44  45
HETATM   45  C   UNK N   1      34.685  16.509  10.115  0.00  0.00     0.222 C 
HETATM   46  O   UNK N   1      35.054  17.555   9.602  0.00  0.00    -0.273 OA
HETATM   47  N   UNK N   1      33.593  15.840   9.653  0.00  0.00    -0.327 N 
HETATM   48  H   UNK N   1      33.372  14.983  10.084  0.00  0.00     0.169 HD
BRANCH  47  49
HETATM   49  C   UNK N   1      32.750  16.277   8.597  0.00  0.00     0.036 A 
HETATM   50  C   UNK N   1      33.135  16.179   7.271  0.00  0.00     0.043 A 
HETATM   51  C   UNK N   1      32.333  16.643   6.229  0.00  0.00    -0.009 A 
HETATM   52  C   UNK N   1      31.085  17.230   6.534  0.00  0.00     0.027 A 
HETATM   53  C   UNK N   1      30.676  17.325   7.887  0.00  0.00    -0.009 A 
HETATM   54  C   UNK N   1      31.525  16.846   8.897  0.00  0.00     0.043 A 
BRANCH  51  55
HETATM   55  C   UNK N   1      32.865  16.467   4.858  0.00  0.00     0.033 C 
HETATM   56  N   UNK N   1      33.429  15.336   4.589  0.00  0.00    -0.290 N 
ATOM     57  HN  UNK N   1      33.483  14.643   5.334  1.00  0.00     0.187 HD
HETATM   58  C   UNK N   1      32.741  17.544   3.823  0.00  0.00     0.070 C 
BRANCH  56  59
HETATM   59  N   UNK N   1      33.960  15.006   3.369  0.00  0.00    -0.133 N 
HETATM   60  C   UNK N   1      33.348  13.972   2.611  0.00  0.00     0.684 C 
HETATM   61  N   UNK N   1      32.285  13.393   3.042  0.00  0.00    -0.234 N 
HETATM   62  N   UNK N   1      33.896  13.586   1.369  0.00  0.00    -0.234 N 
HETATM   63  H   UNK N   1      31.883  12.647   2.541  0.00  0.00     0.174 HD
ATOM     64  HN  UNK N   1      31.855  13.709   3.911  1.00  0.00     0.174 HD
HETATM   65  H   UNK N   1      34.747  13.975   1.063  0.00  0.00     0.174 HD
HETATM   66  H   UNK N   1      33.426  12.928   0.809  0.00  0.00     0.174 HD
HETATM   67  H   UNK N   1      34.752  15.477   3.024  0.00  0.00     0.205 HD
ENDBRANCH  56  59
ENDBRANCH  51  55
BRANCH  53  68
HETATM   68  C   UNK N   1      29.375  17.895   8.305  0.00  0.00     0.033 C 
HETATM   69  N   UNK N   1      28.783  18.701   7.488  0.00  0.00    -0.290 N 
ATOM     70  HN  UNK N   1      29.231  18.895   6.592  1.00  0.00     0.187 HD
HETATM   71  C   UNK N   1      28.775  17.564   9.640  0.00  0.00     0.070 C 
BRANCH  69  72
HETATM   72  N   UNK N   1      27.586  19.314   7.759  0.00  0.00    -0.133 N 
HETATM   73  C   UNK N   1      27.116  20.332   6.892  0.00  0.00     0.684 C 
HETATM   74  N   UNK N   1      26.011  20.926   7.141  0.00  0.00    -0.234 N 
HETATM   75  N   UNK N   1      27.872  20.704   5.754  0.00  0.00    -0.234 N 
HETATM   76  H   UNK N   1      25.802  21.800   6.739  0.00  0.00     0.174 HD
ATOM     77  HN  UNK N   1      25.335  20.488   7.767  1.00  0.00     0.174 HD
HETATM   78  H   UNK N   1      28.679  20.216   5.470  0.00  0.00     0.174 HD
HETATM   79  H   UNK N   1      27.579  21.482   5.225  0.00  0.00     0.174 HD
HETATM   80  H   UNK N   1      27.059  19.049   8.548  0.00  0.00     0.205 HD
ENDBRANCH  69  72
ENDBRANCH  53  68
ENDBRANCH  47  49
ENDBRANCH  44  45
ENDBRANCH  43  44
ENDBRANCH  42  43
ENDBRANCH  41  42
ENDBRANCH   1  41
TORSDOF 19
ENDMDL
MODEL 5
REMARK VINA RESULT:      -7.9      4.332      9.601
REMARK  19 active torsions:
REMARK  status: ('A' for Active; 'I' for Inactive)
REMARK    1  A    between atoms: C_2  and  C_10 
REMARK    2  A    between atoms: N_3  and  N_5 
REMARK       I    between atoms: N_5  and  C_6 
REMARK       I    between atoms: C_6  and  N_9 
REMARK    3  A    between atoms: C_12  and  N_25 
REMARK    4  A    between atoms: C_14  and  C_16 
REMARK    5  A    between atoms: N_17  and  N_19 
REMARK       I    between atoms: N_19  and  C_20 
REMARK       I    between atoms: C_20  and  N_23 
REMARK       I    between atoms: N_25  and  C_26 
REMARK    6  A    between atoms: C_26  and  C_28 
REMARK    7  A    between atoms: C_28  and  C_29 
REMARK    8  A    between atoms: C_29  and  C_30 
REMARK    9  A    between atoms: C_30  and  C_31 
REMARK   10  A    between atoms: C_31  and  C_32 
REMARK   11  A    between atoms: C_32  and  C_33 
REMARK   12  A    between atoms: C_33  and  C_34 
REMARK   13  A    between atoms: C_34  and  C_35 
REMARK   14  A    between atoms: C_35  and  C_36 
REMARK       I    between atoms: C_36  and  N_38 
REMARK   15  A    between atoms: N_38  and  C_39 
REMARK   16  A    between atoms: C_41  and  C_54 
REMARK   17  A    between atoms: C_43  and  C_45 
REMARK   18  A    between atoms: N_46  and  N_48 
REMARK       I    between atoms: N_48  and  C_49 
REMARK       I    between atoms: C_49  and  N_52 
REMARK   19  A    between atoms: N_55  and  N_57 
REMARK       I    between atoms: N_57  and  C_58 
REMARK       I    between atoms: C_58  and  N_61 
ROOT
HETATM    1  C   UNK N   1      33.219  13.373   2.137  0.00  0.00     0.000 C 
ENDROOT
BRANCH   1   2
HETATM    2  C   UNK N   1      34.037  14.438   2.850  0.00  0.00     0.000 C 
BRANCH   2   3
HETATM    3  C   UNK N   1      33.260  15.075   3.989  0.00  0.00     0.009 C 
BRANCH   3   4
HETATM    4  C   UNK N   1      34.187  15.450   5.132  0.00  0.00     0.103 C 
BRANCH   4   5
HETATM    5  C   UNK N   1      33.901  14.618   6.336  0.00  0.00     0.222 C 
HETATM    6  N   UNK N   1      34.789  13.657   6.711  0.00  0.00    -0.327 N 
HETATM    7  H   UNK N   1      35.560  13.494   6.120  0.00  0.00     0.169 HD
HETATM    8  O   UNK N   1      32.881  14.823   6.975  0.00  0.00    -0.273 OA
BRANCH   6   9
HETATM    9  C   UNK N   1      34.690  12.870   7.890  0.00  0.00     0.036 A 
HETATM   10  C   UNK N   1      33.781  11.828   7.939  0.00  0.00     0.043 A 
HETATM   11  C   UNK N   1      33.685  10.998   9.067  0.00  0.00    -0.009 A 
HETATM   12  C   UNK N   1      34.543  11.223  10.170  0.00  0.00     0.027 A 
HETATM   13  C   UNK N   1      35.467  12.289  10.121  0.00  0.00    -0.009 A 
HETATM   14  C   UNK N   1      35.518  13.089   8.980  0.00  0.00     0.043 A 
BRANCH  11  15
HETATM   15  C   UNK N   1      32.657   9.932   9.043  0.00  0.00     0.033 C 
HETATM   16  C   UNK N   1      32.500   8.980  10.191  0.00  0.00     0.070 C 
HETATM   17  N   UNK N   1      31.882   9.870   8.011  0.00  0.00    -0.290 N 
ATOM     18  HN  UNK N   1      32.029  10.539   7.257  1.00  0.00     0.187 HD
BRANCH  17  19
HETATM   19  N   UNK N   1      30.871   8.952   7.877  0.00  0.00    -0.133 N 
HETATM   20  C   UNK N   1      31.042   7.862   6.987  0.00  0.00     0.684 C 
HETATM   21  N   UNK N   1      30.099   7.010   6.830  0.00  0.00    -0.234 N 
HETATM   22  N   UNK N   1      32.242   7.721   6.253  0.00  0.00    -0.234 N 
HETATM   23  H   UNK N   1      30.081   6.403   6.055  0.00  0.00     0.174 HD
ATOM     24  HN  UNK N   1      29.351   6.959   7.522  1.00  0.00     0.174 HD
HETATM   25  H   UNK N   1      33.003   8.334   6.375  0.00  0.00     0.174 HD
HETATM   26  H   UNK N   1      32.320   6.989   5.599  0.00  0.00     0.174 HD
HETATM   27  H   UNK N   1      30.037   9.049   8.392  0.00  0.00     0.205 HD
ENDBRANCH  17  19
ENDBRANCH  11  15
BRANCH  13  28
HETATM   28  C   UNK N   1      36.397  12.641  11.219  0.00  0.00     0.033 C 
HETATM   29  N   UNK N   1      36.155  13.730  11.871  0.00  0.00    -0.290 N 
ATOM     30  HN  UNK N   1      35.351  14.288  11.585  1.00  0.00     0.187 HD
HETATM   31  C   UNK N   1      37.557  11.760  11.575  0.00  0.00     0.070 C 
BRANCH  29  32
HETATM   32  N   UNK N   1      36.909  14.185  12.923  0.00  0.00    -0.133 N 
HETATM   33  C   UNK N   1      36.448  13.963  14.249  0.00  0.00     0.684 C 
HETATM   34  N   UNK N   1      35.365  13.306  14.457  0.00  0.00    -0.234 N 
HETATM   35  N   UNK N   1      37.193  14.447  15.344  0.00  0.00    -0.234 N 
HETATM   36  H   UNK N   1      35.019  13.195  15.372  0.00  0.00     0.174 HD
ATOM     37  HN  UNK N   1      34.861  12.895  13.672  1.00  0.00     0.174 HD
HETATM   38  H   UNK N   1      38.003  14.986  15.193  0.00  0.00     0.174 HD
HETATM   39  H   UNK N   1      36.902  14.245  16.263  0.00  0.00     0.174 HD
HETATM   40  H   UNK N   1      37.758  14.657  12.762  0.00  0.00     0.205 HD
ENDBRANCH  29  32
ENDBRANCH  13  28
ENDBRANCH   6   9
ENDBRANCH   4   5
ENDBRANCH   3   4
ENDBRANCH   2   3
ENDBRANCH   1   2
BRANCH   1  41
HETATM   41  C   UNK N   1      32.051  12.943   3.009  0.00  0.00     0.000 C 
BRANCH  41  42
HETATM   42  C   UNK N   1      30.892  12.494   2.134  0.00  0.00     0.000 C 
BRANCH  42  43
HETATM   43  C   UNK N   1      29.718  13.456   2.199  0.00  0.00     0.009 C 
BRANCH  43  44
HETATM   44  C   UNK N   1      28.692  13.002   3.225  0.00  0.00     0.103 C 
BRANCH  44  45
HETATM   45  C   UNK N   1      28.452  14.081   4.225  0.00  0.00     0.222 C 
HETATM   46  O   UNK N   1      27.604  13.916   5.090  0.00  0.00    -0.273 OA
HETATM   47  N   UNK N   1      29.173  15.232   4.150  0.00  0.00    -0.327 N 
HETATM   48  H   UNK N   1      29.867  15.287   3.455  0.00  0.00     0.169 HD
BRANCH  47  49
HETATM   49  C   UNK N   1      29.006  16.361   4.997  0.00  0.00     0.036 A 
HETATM   50  C   UNK N   1      29.742  16.512   6.159  0.00  0.00     0.043 A 
HETATM   51  C   UNK N   1      29.558  17.594   7.019  0.00  0.00    -0.009 A 
HETATM   52  C   UNK N   1      28.590  18.570   6.694  0.00  0.00     0.027 A 
HETATM   53  C   UNK N   1      27.839  18.430   5.501  0.00  0.00    -0.009 A 
HETATM   54  C   UNK N   1      28.062  17.319   4.674  0.00  0.00     0.043 A 
BRANCH  51  55
HETATM   55  C   UNK N   1      30.420  17.635   8.223  0.00  0.00     0.033 C 
HETATM   56  N   UNK N   1      31.524  16.966   8.176  0.00  0.00    -0.290 N 
ATOM     57  HN  UNK N   1      31.728  16.445   7.323  1.00  0.00     0.187 HD
HETATM   58  C   UNK N   1      30.040  18.431   9.434  0.00  0.00     0.070 C 
BRANCH  56  59
HETATM   59  N   UNK N   1      32.440  16.908   9.195  0.00  0.00    -0.133 N 
HETATM   60  C   UNK N   1      33.773  17.330   8.944  0.00  0.00     0.684 C 
HETATM   61  N   UNK N   1      34.099  17.803   7.794  0.00  0.00    -0.234 N 
HETATM   62  N   UNK N   1      34.745  17.246   9.963  0.00  0.00    -0.234 N 
HETATM   63  H   UNK N   1      35.032  18.055   7.604  0.00  0.00     0.174 HD
ATOM     64  HN  UNK N   1      33.387  17.918   7.075  1.00  0.00     0.174 HD
HETATM   65  H   UNK N   1      34.522  16.822  10.824  0.00  0.00     0.174 HD
HETATM   66  H   UNK N   1      35.646  17.613   9.814  0.00  0.00     0.174 HD
HETATM   67  H   UNK N   1      32.178  16.581  10.085  0.00  0.00     0.205 HD
ENDBRANCH  56  59
ENDBRANCH  51  55
BRANCH  53  68
HETATM   68  C   UNK N   1      26.824  19.415   5.059  0.00  0.00     0.033 C 
HETATM   69  N   UNK N   1      26.307  19.258   3.886  0.00  0.00    -0.290 N 
ATOM     70  HN  UNK N   1      26.611  18.460   3.328  1.00  0.00     0.187 HD
HETATM   71  C   UNK N   1      26.425  20.564   5.936  0.00  0.00     0.070 C 
BRANCH  69  72
HETATM   72  N   UNK N   1      25.374  20.107   3.348  0.00  0.00    -0.133 N 
HETATM   73  C   UNK N   1      24.000  19.763   3.422  0.00  0.00     0.684 C 
HETATM   74  N   UNK N   1      23.119  20.534   2.907  0.00  0.00    -0.234 N 
HETATM   75  N   UNK N   1      23.599  18.561   4.052  0.00  0.00    -0.234 N 
HETATM   76  H   UNK N   1      22.217  20.203   2.693  0.00  0.00     0.174 HD
ATOM     77  HN  UNK N   1      23.353  21.508   2.715  1.00  0.00     0.174 HD
HETATM   78  H   UNK N   1      24.229  17.982   4.541  0.00  0.00     0.174 HD
HETATM   79  H   UNK N   1      22.653  18.293   4.001  0.00  0.00     0.174 HD
HETATM   80  H   UNK N   1      25.655  20.946   2.915  0.00  0.00     0.205 HD
ENDBRANCH  69  72
ENDBRANCH  53  68
ENDBRANCH  47  49
ENDBRANCH  44  45
ENDBRANCH  43  44
ENDBRANCH  42  43
ENDBRANCH  41  42
ENDBRANCH   1  41
TORSDOF 19
ENDMDL
MODEL 6
REMARK VINA RESULT:      -7.8      6.099     12.585
REMARK  19 active torsions:
REMARK  status: ('A' for Active; 'I' for Inactive)
REMARK    1  A    between atoms: C_2  and  C_10 
REMARK    2  A    between atoms: N_3  and  N_5 
REMARK       I    between atoms: N_5  and  C_6 
REMARK       I    between atoms: C_6  and  N_9 
REMARK    3  A    between atoms: C_12  and  N_25 
REMARK    4  A    between atoms: C_14  and  C_16 
REMARK    5  A    between atoms: N_17  and  N_19 
REMARK       I    between atoms: N_19  and  C_20 
REMARK       I    between atoms: C_20  and  N_23 
REMARK       I    between atoms: N_25  and  C_26 
REMARK    6  A    between atoms: C_26  and  C_28 
REMARK    7  A    between atoms: C_28  and  C_29 
REMARK    8  A    between atoms: C_29  and  C_30 
REMARK    9  A    between atoms: C_30  and  C_31 
REMARK   10  A    between atoms: C_31  and  C_32 
REMARK   11  A    between atoms: C_32  and  C_33 
REMARK   12  A    between atoms: C_33  and  C_34 
REMARK   13  A    between atoms: C_34  and  C_35 
REMARK   14  A    between atoms: C_35  and  C_36 
REMARK       I    between atoms: C_36  and  N_38 
REMARK   15  A    between atoms: N_38  and  C_39 
REMARK   16  A    between atoms: C_41  and  C_54 
REMARK   17  A    between atoms: C_43  and  C_45 
REMARK   18  A    between atoms: N_46  and  N_48 
REMARK       I    between atoms: N_48  and  C_49 
REMARK       I    between atoms: C_49  and  N_52 
REMARK   19  A    between atoms: N_55  and  N_57 
REMARK       I    between atoms: N_57  and  C_58 
REMARK       I    between atoms: C_58  and  N_61 
ROOT
HETATM    1  C   UNK N   1      35.744  14.375  12.960  0.00  0.00     0.000 C 
ENDROOT
BRANCH   1   2
HETATM    2  C   UNK N   1      36.561  13.986  11.737  0.00  0.00     0.000 C 
BRANCH   2   3
HETATM    3  C   UNK N   1      36.337  14.946  10.583  0.00  0.00     0.009 C 
BRANCH   3   4
HETATM    4  C   UNK N   1      35.505  16.138  11.023  0.00  0.00     0.103 C 
BRANCH   4   5
HETATM    5  C   UNK N   1      34.649  16.625   9.903  0.00  0.00     0.222 C 
HETATM    6  N   UNK N   1      33.606  15.862   9.477  0.00  0.00    -0.327 N 
HETATM    7  H   UNK N   1      33.501  14.970   9.881  0.00  0.00     0.169 HD
HETATM    8  O   UNK N   1      34.891  17.709   9.395  0.00  0.00    -0.273 OA
BRANCH   6   9
HETATM    9  C   UNK N   1      32.655  16.254   8.497  0.00  0.00     0.036 A 
HETATM   10  C   UNK N   1      31.452  16.808   8.899  0.00  0.00     0.043 A 
HETATM   11  C   UNK N   1      30.505  17.251   7.962  0.00  0.00    -0.009 A 
HETATM   12  C   UNK N   1      30.793  17.143   6.580  0.00  0.00     0.027 A 
HETATM   13  C   UNK N   1      32.018  16.574   6.171  0.00  0.00    -0.009 A 
HETATM   14  C   UNK N   1      32.921  16.142   7.141  0.00  0.00     0.043 A 
BRANCH  11  15
HETATM   15  C   UNK N   1      29.232  17.795   8.486  0.00  0.00     0.033 C 
HETATM   16  C   UNK N   1      28.687  17.354   9.812  0.00  0.00     0.070 C 
HETATM   17  N   UNK N   1      28.622  18.684   7.773  0.00  0.00    -0.290 N 
ATOM     18  HN  UNK N   1      29.032  18.949   6.879  1.00  0.00     0.187 HD
BRANCH  17  19
HETATM   19  N   UNK N   1      27.452  19.290   8.157  0.00  0.00    -0.133 N 
HETATM   20  C   UNK N   1      27.007  20.439   7.455  0.00  0.00     0.684 C 
HETATM   21  N   UNK N   1      25.930  21.032   7.815  0.00  0.00    -0.234 N 
HETATM   22  N   UNK N   1      27.758  20.948   6.370  0.00  0.00    -0.234 N 
HETATM   23  H   UNK N   1      25.732  21.951   7.525  0.00  0.00     0.174 HD
ATOM     24  HN  UNK N   1      25.266  20.541   8.414  1.00  0.00     0.174 HD
HETATM   25  H   UNK N   1      28.569  20.498   6.041  0.00  0.00     0.174 HD
HETATM   26  H   UNK N   1      27.462  21.778   5.932  0.00  0.00     0.174 HD
HETATM   27  H   UNK N   1      26.927  18.932   8.910  0.00  0.00     0.205 HD
ENDBRANCH  17  19
ENDBRANCH  11  15
BRANCH  13  28
HETATM   28  C   UNK N   1      32.421  16.383   4.758  0.00  0.00     0.033 C 
HETATM   29  N   UNK N   1      32.456  15.170   4.314  0.00  0.00    -0.290 N 
ATOM     30  HN  UNK N   1      32.219  14.418   4.961  1.00  0.00     0.187 HD
HETATM   31  C   UNK N   1      32.753  17.547   3.874  0.00  0.00     0.070 C 
BRANCH  29  32
HETATM   32  N   UNK N   1      32.791  14.827   3.029  0.00  0.00    -0.133 N 
HETATM   33  C   UNK N   1      34.065  14.251   2.778  0.00  0.00     0.684 C 
HETATM   34  N   UNK N   1      34.870  14.012   3.749  0.00  0.00    -0.234 N 
HETATM   35  N   UNK N   1      34.442  13.917   1.461  0.00  0.00    -0.234 N 
HETATM   36  H   UNK N   1      35.772  13.659   3.572  0.00  0.00     0.174 HD
ATOM     37  HN  UNK N   1      34.575  14.187   4.710  1.00  0.00     0.174 HD
HETATM   38  H   UNK N   1      33.847  14.133   0.707  0.00  0.00     0.174 HD
HETATM   39  H   UNK N   1      35.302  13.467   1.295  0.00  0.00     0.174 HD
HETATM   40  H   UNK N   1      32.157  14.978   2.290  0.00  0.00     0.205 HD
ENDBRANCH  29  32
ENDBRANCH  13  28
ENDBRANCH   6   9
ENDBRANCH   4   5
ENDBRANCH   3   4
ENDBRANCH   2   3
ENDBRANCH   1   2
BRANCH   1  41
HETATM   41  C   UNK N   1      36.473  13.960  14.226  0.00  0.00     0.000 C 
BRANCH  41  42
HETATM   42  C   UNK N   1      36.140  12.516  14.563  0.00  0.00     0.000 C 
BRANCH  42  43
HETATM   43  C   UNK N   1      34.662  12.321  14.854  0.00  0.00     0.009 C 
BRANCH  43  44
HETATM   44  C   UNK N   1      34.257  10.864  14.693  0.00  0.00     0.103 C 
BRANCH  44  45
HETATM   45  C   UNK N   1      34.510  10.411  13.296  0.00  0.00     0.222 C 
HETATM   46  O   UNK N   1      35.180   9.407  13.106  0.00  0.00    -0.273 OA
HETATM   47  N   UNK N   1      33.998  11.128  12.259  0.00  0.00    -0.327 N 
HETATM   48  H   UNK N   1      33.434  11.904  12.480  0.00  0.00     0.169 HD
BRANCH  47  49
HETATM   49  C   UNK N   1      34.209  10.846  10.883  0.00  0.00     0.036 A 
HETATM   50  C   UNK N   1      35.301  11.349  10.198  0.00  0.00     0.043 A 
HETATM   51  C   UNK N   1      35.496  11.113   8.837  0.00  0.00    -0.009 A 
HETATM   52  C   UNK N   1      34.552  10.334   8.134  0.00  0.00     0.027 A 
HETATM   53  C   UNK N   1      33.436   9.805   8.829  0.00  0.00    -0.009 A 
HETATM   54  C   UNK N   1      33.285  10.077  10.198  0.00  0.00     0.043 A 
BRANCH  51  55
HETATM   55  C   UNK N   1      36.713  11.705   8.233  0.00  0.00     0.033 C 
HETATM   56  N   UNK N   1      36.539  12.529   7.253  0.00  0.00    -0.290 N 
ATOM     57  HN  UNK N   1      35.582  12.713   6.951  1.00  0.00     0.187 HD
HETATM   58  C   UNK N   1      38.083  11.378   8.744  0.00  0.00     0.070 C 
BRANCH  56  59
HETATM   59  N   UNK N   1      37.553  13.174   6.593  0.00  0.00    -0.133 N 
HETATM   60  C   UNK N   1      37.966  12.685   5.324  0.00  0.00     0.684 C 
HETATM   61  N   UNK N   1      37.364  11.686   4.786  0.00  0.00    -0.234 N 
HETATM   62  N   UNK N   1      39.032  13.306   4.640  0.00  0.00    -0.234 N 
HETATM   63  H   UNK N   1      37.675  11.317   3.928  0.00  0.00     0.174 HD
ATOM     64  HN  UNK N   1      36.557  11.272   5.251  1.00  0.00     0.174 HD
HETATM   65  H   UNK N   1      39.543  14.027   5.075  0.00  0.00     0.174 HD
HETATM   66  H   UNK N   1      39.264  13.019   3.728  0.00  0.00     0.174 HD
HETATM   67  H   UNK N   1      37.987  13.962   6.991  0.00  0.00     0.205 HD
ENDBRANCH  56  59
ENDBRANCH  51  55
BRANCH  53  68
HETATM   68  C   UNK N   1      32.408   8.953   8.187  0.00  0.00     0.033 C 
HETATM   69  N   UNK N   1      31.478   9.540   7.511  0.00  0.00    -0.290 N 
ATOM     70  HN  UNK N   1      31.504  10.557   7.439  1.00  0.00     0.187 HD
HETATM   71  C   UNK N   1      32.436   7.460   8.335  0.00  0.00     0.070 C 
BRANCH  69  72
HETATM   72  N   UNK N   1      30.457   8.872   6.885  0.00  0.00    -0.133 N 
HETATM   73  C   UNK N   1      29.969   9.358   5.646  0.00  0.00     0.684 C 
HETATM   74  N   UNK N   1      29.003   8.758   5.059  0.00  0.00    -0.234 N 
HETATM   75  N   UNK N   1      30.537  10.514   5.059  0.00  0.00    -0.234 N 
HETATM   76  H   UNK N   1      28.467   9.212   4.369  0.00  0.00     0.174 HD
ATOM     77  HN  UNK N   1      28.785   7.793   5.309  1.00  0.00     0.174 HD
HETATM   78  H   UNK N   1      31.337  10.956   5.424  0.00  0.00     0.174 HD
HETATM   79  H   UNK N   1      30.115  10.892   4.253  0.00  0.00     0.174 HD
HETATM   80  H   UNK N   1      30.067   8.065   7.293  0.00  0.00     0.205 HD
ENDBRANCH  69  72
ENDBRANCH  53  68
ENDBRANCH  47  49
ENDBRANCH  44  45
ENDBRANCH  43  44
ENDBRANCH  42  43
ENDBRANCH  41  42
ENDBRANCH   1  41
TORSDOF 19
ENDMDL
MODEL 7
REMARK VINA RESULT:      -7.8      3.030      3.918
REMARK  19 active torsions:
REMARK  status: ('A' for Active; 'I' for Inactive)
REMARK    1  A    between atoms: C_2  and  C_10 
REMARK    2  A    between atoms: N_3  and  N_5 
REMARK       I    between atoms: N_5  and  C_6 
REMARK       I    between atoms: C_6  and  N_9 
REMARK    3  A    between atoms: C_12  and  N_25 
REMARK    4  A    between atoms: C_14  and  C_16 
REMARK    5  A    between atoms: N_17  and  N_19 
REMARK       I    between atoms: N_19  and  C_20 
REMARK       I    between atoms: C_20  and  N_23 
REMARK       I    between atoms: N_25  and  C_26 
REMARK    6  A    between atoms: C_26  and  C_28 
REMARK    7  A    between atoms: C_28  and  C_29 
REMARK    8  A    between atoms: C_29  and  C_30 
REMARK    9  A    between atoms: C_30  and  C_31 
REMARK   10  A    between atoms: C_31  and  C_32 
REMARK   11  A    between atoms: C_32  and  C_33 
REMARK   12  A    between atoms: C_33  and  C_34 
REMARK   13  A    between atoms: C_34  and  C_35 
REMARK   14  A    between atoms: C_35  and  C_36 
REMARK       I    between atoms: C_36  and  N_38 
REMARK   15  A    between atoms: N_38  and  C_39 
REMARK   16  A    between atoms: C_41  and  C_54 
REMARK   17  A    between atoms: C_43  and  C_45 
REMARK   18  A    between atoms: N_46  and  N_48 
REMARK       I    between atoms: N_48  and  C_49 
REMARK       I    between atoms: C_49  and  N_52 
REMARK   19  A    between atoms: N_55  and  N_57 
REMARK       I    between atoms: N_57  and  C_58 
REMARK       I    between atoms: C_58  and  N_61 
ROOT
HETATM    1  C   UNK N   1      29.650  10.750   1.734  0.00  0.00     0.000 C 
ENDROOT
BRANCH   1   2
HETATM    2  C   UNK N   1      31.136  11.020   1.917  0.00  0.00     0.000 C 
BRANCH   2   3
HETATM    3  C   UNK N   1      31.440  11.579   3.296  0.00  0.00     0.009 C 
BRANCH   3   4
HETATM    4  C   UNK N   1      31.895  13.025   3.205  0.00  0.00     0.103 C 
BRANCH   4   5
HETATM    5  C   UNK N   1      31.643  13.738   4.490  0.00  0.00     0.222 C 
HETATM    6  N   UNK N   1      32.013  15.041   4.616  0.00  0.00    -0.327 N 
HETATM    7  H   UNK N   1      32.510  15.447   3.870  0.00  0.00     0.169 HD
HETATM    8  O   UNK N   1      31.093  13.143   5.404  0.00  0.00    -0.273 OA
BRANCH   6   9
HETATM    9  C   UNK N   1      31.736  15.862   5.743  0.00  0.00     0.036 A 
HETATM   10  C   UNK N   1      32.759  16.184   6.618  0.00  0.00     0.043 A 
HETATM   11  C   UNK N   1      32.538  17.030   7.716  0.00  0.00    -0.009 A 
HETATM   12  C   UNK N   1      31.248  17.575   7.925  0.00  0.00     0.027 A 
HETATM   13  C   UNK N   1      30.205  17.242   7.034  0.00  0.00    -0.009 A 
HETATM   14  C   UNK N   1      30.475  16.392   5.963  0.00  0.00     0.043 A 
BRANCH  11  15
HETATM   15  C   UNK N   1      33.683  17.288   8.619  0.00  0.00     0.033 C 
HETATM   16  C   UNK N   1      34.668  18.381   8.329  0.00  0.00     0.070 C 
HETATM   17  N   UNK N   1      33.787  16.556   9.679  0.00  0.00    -0.290 N 
ATOM     18  HN  UNK N   1      33.093  15.825   9.830  1.00  0.00     0.187 HD
BRANCH  17  19
HETATM   19  N   UNK N   1      34.781  16.711  10.612  0.00  0.00    -0.133 N 
HETATM   20  C   UNK N   1      35.271  15.569  11.296  0.00  0.00     0.684 C 
HETATM   21  N   UNK N   1      36.180  15.699  12.188  0.00  0.00    -0.234 N 
HETATM   22  N   UNK N   1      34.743  14.288  11.013  0.00  0.00    -0.234 N 
HETATM   23  H   UNK N   1      36.358  14.987  12.844  0.00  0.00     0.174 HD
ATOM     24  HN  UNK N   1      36.732  16.556  12.218  1.00  0.00     0.174 HD
HETATM   25  H   UNK N   1      34.071  14.144  10.308  0.00  0.00     0.174 HD
HETATM   26  H   UNK N   1      35.057  13.516  11.538  0.00  0.00     0.174 HD
HETATM   27  H   UNK N   1      35.151  17.604  10.805  0.00  0.00     0.205 HD
ENDBRANCH  17  19
ENDBRANCH  11  15
BRANCH  13  28
HETATM   28  C   UNK N   1      28.811  17.727   7.161  0.00  0.00     0.033 C 
HETATM   29  N   UNK N   1      28.420  18.627   6.318  0.00  0.00    -0.290 N 
ATOM     30  HN  UNK N   1      29.095  18.959   5.629  1.00  0.00     0.187 HD
HETATM   31  C   UNK N   1      27.884  17.182   8.205  0.00  0.00     0.070 C 
BRANCH  29  32
HETATM   32  N   UNK N   1      27.159  19.164   6.292  0.00  0.00    -0.133 N 
HETATM   33  C   UNK N   1      26.595  19.541   5.043  0.00  0.00     0.684 C 
HETATM   34  N   UNK N   1      27.242  19.337   3.952  0.00  0.00    -0.234 N 
HETATM   35  N   UNK N   1      25.312  20.122   4.995  0.00  0.00    -0.234 N 
HETATM   36  H   UNK N   1      26.875  19.644   3.092  0.00  0.00     0.174 HD
ATOM     37  HN  UNK N   1      28.140  18.855   3.977  1.00  0.00     0.174 HD
HETATM   38  H   UNK N   1      24.825  20.318   5.828  0.00  0.00     0.174 HD
HETATM   39  H   UNK N   1      24.900  20.332   4.125  0.00  0.00     0.174 HD
HETATM   40  H   UNK N   1      26.650  19.286   7.126  0.00  0.00     0.205 HD
ENDBRANCH  29  32
ENDBRANCH  13  28
ENDBRANCH   6   9
ENDBRANCH   4   5
ENDBRANCH   3   4
ENDBRANCH   2   3
ENDBRANCH   1   2
BRANCH   1  41
HETATM   41  C   UNK N   1      28.983  11.943   1.072  0.00  0.00     0.000 C 
BRANCH  41  42
HETATM   42  C   UNK N   1      28.090  12.656   2.075  0.00  0.00     0.000 C 
BRANCH  42  43
HETATM   43  C   UNK N   1      27.953  14.138   1.768  0.00  0.00     0.009 C 
BRANCH  43  44
HETATM   44  C   UNK N   1      28.419  14.987   2.939  0.00  0.00     0.103 C 
BRANCH  44  45
HETATM   45  C   UNK N   1      27.258  15.381   3.785  0.00  0.00     0.222 C 
HETATM   46  O   UNK N   1      27.322  16.406   4.448  0.00  0.00    -0.273 OA
HETATM   47  N   UNK N   1      26.152  14.589   3.810  0.00  0.00    -0.327 N 
HETATM   48  H   UNK N   1      26.148  13.799   3.223  0.00  0.00     0.169 HD
BRANCH  47  49
HETATM   49  C   UNK N   1      25.001  14.811   4.613  0.00  0.00     0.036 A 
HETATM   50  C   UNK N   1      23.911  15.519   4.140  0.00  0.00     0.043 A 
HETATM   51  C   UNK N   1      22.794  15.779   4.933  0.00  0.00    -0.009 A 
HETATM   52  C   UNK N   1      22.771  15.304   6.262  0.00  0.00     0.027 A 
HETATM   53  C   UNK N   1      23.878  14.569   6.753  0.00  0.00    -0.009 A 
HETATM   54  C   UNK N   1      24.979  14.340   5.914  0.00  0.00     0.043 A 
BRANCH  51  55
HETATM   55  C   UNK N   1      21.694  16.541   4.295  0.00  0.00     0.033 C 
HETATM   56  N   UNK N   1      21.006  15.929   3.388  0.00  0.00    -0.290 N 
ATOM     57  HN  UNK N   1      21.267  14.970   3.161  1.00  0.00     0.187 HD
HETATM   58  C   UNK N   1      21.381  17.951   4.694  0.00  0.00     0.070 C 
BRANCH  56  59
HETATM   59  N   UNK N   1      19.950  16.481   2.712  0.00  0.00    -0.133 N 
HETATM   60  C   UNK N   1      19.884  16.332   1.300  0.00  0.00     0.684 C 
HETATM   61  N   UNK N   1      20.776  15.647   0.678  0.00  0.00    -0.234 N 
HETATM   62  N   UNK N   1      18.828  16.922   0.575  0.00  0.00    -0.234 N 
HETATM   63  H   UNK N   1      20.758  15.578  -0.304  0.00  0.00     0.174 HD
ATOM     64  HN  UNK N   1      21.507  15.171   1.206  1.00  0.00     0.174 HD
HETATM   65  H   UNK N   1      18.180  17.506   1.034  0.00  0.00     0.174 HD
HETATM   66  H   UNK N   1      18.739  16.751  -0.389  0.00  0.00     0.174 HD
HETATM   67  H   UNK N   1      19.248  16.974   3.196  0.00  0.00     0.205 HD
ENDBRANCH  56  59
ENDBRANCH  51  55
BRANCH  53  68
HETATM   68  C   UNK N   1      23.937  14.004   8.122  0.00  0.00     0.033 C 
HETATM   69  N   UNK N   1      22.819  13.709   8.697  0.00  0.00    -0.290 N 
ATOM     70  HN  UNK N   1      21.954  13.865   8.179  1.00  0.00     0.187 HD
HETATM   71  C   UNK N   1      25.248  13.800   8.821  0.00  0.00     0.070 C 
BRANCH  69  72
HETATM   72  N   UNK N   1      22.730  13.199   9.967  0.00  0.00    -0.133 N 
HETATM   73  C   UNK N   1      22.843  11.799  10.161  0.00  0.00     0.684 C 
HETATM   74  N   UNK N   1      22.742  11.305  11.337  0.00  0.00    -0.234 N 
HETATM   75  N   UNK N   1      23.054  10.941   9.055  0.00  0.00    -0.234 N 
HETATM   76  H   UNK N   1      22.536  10.352  11.472  0.00  0.00     0.174 HD
ATOM     77  HN  UNK N   1      22.879  11.908  12.148  1.00  0.00     0.174 HD
HETATM   78  H   UNK N   1      23.229  11.279   8.147  0.00  0.00     0.174 HD
HETATM   79  H   UNK N   1      23.026   9.967   9.200  0.00  0.00     0.174 HD
HETATM   80  H   UNK N   1      22.589  13.799  10.736  0.00  0.00     0.205 HD
ENDBRANCH  69  72
ENDBRANCH  53  68
ENDBRANCH  47  49
ENDBRANCH  44  45
ENDBRANCH  43  44
ENDBRANCH  42  43
ENDBRANCH  41  42
ENDBRANCH   1  41
TORSDOF 19
ENDMDL
MODEL 8
REMARK VINA RESULT:      -7.7      6.832     12.131
REMARK  19 active torsions:
REMARK  status: ('A' for Active; 'I' for Inactive)
REMARK    1  A    between atoms: C_2  and  C_10 
REMARK    2  A    between atoms: N_3  and  N_5 
REMARK       I    between atoms: N_5  and  C_6 
REMARK       I    between atoms: C_6  and  N_9 
REMARK    3  A    between atoms: C_12  and  N_25 
REMARK    4  A    between atoms: C_14  and  C_16 
REMARK    5  A    between atoms: N_17  and  N_19 
REMARK       I    between atoms: N_19  and  C_20 
REMARK       I    between atoms: C_20  and  N_23 
REMARK       I    between atoms: N_25  and  C_26 
REMARK    6  A    between atoms: C_26  and  C_28 
REMARK    7  A    between atoms: C_28  and  C_29 
REMARK    8  A    between atoms: C_29  and  C_30 
REMARK    9  A    between atoms: C_30  and  C_31 
REMARK   10  A    between atoms: C_31  and  C_32 
REMARK   11  A    between atoms: C_32  and  C_33 
REMARK   12  A    between atoms: C_33  and  C_34 
REMARK   13  A    between atoms: C_34  and  C_35 
REMARK   14  A    between atoms: C_35  and  C_36 
REMARK       I    between atoms: C_36  and  N_38 
REMARK   15  A    between atoms: N_38  and  C_39 
REMARK   16  A    between atoms: C_41  and  C_54 
REMARK   17  A    between atoms: C_43  and  C_45 
REMARK   18  A    between atoms: N_46  and  N_48 
REMARK       I    between atoms: N_48  and  C_49 
REMARK       I    between atoms: C_49  and  N_52 
REMARK   19  A    between atoms: N_55  and  N_57 
REMARK       I    between atoms: N_57  and  C_58 
REMARK       I    between atoms: C_58  and  N_61 
ROOT
HETATM    1  C   UNK N   1      33.445  10.041  11.548  0.00  0.00     0.000 C 
ENDROOT
BRANCH   1   2
HETATM    2  C   UNK N   1      33.193   9.521  10.141  0.00  0.00     0.000 C 
BRANCH   2   3
HETATM    3  C   UNK N   1      33.577  10.543   9.086  0.00  0.00     0.009 C 
BRANCH   3   4
HETATM    4  C   UNK N   1      34.038   9.857   7.811  0.00  0.00     0.103 C 
BRANCH   4   5
HETATM    5  C   UNK N   1      34.255  10.857   6.726  0.00  0.00     0.222 C 
HETATM    6  N   UNK N   1      33.187  11.517   6.201  0.00  0.00    -0.327 N 
HETATM    7  H   UNK N   1      32.292  11.250   6.509  0.00  0.00     0.169 HD
HETATM    8  O   UNK N   1      35.392  11.077   6.337  0.00  0.00    -0.273 OA
BRANCH   6   9
HETATM    9  C   UNK N   1      33.266  12.564   5.244  0.00  0.00     0.036 A 
HETATM   10  C   UNK N   1      32.714  13.798   5.538  0.00  0.00     0.043 A 
HETATM   11  C   UNK N   1      32.811  14.873   4.639  0.00  0.00    -0.009 A 
HETATM   12  C   UNK N   1      33.498  14.693   3.415  0.00  0.00     0.027 A 
HETATM   13  C   UNK N   1      34.057  13.433   3.114  0.00  0.00    -0.009 A 
HETATM   14  C   UNK N   1      33.927  12.396   4.037  0.00  0.00     0.043 A 
BRANCH  11  15
HETATM   15  C   UNK N   1      32.158  16.144   5.024  0.00  0.00     0.033 C 
HETATM   16  C   UNK N   1      32.918  17.437   5.027  0.00  0.00     0.070 C 
HETATM   17  N   UNK N   1      30.903  16.105   5.330  0.00  0.00    -0.290 N 
ATOM     18  HN  UNK N   1      30.431  15.202   5.314  1.00  0.00     0.187 HD
BRANCH  17  19
HETATM   19  N   UNK N   1      30.172  17.214   5.674  0.00  0.00    -0.133 N 
HETATM   20  C   UNK N   1      29.274  17.770   4.727  0.00  0.00     0.684 C 
HETATM   21  N   UNK N   1      28.603  18.820   5.022  0.00  0.00    -0.234 N 
HETATM   22  N   UNK N   1      29.133  17.184   3.448  0.00  0.00    -0.234 N 
HETATM   23  H   UNK N   1      28.175  19.367   4.324  0.00  0.00     0.174 HD
ATOM     24  HN  UNK N   1      28.509  19.094   6.000  1.00  0.00     0.174 HD
HETATM   25  H   UNK N   1      29.603  16.356   3.199  0.00  0.00     0.174 HD
HETATM   26  H   UNK N   1      28.546  17.617   2.786  0.00  0.00     0.174 HD
HETATM   27  H   UNK N   1      30.269  17.619   6.566  0.00  0.00     0.205 HD
ENDBRANCH  17  19
ENDBRANCH  11  15
BRANCH  13  28
HETATM   28  C   UNK N   1      34.775  13.115   1.857  0.00  0.00     0.033 C 
HETATM   29  N   UNK N   1      34.199  13.447   0.749  0.00  0.00    -0.290 N 
ATOM     30  HN  UNK N   1      33.283  13.893   0.802  1.00  0.00     0.187 HD
HETATM   31  C   UNK N   1      36.122  12.457   1.870  0.00  0.00     0.070 C 
BRANCH  29  32
HETATM   32  N   UNK N   1      34.739  13.238  -0.495  0.00  0.00    -0.133 N 
HETATM   33  C   UNK N   1      34.174  12.240  -1.334  0.00  0.00     0.684 C 
HETATM   34  N   UNK N   1      33.143  11.578  -0.949  0.00  0.00    -0.234 N 
HETATM   35  N   UNK N   1      34.730  11.989  -2.604  0.00  0.00    -0.234 N 
HETATM   36  H   UNK N   1      32.781  10.852  -1.508  0.00  0.00     0.174 HD
ATOM     37  HN  UNK N   1      32.696  11.804  -0.061  1.00  0.00     0.174 HD
HETATM   38  H   UNK N   1      35.544  12.464  -2.891  0.00  0.00     0.174 HD
HETATM   39  H   UNK N   1      34.304  11.336  -3.207  0.00  0.00     0.174 HD
HETATM   40  H   UNK N   1      35.507  13.772  -0.802  0.00  0.00     0.205 HD
ENDBRANCH  29  32
ENDBRANCH  13  28
ENDBRANCH   6   9
ENDBRANCH   4   5
ENDBRANCH   3   4
ENDBRANCH   2   3
ENDBRANCH   1   2
BRANCH   1  41
HETATM   41  C   UNK N   1      34.683   9.383  12.132  0.00  0.00     0.000 C 
BRANCH  41  42
HETATM   42  C   UNK N   1      35.280  10.273  13.210  0.00  0.00     0.000 C 
BRANCH  42  43
HETATM   43  C   UNK N   1      34.398  11.471  13.518  0.00  0.00     0.009 C 
BRANCH  43  44
HETATM   44  C   UNK N   1      35.232  12.712  13.789  0.00  0.00     0.103 C 
BRANCH  44  45
HETATM   45  C   UNK N   1      35.470  13.460  12.523  0.00  0.00     0.222 C 
HETATM   46  O   UNK N   1      36.455  14.177  12.428  0.00  0.00    -0.273 OA
HETATM   47  N   UNK N   1      34.581  13.338  11.499  0.00  0.00    -0.327 N 
HETATM   48  H   UNK N   1      33.830  12.714  11.624  0.00  0.00     0.169 HD
BRANCH  47  49
HETATM   49  C   UNK N   1      34.652  14.036  10.264  0.00  0.00     0.036 A 
HETATM   50  C   UNK N   1      35.541  13.665   9.270  0.00  0.00     0.043 A 
HETATM   51  C   UNK N   1      35.648  14.368   8.071  0.00  0.00    -0.009 A 
HETATM   52  C   UNK N   1      34.822  15.494   7.860  0.00  0.00     0.027 A 
HETATM   53  C   UNK N   1      33.901  15.875   8.866  0.00  0.00    -0.009 A 
HETATM   54  C   UNK N   1      33.837  15.135  10.057  0.00  0.00     0.043 A 
BRANCH  51  55
HETATM   55  C   UNK N   1      36.635  13.856   7.091  0.00  0.00     0.033 C 
HETATM   56  N   UNK N   1      37.453  12.946   7.505  0.00  0.00    -0.290 N 
ATOM     57  HN  UNK N   1      37.377  12.645   8.476  1.00  0.00     0.187 HD
HETATM   58  C   UNK N   1      36.674  14.358   5.680  0.00  0.00     0.070 C 
BRANCH  56  59
HETATM   59  N   UNK N   1      38.416  12.357   6.727  0.00  0.00    -0.133 N 
HETATM   60  C   UNK N   1      38.711  10.981   6.924  0.00  0.00     0.684 C 
HETATM   61  N   UNK N   1      38.051  10.292   7.784  0.00  0.00    -0.234 N 
HETATM   62  N   UNK N   1      39.723  10.359   6.162  0.00  0.00    -0.234 N 
HETATM   63  H   UNK N   1      38.282   9.350   7.954  0.00  0.00     0.174 HD
ATOM     64  HN  UNK N   1      37.281  10.724   8.294  1.00  0.00     0.174 HD
HETATM   65  H   UNK N   1      40.280  10.894   5.552  0.00  0.00     0.174 HD
HETATM   66  H   UNK N   1      39.872   9.390   6.242  0.00  0.00     0.174 HD
HETATM   67  H   UNK N   1      38.894  12.878   6.043  0.00  0.00     0.205 HD
ENDBRANCH  56  59
ENDBRANCH  51  55
BRANCH  53  68
HETATM   68  C   UNK N   1      32.972  17.021   8.727  0.00  0.00     0.033 C 
HETATM   69  N   UNK N   1      31.722  16.814   8.976  0.00  0.00    -0.290 N 
ATOM     70  HN  UNK N   1      31.438  15.879   9.270  1.00  0.00     0.187 HD
HETATM   71  C   UNK N   1      33.464  18.370   8.293  0.00  0.00     0.070 C 
BRANCH  69  72
HETATM   72  N   UNK N   1      30.756  17.781   8.867  0.00  0.00    -0.133 N 
HETATM   73  C   UNK N   1      29.620  17.724   9.715  0.00  0.00     0.684 C 
HETATM   74  N   UNK N   1      28.700  18.607   9.612  0.00  0.00    -0.234 N 
HETATM   75  N   UNK N   1      29.493  16.685  10.668  0.00  0.00    -0.234 N 
HETATM   76  H   UNK N   1      27.798  18.444   9.970  0.00  0.00     0.174 HD
ATOM     77  HN  UNK N   1      28.905  19.495   9.153  1.00  0.00     0.174 HD
HETATM   78  H   UNK N   1      30.213  16.038  10.847  0.00  0.00     0.174 HD
HETATM   79  H   UNK N   1      28.651  16.607  11.172  0.00  0.00     0.174 HD
HETATM   80  H   UNK N   1      30.849  18.506   8.207  0.00  0.00     0.205 HD
ENDBRANCH  69  72
ENDBRANCH  53  68
ENDBRANCH  47  49
ENDBRANCH  44  45
ENDBRANCH  43  44
ENDBRANCH  42  43
ENDBRANCH  41  42
ENDBRANCH   1  41
TORSDOF 19
ENDMDL
MODEL 9
REMARK VINA RESULT:      -7.7      6.276     11.883
REMARK  19 active torsions:
REMARK  status: ('A' for Active; 'I' for Inactive)
REMARK    1  A    between atoms: C_2  and  C_10 
REMARK    2  A    between atoms: N_3  and  N_5 
REMARK       I    between atoms: N_5  and  C_6 
REMARK       I    between atoms: C_6  and  N_9 
REMARK    3  A    between atoms: C_12  and  N_25 
REMARK    4  A    between atoms: C_14  and  C_16 
REMARK    5  A    between atoms: N_17  and  N_19 
REMARK       I    between atoms: N_19  and  C_20 
REMARK       I    between atoms: C_20  and  N_23 
REMARK       I    between atoms: N_25  and  C_26 
REMARK    6  A    between atoms: C_26  and  C_28 
REMARK    7  A    between atoms: C_28  and  C_29 
REMARK    8  A    between atoms: C_29  and  C_30 
REMARK    9  A    between atoms: C_30  and  C_31 
REMARK   10  A    between atoms: C_31  and  C_32 
REMARK   11  A    between atoms: C_32  and  C_33 
REMARK   12  A    between atoms: C_33  and  C_34 
REMARK   13  A    between atoms: C_34  and  C_35 
REMARK   14  A    between atoms: C_35  and  C_36 
REMARK       I    between atoms: C_36  and  N_38 
REMARK   15  A    between atoms: N_38  and  C_39 
REMARK   16  A    between atoms: C_41  and  C_54 
REMARK   17  A    between atoms: C_43  and  C_45 
REMARK   18  A    between atoms: N_46  and  N_48 
REMARK       I    between atoms: N_48  and  C_49 
REMARK       I    between atoms: C_49  and  N_52 
REMARK   19  A    between atoms: N_55  and  N_57 
REMARK       I    between atoms: N_57  and  C_58 
REMARK       I    between atoms: C_58  and  N_61 
ROOT
HETATM    1  C   UNK N   1      36.457  13.494  14.246  0.00  0.00     0.000 C 
ENDROOT
BRANCH   1   2
HETATM    2  C   UNK N   1      35.198  13.300  15.076  0.00  0.00     0.000 C 
BRANCH   2   3
HETATM    3  C   UNK N   1      35.171  11.940  15.748  0.00  0.00     0.009 C 
BRANCH   3   4
HETATM    4  C   UNK N   1      34.054  11.079  15.184  0.00  0.00     0.103 C 
BRANCH   4   5
HETATM    5  C   UNK N   1      34.477  10.443  13.902  0.00  0.00     0.222 C 
HETATM    6  N   UNK N   1      33.793  10.723  12.760  0.00  0.00    -0.327 N 
HETATM    7  H   UNK N   1      32.987  11.283  12.838  0.00  0.00     0.169 HD
HETATM    8  O   UNK N   1      35.440   9.693  13.898  0.00  0.00    -0.273 OA
BRANCH   6   9
HETATM    9  C   UNK N   1      34.153  10.271  11.462  0.00  0.00     0.036 A 
HETATM   10  C   UNK N   1      33.480   9.199  10.903  0.00  0.00     0.043 A 
HETATM   11  C   UNK N   1      33.774   8.751   9.605  0.00  0.00    -0.009 A 
HETATM   12  C   UNK N   1      34.768   9.417   8.849  0.00  0.00     0.027 A 
HETATM   13  C   UNK N   1      35.457  10.507   9.422  0.00  0.00    -0.009 A 
HETATM   14  C   UNK N   1      35.133  10.908  10.717  0.00  0.00     0.043 A 
BRANCH  11  15
HETATM   15  C   UNK N   1      33.027   7.574   9.105  0.00  0.00     0.033 C 
HETATM   16  C   UNK N   1      33.535   6.181   9.332  0.00  0.00     0.070 C 
HETATM   17  N   UNK N   1      31.910   7.788   8.494  0.00  0.00    -0.290 N 
ATOM     18  HN  UNK N   1      31.609   8.753   8.364  1.00  0.00     0.187 HD
BRANCH  17  19
HETATM   19  N   UNK N   1      31.107   6.786   8.009  0.00  0.00    -0.133 N 
HETATM   20  C   UNK N   1      29.882   6.504   8.667  0.00  0.00     0.684 C 
HETATM   21  N   UNK N   1      29.132   5.556   8.244  0.00  0.00    -0.234 N 
HETATM   22  N   UNK N   1      29.494   7.252   9.803  0.00  0.00    -0.234 N 
HETATM   23  H   UNK N   1      28.422   5.175   8.809  0.00  0.00     0.174 HD
ATOM     24  HN  UNK N   1      29.274   5.189   7.303  1.00  0.00     0.174 HD
HETATM   25  H   UNK N   1      30.025   8.012  10.134  0.00  0.00     0.174 HD
HETATM   26  H   UNK N   1      28.667   7.004  10.278  0.00  0.00     0.174 HD
HETATM   27  H   UNK N   1      31.377   6.269   7.216  0.00  0.00     0.205 HD
ENDBRANCH  17  19
ENDBRANCH  11  15
BRANCH  13  28
HETATM   28  C   UNK N   1      36.533  11.267   8.742  0.00  0.00     0.033 C 
HETATM   29  N   UNK N   1      36.350  11.563   7.498  0.00  0.00    -0.290 N 
ATOM     30  HN  UNK N   1      35.487  11.248   7.054  1.00  0.00     0.187 HD
HETATM   31  C   UNK N   1      37.771  11.693   9.472  0.00  0.00     0.070 C 
BRANCH  29  32
HETATM   32  N   UNK N   1      37.240  12.275   6.734  0.00  0.00    -0.133 N 
HETATM   33  C   UNK N   1      36.982  13.647   6.474  0.00  0.00     0.684 C 
HETATM   34  N   UNK N   1      35.955  14.223   6.985  0.00  0.00    -0.234 N 
HETATM   35  N   UNK N   1      37.868  14.391   5.668  0.00  0.00    -0.234 N 
HETATM   36  H   UNK N   1      35.748  15.160   6.765  0.00  0.00     0.174 HD
ATOM     37  HN  UNK N   1      35.350  13.707   7.625  1.00  0.00     0.174 HD
HETATM   38  H   UNK N   1      38.637  13.949   5.239  0.00  0.00     0.174 HD
HETATM   39  H   UNK N   1      37.719  15.355   5.533  0.00  0.00     0.174 HD
HETATM   40  H   UNK N   1      38.046  11.841   6.373  0.00  0.00     0.205 HD
ENDBRANCH  29  32
ENDBRANCH  13  28
ENDBRANCH   6   9
ENDBRANCH   4   5
ENDBRANCH   3   4
ENDBRANCH   2   3
ENDBRANCH   1   2
BRANCH   1  41
HETATM   41  C   UNK N   1      36.237  14.587  13.214  0.00  0.00     0.000 C 
BRANCH  41  42
HETATM   42  C   UNK N   1      35.170  14.151  12.222  0.00  0.00     0.000 C 
BRANCH  42  43
HETATM   43  C   UNK N   1      35.466  14.635  10.813  0.00  0.00     0.009 C 
BRANCH  43  44
HETATM   44  C   UNK N   1      35.607  16.148  10.770  0.00  0.00     0.103 C 
BRANCH  44  45
HETATM   45  C   UNK N   1      34.699  16.721   9.737  0.00  0.00     0.222 C 
HETATM   46  O   UNK N   1      34.901  17.854   9.325  0.00  0.00    -0.273 OA
HETATM   47  N   UNK N   1      33.656  15.977   9.279  0.00  0.00    -0.327 N 
HETATM   48  H   UNK N   1      33.571  15.058   9.622  0.00  0.00     0.169 HD
BRANCH  47  49
HETATM   49  C   UNK N   1      32.681  16.417   8.344  0.00  0.00     0.036 A 
HETATM   50  C   UNK N   1      31.509  17.030   8.752  0.00  0.00     0.043 A 
HETATM   51  C   UNK N   1      30.527  17.429   7.846  0.00  0.00    -0.009 A 
HETATM   52  C   UNK N   1      30.733  17.203   6.467  0.00  0.00     0.027 A 
HETATM   53  C   UNK N   1      31.935  16.587   6.039  0.00  0.00    -0.009 A 
HETATM   54  C   UNK N   1      32.889  16.200   6.994  0.00  0.00     0.043 A 
BRANCH  51  55
HETATM   55  C   UNK N   1      29.326  18.080   8.419  0.00  0.00     0.033 C 
HETATM   56  N   UNK N   1      28.568  18.735   7.602  0.00  0.00    -0.290 N 
ATOM     57  HN  UNK N   1      28.847  18.772   6.622  1.00  0.00     0.187 HD
HETATM   58  C   UNK N   1      28.993  17.972   9.876  0.00  0.00     0.070 C 
BRANCH  56  59
HETATM   59  N   UNK N   1      27.415  19.383   7.964  0.00  0.00    -0.133 N 
HETATM   60  C   UNK N   1      27.025  20.543   7.243  0.00  0.00     0.684 C 
HETATM   61  N   UNK N   1      27.716  20.947   6.238  0.00  0.00    -0.234 N 
HETATM   62  N   UNK N   1      25.863  21.250   7.618  0.00  0.00    -0.234 N 
HETATM   63  H   UNK N   1      27.473  21.774   5.763  0.00  0.00     0.174 HD
ATOM     64  HN  UNK N   1      28.522  20.405   5.929  1.00  0.00     0.174 HD
HETATM   65  H   UNK N   1      25.366  20.990   8.428  0.00  0.00     0.174 HD
HETATM   66  H   UNK N   1      25.549  22.005   7.070  0.00  0.00     0.174 HD
HETATM   67  H   UNK N   1      26.868  19.050   8.710  0.00  0.00     0.205 HD
ENDBRANCH  56  59
ENDBRANCH  51  55
BRANCH  53  68
HETATM   68  C   UNK N   1      32.257  16.335   4.615  0.00  0.00     0.033 C 
HETATM   69  N   UNK N   1      32.289  15.107   4.215  0.00  0.00    -0.290 N 
ATOM     70  HN  UNK N   1      32.077  14.374   4.892  1.00  0.00     0.187 HD
HETATM   71  C   UNK N   1      32.555  17.465   3.676  0.00  0.00     0.070 C 
BRANCH  69  72
HETATM   72  N   UNK N   1      32.592  14.735   2.930  0.00  0.00    -0.133 N 
HETATM   73  C   UNK N   1      33.810  14.056   2.676  0.00  0.00     0.684 C 
HETATM   74  N   UNK N   1      34.118  13.719   1.480  0.00  0.00    -0.234 N 
HETATM   75  N   UNK N   1      34.697  13.759   3.738  0.00  0.00    -0.234 N 
HETATM   76  H   UNK N   1      35.048  13.511   1.234  0.00  0.00     0.174 HD
ATOM     77  HN  UNK N   1      33.387  13.664   0.770  1.00  0.00     0.174 HD
HETATM   78  H   UNK N   1      34.465  13.915   4.682  0.00  0.00     0.174 HD
HETATM   79  H   UNK N   1      35.581  13.381   3.524  0.00  0.00     0.174 HD
HETATM   80  H   UNK N   1      31.970  14.937   2.193  0.00  0.00     0.205 HD
ENDBRANCH  69  72
ENDBRANCH  53  68
ENDBRANCH  47  49
ENDBRANCH  44  45
ENDBRANCH  43  44
ENDBRANCH  42  43
ENDBRANCH  41  42
ENDBRANCH   1  41
TORSDOF 19
ENDMDL
