MODEL 1
REMARK VINA RESULT:      -8.0      0.000      0.000
REMARK  9 active torsions:
REMARK  status: ('A' for Active; 'I' for Inactive)
REMARK    1  A    between atoms: C_12  and  C_6 
REMARK    2  A    between atoms: C_17  and  C_6 
REMARK    3  A    between atoms: O_32  and  C_12 
REMARK    4  A    between atoms: C_17  and  C_14 
REMARK    5  A    between atoms: C_17  and  N_29 
REMARK    6  A    between atoms: N_31  and  C_19 
REMARK    7  A    between atoms: C_21  and  C_20 
REMARK    8  A    between atoms: C_20  and  O_33 
REMARK    9  A    between atoms: N_23  and  C_21 
ROOT
HETATM    1  C   UNK N   1      20.056  16.434   7.909  0.00  0.00     0.059 C 
HETATM    2  C   UNK N   1      21.622  15.277   6.234  0.00  0.00     0.059 C 
HETATM    3  C   UNK N   1      21.152  15.943   8.838  0.00  0.00     0.127 C 
HETATM    4  C   UNK N   1      21.535  14.086   7.202  0.00  0.00     0.127 C 
HETATM    5  C   UNK N   1      20.457  16.273   6.433  0.00  0.00     0.092 C 
HETATM    6  N   UNK N   1      21.343  14.531   8.577  0.00  0.00    -0.366 N 
ENDROOT
BRANCH   5   7
HETATM    7  C   UNK N   1      20.858  17.633   5.913  0.00  0.00     0.140 C 
HETATM    8  N   UNK N   1      21.022  17.806   4.641  0.00  0.00    -0.364 N 
ATOM      9  HN  UNK N   1      20.844  17.003   4.038  1.00  0.00     0.162 HD
BRANCH   8  10
HETATM   10  C   UNK N   1      21.440  19.041   3.987  0.00  0.00     0.118 C 
BRANCH  10  11
HETATM   11  C   UNK N   1      20.721  19.186   2.643  0.00  0.00     0.056 C 
BRANCH  11  12
HETATM   12  C   UNK N   1      19.770  18.012   2.427  0.00  0.00     0.166 C 
BRANCH  12  13
HETATM   13  O   UNK N   1      18.446  18.435   2.536  0.00  0.00    -0.401 OA
HETATM   14  H   UNK N   1      17.956  18.712   1.746  0.00  0.00     0.209 HD
ENDBRANCH  12  13
ENDBRANCH  11  12
ENDBRANCH  10  11
BRANCH  10  15
HETATM   15  C   UNK N   1      22.946  19.227   3.872  0.00  0.00    -0.035 A 
HETATM   16  C   UNK N   1      23.445  20.257   3.057  0.00  0.00     0.011 A 
HETATM   17  C   UNK N   1      24.820  20.503   2.979  0.00  0.00     0.024 A 
HETATM   18  C   UNK N   1      25.712  19.724   3.718  0.00  0.00     0.034 A 
HETATM   19  C   UNK N   1      25.231  18.693   4.528  0.00  0.00     0.024 A 
HETATM   20 Cl   UNK N   1      27.431  20.056   3.647  0.00  0.00    -0.084 Cl
HETATM   21  C   UNK N   1      23.856  18.448   4.608  0.00  0.00     0.011 A 
ENDBRANCH  10  15
ENDBRANCH   8  10
BRANCH   7  22
HETATM   22  O   UNK N   1      20.991  18.665   6.775  0.00  0.00    -0.348 OA
HETATM   23  H   UNK N   1      21.003  19.001   7.651  0.00  0.00     0.219 HD
ENDBRANCH   7  22
ENDBRANCH   5   7
BRANCH   5  24
HETATM   24  N   UNK N   1      19.301  15.775   5.702  0.00  0.00    -0.415 N 
HETATM   25  H   UNK N   1      18.685  16.044   4.934  0.00  0.00     0.151 HD
HETATM   26  H   UNK N   1      19.016  14.870   6.076  0.00  0.00     0.151 HD
ENDBRANCH   5  24
BRANCH   6  27
HETATM   27  C   UNK N   1      21.278  13.613   9.671  0.00  0.00     0.118 A 
HETATM   28  C   UNK N   1      22.408  12.967  10.194  0.00  0.00     0.053 A 
HETATM   29  C   UNK N   1      23.744  12.991   9.863  0.00  0.00     0.036 A 
HETATM   30  C   UNK N   1      22.266  12.108  11.236  0.00  0.00     0.120 A 
HETATM   31  C   UNK N   1      24.359  12.111  10.758  0.00  0.00     0.091 A 
HETATM   32  N   UNK N   1      23.442  11.574  11.599  0.00  0.00    -0.351 N 
HETATM   33  H   UNK N   1      23.604  10.929  12.324  0.00  0.00     0.166 HD
HETATM   34  N   UNK N   1      21.070  11.843  11.806  0.00  0.00    -0.338 N 
HETATM   35  C   UNK N   1      19.960  12.462  11.305  0.00  0.00     0.183 A 
ATOM     36  HN  UNK N   1      20.997  11.197  12.593  1.00  0.00     0.168 HD
HETATM   37  N   UNK N   1      20.070  13.329  10.249  0.00  0.00    -0.338 N 
ATOM     38  HN  UNK N   1      19.229  13.775   9.884  1.00  0.00     0.168 HD
ENDBRANCH   6  27
TORSDOF 9
ENDMDL
MODEL 2
REMARK VINA RESULT:      -7.8     11.793     15.687
REMARK  9 active torsions:
REMARK  status: ('A' for Active; 'I' for Inactive)
REMARK    1  A    between atoms: C_12  and  C_6 
REMARK    2  A    between atoms: C_17  and  C_6 
REMARK    3  A    between atoms: O_32  and  C_12 
REMARK    4  A    between atoms: C_17  and  C_14 
REMARK    5  A    between atoms: C_17  and  N_29 
REMARK    6  A    between atoms: N_31  and  C_19 
REMARK    7  A    between atoms: C_21  and  C_20 
REMARK    8  A    between atoms: C_20  and  O_33 
REMARK    9  A    between atoms: N_23  and  C_21 
ROOT
HETATM    1  C   UNK N   1      34.192  14.667   8.714  0.00  0.00     0.059 C 
HETATM    2  C   UNK N   1      34.647  16.962   9.774  0.00  0.00     0.059 C 
HETATM    3  C   UNK N   1      34.562  15.479   7.485  0.00  0.00     0.127 C 
HETATM    4  C   UNK N   1      33.682  17.485   8.698  0.00  0.00     0.127 C 
HETATM    5  C   UNK N   1      34.487  15.443  10.008  0.00  0.00     0.092 C 
HETATM    6  N   UNK N   1      33.742  16.672   7.489  0.00  0.00    -0.366 N 
ENDROOT
BRANCH   5   7
HETATM    7  C   UNK N   1      35.758  14.884  10.602  0.00  0.00     0.140 C 
HETATM    8  N   UNK N   1      35.727  13.745  11.218  0.00  0.00    -0.364 N 
ATOM      9  HN  UNK N   1      34.830  13.261  11.249  1.00  0.00     0.162 HD
BRANCH   8  10
HETATM   10  C   UNK N   1      36.854  13.090  11.872  0.00  0.00     0.118 C 
BRANCH  10  11
HETATM   11  C   UNK N   1      37.338  11.915  11.020  0.00  0.00     0.056 C 
BRANCH  11  12
HETATM   12  C   UNK N   1      38.553  12.330  10.195  0.00  0.00     0.166 C 
BRANCH  12  13
HETATM   13  O   UNK N   1      39.023  13.573  10.618  0.00  0.00    -0.401 OA
HETATM   14  H   UNK N   1      38.611  14.388  10.291  0.00  0.00     0.209 HD
ENDBRANCH  12  13
ENDBRANCH  11  12
ENDBRANCH  10  11
BRANCH  10  15
HETATM   15  C   UNK N   1      36.614  12.705  13.325  0.00  0.00    -0.035 A 
HETATM   16  C   UNK N   1      35.682  13.436  14.079  0.00  0.00     0.011 A 
HETATM   17  C   UNK N   1      35.384  13.070  15.396  0.00  0.00     0.024 A 
HETATM   18  C   UNK N   1      36.012  11.965  15.973  0.00  0.00     0.034 A 
HETATM   19  C   UNK N   1      36.945  11.231  15.237  0.00  0.00     0.024 A 
HETATM   20 Cl   UNK N   1      35.610  11.486  17.610  0.00  0.00    -0.084 Cl
HETATM   21  C   UNK N   1      37.241  11.595  13.919  0.00  0.00     0.011 A 
ENDBRANCH  10  15
ENDBRANCH   8  10
BRANCH   7  22
HETATM   22  O   UNK N   1      36.921  15.553  10.440  0.00  0.00    -0.348 OA
HETATM   23  H   UNK N   1      37.585  15.912   9.884  0.00  0.00     0.219 HD
ENDBRANCH   7  22
ENDBRANCH   5   7
BRANCH   5  24
HETATM   24  N   UNK N   1      33.372  15.238  10.923  0.00  0.00    -0.415 N 
HETATM   25  H   UNK N   1      32.355  15.308  10.946  0.00  0.00     0.151 HD
HETATM   26  H   UNK N   1      33.720  14.922  11.829  0.00  0.00     0.151 HD
ENDBRANCH   5  24
BRANCH   6  27
HETATM   27  C   UNK N   1      32.970  16.983   6.326  0.00  0.00     0.118 A 
HETATM   28  C   UNK N   1      31.567  16.979   6.318  0.00  0.00     0.053 A 
HETATM   29  C   UNK N   1      30.620  16.700   7.277  0.00  0.00     0.036 A 
HETATM   30  C   UNK N   1      30.903  17.287   5.174  0.00  0.00     0.120 A 
HETATM   31  C   UNK N   1      29.390  16.861   6.635  0.00  0.00     0.091 A 
HETATM   32  N   UNK N   1      29.575  17.223   5.342  0.00  0.00    -0.351 N 
HETATM   33  H   UNK N   1      28.879  17.402   4.669  0.00  0.00     0.166 HD
HETATM   34  N   UNK N   1      31.539  17.607   4.025  0.00  0.00    -0.338 N 
HETATM   35  C   UNK N   1      32.904  17.611   4.017  0.00  0.00     0.183 A 
ATOM     36  HN  UNK N   1      31.011  17.840   3.183  1.00  0.00     0.168 HD
HETATM   37  N   UNK N   1      33.603  17.297   5.154  0.00  0.00    -0.338 N 
ATOM     38  HN  UNK N   1      34.622  17.299   5.126  1.00  0.00     0.168 HD
ENDBRANCH   6  27
TORSDOF 9
ENDMDL
MODEL 3
REMARK VINA RESULT:      -7.6     13.148     16.701
REMARK  9 active torsions:
REMARK  status: ('A' for Active; 'I' for Inactive)
REMARK    1  A    between atoms: C_12  and  C_6 
REMARK    2  A    between atoms: C_17  and  C_6 
REMARK    3  A    between atoms: O_32  and  C_12 
REMARK    4  A    between atoms: C_17  and  C_14 
REMARK    5  A    between atoms: C_17  and  N_29 
REMARK    6  A    between atoms: N_31  and  C_19 
REMARK    7  A    between atoms: C_21  and  C_20 
REMARK    8  A    between atoms: C_20  and  O_33 
REMARK    9  A    between atoms: N_23  and  C_21 
ROOT
HETATM    1  C   UNK N   1      34.824  14.057  11.123  0.00  0.00     0.059 C 
HETATM    2  C   UNK N   1      37.341  13.836  10.670  0.00  0.00     0.059 C 
HETATM    3  C   UNK N   1      34.810  13.527   9.701  0.00  0.00     0.127 C 
HETATM    4  C   UNK N   1      37.033  14.639   9.397  0.00  0.00     0.127 C 
HETATM    5  C   UNK N   1      36.233  13.987  11.735  0.00  0.00     0.092 C 
HETATM    6  N   UNK N   1      35.684  14.371   8.913  0.00  0.00    -0.366 N 
ENDROOT
BRANCH   5   7
HETATM    7  C   UNK N   1      36.268  12.806  12.676  0.00  0.00     0.140 C 
HETATM    8  N   UNK N   1      35.159  12.336  13.152  0.00  0.00    -0.364 N 
ATOM      9  HN  UNK N   1      34.297  12.782  12.839  1.00  0.00     0.162 HD
BRANCH   8  10
HETATM   10  C   UNK N   1      35.026  11.231  14.094  0.00  0.00     0.118 C 
BRANCH  10  11
HETATM   11  C   UNK N   1      33.827  10.362  13.709  0.00  0.00     0.056 C 
BRANCH  11  12
HETATM   12  C   UNK N   1      34.008   9.812  12.296  0.00  0.00     0.166 C 
BRANCH  12  13
HETATM   13  O   UNK N   1      33.453  10.686  11.362  0.00  0.00    -0.401 OA
HETATM   14  H   UNK N   1      34.022  11.296  10.866  0.00  0.00     0.209 HD
ENDBRANCH  12  13
ENDBRANCH  11  12
ENDBRANCH  10  11
BRANCH  10  15
HETATM   15  C   UNK N   1      35.012  11.637  15.560  0.00  0.00    -0.035 A 
HETATM   16  C   UNK N   1      35.228  10.656  16.541  0.00  0.00     0.011 A 
HETATM   17  C   UNK N   1      35.290  11.001  17.896  0.00  0.00     0.024 A 
HETATM   18  C   UNK N   1      35.141  12.334  18.285  0.00  0.00     0.034 A 
HETATM   19  C   UNK N   1      34.921  13.320  17.321  0.00  0.00     0.024 A 
HETATM   20 Cl   UNK N   1      35.256  12.769  19.977  0.00  0.00    -0.084 Cl
HETATM   21  C   UNK N   1      34.861  12.975  15.966  0.00  0.00     0.011 A 
ENDBRANCH  10  15
ENDBRANCH   8  10
BRANCH   7  22
HETATM   22  O   UNK N   1      37.450  12.222  12.971  0.00  0.00    -0.348 OA
HETATM   23  H   UNK N   1      38.362  12.286  13.180  0.00  0.00     0.219 HD
ENDBRANCH   7  22
ENDBRANCH   5   7
BRANCH   5  24
HETATM   24  N   UNK N   1      36.470  15.222  12.469  0.00  0.00    -0.415 N 
HETATM   25  H   UNK N   1      35.971  16.055  12.782  0.00  0.00     0.151 HD
HETATM   26  H   UNK N   1      37.445  15.268  12.766  0.00  0.00     0.151 HD
ENDBRANCH   5  24
BRANCH   6  27
HETATM   27  C   UNK N   1      35.174  14.964   7.716  0.00  0.00     0.118 A 
HETATM   28  C   UNK N   1      34.536  16.214   7.695  0.00  0.00     0.053 A 
HETATM   29  C   UNK N   1      34.223  17.128   8.675  0.00  0.00     0.036 A 
HETATM   30  C   UNK N   1      34.080  16.713   6.517  0.00  0.00     0.120 A 
HETATM   31  C   UNK N   1      33.570  18.169   8.009  0.00  0.00     0.091 A 
HETATM   32  N   UNK N   1      33.489  17.904   6.682  0.00  0.00    -0.351 N 
HETATM   33  H   UNK N   1      33.081  18.469   5.987  0.00  0.00     0.166 HD
HETATM   34  N   UNK N   1      34.218  16.056   5.343  0.00  0.00    -0.338 N 
HETATM   35  C   UNK N   1      34.835  14.838   5.350  0.00  0.00     0.183 A 
ATOM     36  HN  UNK N   1      33.870  16.461   4.474  1.00  0.00     0.168 HD
HETATM   37  N   UNK N   1      35.299  14.303   6.524  0.00  0.00    -0.338 N 
ATOM     38  HN  UNK N   1      35.749  13.389   6.508  1.00  0.00     0.168 HD
ENDBRANCH   6  27
TORSDOF 9
ENDMDL
MODEL 4
REMARK VINA RESULT:      -7.6     11.514     15.135
REMARK  9 active torsions:
REMARK  status: ('A' for Active; 'I' for Inactive)
REMARK    1  A    between atoms: C_12  and  C_6 
REMARK    2  A    between atoms: C_17  and  C_6 
REMARK    3  A    between atoms: O_32  and  C_12 
REMARK    4  A    between atoms: C_17  and  C_14 
REMARK    5  A    between atoms: C_17  and  N_29 
REMARK    6  A    between atoms: N_31  and  C_19 
REMARK    7  A    between atoms: C_21  and  C_20 
REMARK    8  A    between atoms: C_20  and  O_33 
REMARK    9  A    between atoms: N_23  and  C_21 
ROOT
HETATM    1  C   UNK N   1      33.564  15.114  10.086  0.00  0.00     0.059 C 
HETATM    2  C   UNK N   1      35.303  15.978   8.405  0.00  0.00     0.059 C 
HETATM    3  C   UNK N   1      33.194  14.306   8.854  0.00  0.00     0.127 C 
HETATM    4  C   UNK N   1      34.088  16.208   7.491  0.00  0.00     0.127 C 
HETATM    5  C   UNK N   1      34.897  15.856   9.890  0.00  0.00     0.092 C 
HETATM    6  N   UNK N   1      33.033  15.237   7.756  0.00  0.00    -0.366 N 
ENDROOT
BRANCH   5   7
HETATM    7  C   UNK N   1      35.962  15.097  10.646  0.00  0.00     0.140 C 
HETATM    8  N   UNK N   1      35.615  14.155  11.464  0.00  0.00    -0.364 N 
ATOM      9  HN  UNK N   1      34.618  13.952  11.539  1.00  0.00     0.162 HD
BRANCH   8  10
HETATM   10  C   UNK N   1      36.514  13.358  12.291  0.00  0.00     0.118 C 
BRANCH  10  11
HETATM   11  C   UNK N   1      36.698  11.971  11.670  0.00  0.00     0.056 C 
BRANCH  11  12
HETATM   12  C   UNK N   1      37.990  11.928  10.857  0.00  0.00     0.166 C 
BRANCH  12  13
HETATM   13  O   UNK N   1      38.720  13.101  11.046  0.00  0.00    -0.401 OA
HETATM   14  H   UNK N   1      38.820  13.735  10.318  0.00  0.00     0.209 HD
ENDBRANCH  12  13
ENDBRANCH  11  12
ENDBRANCH  10  11
BRANCH  10  15
HETATM   15  C   UNK N   1      36.143  13.297  13.765  0.00  0.00    -0.035 A 
HETATM   16  C   UNK N   1      36.863  14.082  14.682  0.00  0.00     0.011 A 
HETATM   17  C   UNK N   1      36.509  14.105  16.035  0.00  0.00     0.024 A 
HETATM   18  C   UNK N   1      35.426  13.348  16.487  0.00  0.00     0.034 A 
HETATM   19  C   UNK N   1      34.704  12.560  15.589  0.00  0.00     0.024 A 
HETATM   20 Cl   UNK N   1      34.961  13.407  18.175  0.00  0.00    -0.084 Cl
HETATM   21  C   UNK N   1      35.057  12.537  14.235  0.00  0.00     0.011 A 
ENDBRANCH  10  15
ENDBRANCH   8  10
BRANCH   7  22
HETATM   22  O   UNK N   1      37.265  15.375  10.423  0.00  0.00    -0.348 OA
HETATM   23  H   UNK N   1      38.034  15.880  10.602  0.00  0.00     0.219 HD
ENDBRANCH   7  22
ENDBRANCH   5   7
BRANCH   5  24
HETATM   24  N   UNK N   1      34.753  17.198  10.437  0.00  0.00    -0.415 N 
HETATM   25  H   UNK N   1      34.433  18.126  10.160  0.00  0.00     0.151 HD
HETATM   26  H   UNK N   1      35.073  17.215  11.405  0.00  0.00     0.151 HD
ENDBRANCH   5  24
BRANCH   6  27
HETATM   27  C   UNK N   1      31.816  15.213   7.005  0.00  0.00     0.118 A 
HETATM   28  C   UNK N   1      30.821  16.194   7.131  0.00  0.00     0.053 A 
HETATM   29  C   UNK N   1      30.702  17.320   7.915  0.00  0.00     0.036 A 
HETATM   30  C   UNK N   1      29.693  16.104   6.381  0.00  0.00     0.120 A 
HETATM   31  C   UNK N   1      29.462  17.868   7.581  0.00  0.00     0.091 A 
HETATM   32  N   UNK N   1      28.849  17.114   6.637  0.00  0.00    -0.351 N 
HETATM   33  H   UNK N   1      27.970  17.274   6.225  0.00  0.00     0.166 HD
HETATM   34  N   UNK N   1      29.480  15.101   5.500  0.00  0.00    -0.338 N 
HETATM   35  C   UNK N   1      30.439  14.138   5.369  0.00  0.00     0.183 A 
ATOM     36  HN  UNK N   1      28.624  15.065   4.946  1.00  0.00     0.168 HD
HETATM   37  N   UNK N   1      31.585  14.196   6.118  0.00  0.00    -0.338 N 
ATOM     38  HN  UNK N   1      32.285  13.463   6.011  1.00  0.00     0.168 HD
ENDBRANCH   6  27
TORSDOF 9
ENDMDL
MODEL 5
REMARK VINA RESULT:      -7.5     12.212     15.956
REMARK  9 active torsions:
REMARK  status: ('A' for Active; 'I' for Inactive)
REMARK    1  A    between atoms: C_12  and  C_6 
REMARK    2  A    between atoms: C_17  and  C_6 
REMARK    3  A    between atoms: O_32  and  C_12 
REMARK    4  A    between atoms: C_17  and  C_14 
REMARK    5  A    between atoms: C_17  and  N_29 
REMARK    6  A    between atoms: N_31  and  C_19 
REMARK    7  A    between atoms: C_21  and  C_20 
REMARK    8  A    between atoms: C_20  and  O_33 
REMARK    9  A    between atoms: N_23  and  C_21 
ROOT
HETATM    1  C   UNK N   1      34.438  14.534   8.555  0.00  0.00     0.059 C 
HETATM    2  C   UNK N   1      34.598  16.953   9.400  0.00  0.00     0.059 C 
HETATM    3  C   UNK N   1      34.996  15.227   7.324  0.00  0.00     0.127 C 
HETATM    4  C   UNK N   1      33.827  17.297   8.115  0.00  0.00     0.127 C 
HETATM    5  C   UNK N   1      34.458  15.463   9.780  0.00  0.00     0.092 C 
HETATM    6  N   UNK N   1      34.142  16.361   7.040  0.00  0.00    -0.366 N 
ENDROOT
BRANCH   5   7
HETATM    7  C   UNK N   1      35.619  15.051  10.653  0.00  0.00     0.140 C 
HETATM    8  N   UNK N   1      35.535  13.967  11.356  0.00  0.00    -0.364 N 
ATOM      9  HN  UNK N   1      34.678  13.420  11.263  1.00  0.00     0.162 HD
BRANCH   8  10
HETATM   10  C   UNK N   1      36.548  13.453  12.271  0.00  0.00     0.118 C 
BRANCH  10  11
HETATM   11  C   UNK N   1      37.036  12.085  11.790  0.00  0.00     0.056 C 
BRANCH  11  12
HETATM   12  C   UNK N   1      38.159  12.257  10.770  0.00  0.00     0.166 C 
BRANCH  12  13
HETATM   13  O   UNK N   1      38.703  13.538  10.861  0.00  0.00    -0.401 OA
HETATM   14  H   UNK N   1      39.658  13.671  10.750  0.00  0.00     0.209 HD
ENDBRANCH  12  13
ENDBRANCH  11  12
ENDBRANCH  10  11
BRANCH  10  15
HETATM   15  C   UNK N   1      36.144  13.451  13.738  0.00  0.00    -0.035 A 
HETATM   16  C   UNK N   1      35.098  12.611  14.156  0.00  0.00     0.011 A 
HETATM   17  C   UNK N   1      34.742  12.530  15.506  0.00  0.00     0.024 A 
HETATM   18  C   UNK N   1      35.432  13.286  16.457  0.00  0.00     0.034 A 
HETATM   19  C   UNK N   1      36.471  14.129  16.056  0.00  0.00     0.024 A 
HETATM   20 Cl   UNK N   1      35.010  13.156  18.152  0.00  0.00    -0.084 Cl
HETATM   21  C   UNK N   1      36.828  14.209  14.706  0.00  0.00     0.011 A 
ENDBRANCH  10  15
ENDBRANCH   8  10
BRANCH   7  22
HETATM   22  O   UNK N   1      36.750  15.790  10.652  0.00  0.00    -0.348 OA
HETATM   23  H   UNK N   1      37.559  16.045  11.053  0.00  0.00     0.219 HD
ENDBRANCH   7  22
ENDBRANCH   5   7
BRANCH   5  24
HETATM   24  N   UNK N   1      33.203  15.291  10.499  0.00  0.00    -0.415 N 
HETATM   25  H   UNK N   1      32.714  14.599  11.066  0.00  0.00     0.151 HD
HETATM   26  H   UNK N   1      32.631  16.130  10.405  0.00  0.00     0.151 HD
ENDBRANCH   5  24
BRANCH   6  27
HETATM   27  C   UNK N   1      33.587  16.495   5.730  0.00  0.00     0.118 A 
HETATM   28  C   UNK N   1      33.892  15.618   4.678  0.00  0.00     0.053 A 
HETATM   29  C   UNK N   1      34.715  14.520   4.576  0.00  0.00     0.036 A 
HETATM   30  C   UNK N   1      33.322  15.809   3.460  0.00  0.00     0.120 A 
HETATM   31  C   UNK N   1      34.592  14.091   3.252  0.00  0.00     0.091 A 
HETATM   32  N   UNK N   1      33.733  14.890   2.574  0.00  0.00    -0.351 N 
HETATM   33  H   UNK N   1      33.466  14.812   1.630  0.00  0.00     0.166 HD
HETATM   34  N   UNK N   1      32.458  16.818   3.208  0.00  0.00    -0.338 N 
HETATM   35  C   UNK N   1      32.154  17.681   4.222  0.00  0.00     0.183 A 
ATOM     36  HN  UNK N   1      32.041  16.931   2.284  1.00  0.00     0.168 HD
HETATM   37  N   UNK N   1      32.718  17.519   5.461  0.00  0.00    -0.338 N 
ATOM     38  HN  UNK N   1      32.485  18.179   6.202  1.00  0.00     0.168 HD
ENDBRANCH   6  27
TORSDOF 9
ENDMDL
MODEL 6
REMARK VINA RESULT:      -7.5     10.374     12.923
REMARK  9 active torsions:
REMARK  status: ('A' for Active; 'I' for Inactive)
REMARK    1  A    between atoms: C_12  and  C_6 
REMARK    2  A    between atoms: C_17  and  C_6 
REMARK    3  A    between atoms: O_32  and  C_12 
REMARK    4  A    between atoms: C_17  and  C_14 
REMARK    5  A    between atoms: C_17  and  N_29 
REMARK    6  A    between atoms: N_31  and  C_19 
REMARK    7  A    between atoms: C_21  and  C_20 
REMARK    8  A    between atoms: C_20  and  O_33 
REMARK    9  A    between atoms: N_23  and  C_21 
ROOT
HETATM    1  C   UNK N   1      33.606  14.778  10.394  0.00  0.00     0.059 C 
HETATM    2  C   UNK N   1      35.176  13.030   9.358  0.00  0.00     0.059 C 
HETATM    3  C   UNK N   1      34.906  15.108  11.106  0.00  0.00     0.127 C 
HETATM    4  C   UNK N   1      35.531  12.700  10.816  0.00  0.00     0.127 C 
HETATM    5  C   UNK N   1      33.832  13.784   9.243  0.00  0.00     0.092 C 
HETATM    6  N   UNK N   1      35.417  13.877  11.671  0.00  0.00    -0.366 N 
ENDROOT
BRANCH   5   7
HETATM    7  C   UNK N   1      33.795  14.562   7.949  0.00  0.00     0.140 C 
HETATM    8  N   UNK N   1      33.206  15.714   7.914  0.00  0.00    -0.364 N 
ATOM      9  HN  UNK N   1      32.809  16.057   8.789  1.00  0.00     0.162 HD
BRANCH   8  10
HETATM   10  C   UNK N   1      33.053  16.567   6.741  0.00  0.00     0.118 C 
BRANCH  10  11
HETATM   11  C   UNK N   1      33.994  17.769   6.847  0.00  0.00     0.056 C 
BRANCH  11  12
HETATM   12  C   UNK N   1      34.203  18.145   8.312  0.00  0.00     0.166 C 
BRANCH  12  13
HETATM   13  O   UNK N   1      35.212  19.100   8.428  0.00  0.00    -0.401 OA
HETATM   14  H   UNK N   1      35.255  19.842   7.804  0.00  0.00     0.209 HD
ENDBRANCH  12  13
ENDBRANCH  11  12
ENDBRANCH  10  11
BRANCH  10  15
HETATM   15  C   UNK N   1      31.619  16.969   6.424  0.00  0.00    -0.035 A 
HETATM   16  C   UNK N   1      30.705  17.120   7.480  0.00  0.00     0.011 A 
HETATM   17  C   UNK N   1      29.397  17.553   7.235  0.00  0.00     0.024 A 
HETATM   18  C   UNK N   1      28.990  17.845   5.932  0.00  0.00     0.034 A 
HETATM   19  C   UNK N   1      29.887  17.695   4.871  0.00  0.00     0.024 A 
HETATM   20 Cl   UNK N   1      27.364  18.423   5.632  0.00  0.00    -0.084 Cl
HETATM   21  C   UNK N   1      31.195  17.263   5.116  0.00  0.00     0.011 A 
ENDBRANCH  10  15
ENDBRANCH   8  10
BRANCH   7  22
HETATM   22  O   UNK N   1      34.420  14.070   6.857  0.00  0.00    -0.348 OA
HETATM   23  H   UNK N   1      34.506  14.004   5.925  0.00  0.00     0.219 HD
ENDBRANCH   7  22
ENDBRANCH   5   7
BRANCH   5  24
HETATM   24  N   UNK N   1      32.755  12.805   9.272  0.00  0.00    -0.415 N 
HETATM   25  H   UNK N   1      32.351  12.103   9.893  0.00  0.00     0.151 HD
HETATM   26  H   UNK N   1      32.241  12.828   8.392  0.00  0.00     0.151 HD
ENDBRANCH   5  24
BRANCH   6  27
HETATM   27  C   UNK N   1      35.739  13.838  13.064  0.00  0.00     0.118 A 
HETATM   28  C   UNK N   1      35.233  12.862  13.937  0.00  0.00     0.053 A 
HETATM   29  C   UNK N   1      34.378  11.797  13.765  0.00  0.00     0.036 A 
HETATM   30  C   UNK N   1      35.585  12.890  15.248  0.00  0.00     0.120 A 
HETATM   31  C   UNK N   1      34.257  11.218  15.031  0.00  0.00     0.091 A 
HETATM   32  N   UNK N   1      35.004  11.897  15.935  0.00  0.00    -0.351 N 
HETATM   33  H   UNK N   1      35.100  11.701  16.895  0.00  0.00     0.166 HD
HETATM   34  N   UNK N   1      36.417  13.824  15.761  0.00  0.00    -0.338 N 
HETATM   35  C   UNK N   1      36.914  14.781  14.923  0.00  0.00     0.183 A 
ATOM     36  HN  UNK N   1      36.668  13.814  16.750  1.00  0.00     0.168 HD
HETATM   37  N   UNK N   1      36.571  14.785  13.596  0.00  0.00    -0.338 N 
ATOM     38  HN  UNK N   1      36.947  15.512  12.989  1.00  0.00     0.168 HD
ENDBRANCH   6  27
TORSDOF 9
ENDMDL
MODEL 7
REMARK VINA RESULT:      -7.4     10.661     14.706
REMARK  9 active torsions:
REMARK  status: ('A' for Active; 'I' for Inactive)
REMARK    1  A    between atoms: C_12  and  C_6 
REMARK    2  A    between atoms: C_17  and  C_6 
REMARK    3  A    between atoms: O_32  and  C_12 
REMARK    4  A    between atoms: C_17  and  C_14 
REMARK    5  A    between atoms: C_17  and  N_29 
REMARK    6  A    between atoms: N_31  and  C_19 
REMARK    7  A    between atoms: C_21  and  C_20 
REMARK    8  A    between atoms: C_20  and  O_33 
REMARK    9  A    between atoms: N_23  and  C_21 
ROOT
HETATM    1  C   UNK N   1      32.965  15.222   9.552  0.00  0.00     0.059 C 
HETATM    2  C   UNK N   1      35.135  15.864   8.338  0.00  0.00     0.059 C 
HETATM    3  C   UNK N   1      32.597  14.888   8.117  0.00  0.00     0.127 C 
HETATM    4  C   UNK N   1      34.207  16.675   7.419  0.00  0.00     0.127 C 
HETATM    5  C   UNK N   1      34.466  15.528   9.689  0.00  0.00     0.092 C 
HETATM    6  N   UNK N   1      32.892  16.053   7.310  0.00  0.00    -0.366 N 
ENDROOT
BRANCH   5   7
HETATM    7  C   UNK N   1      35.130  14.316  10.297  0.00  0.00     0.140 C 
HETATM    8  N   UNK N   1      34.399  13.361  10.777  0.00  0.00    -0.364 N 
ATOM      9  HN  UNK N   1      33.388  13.468  10.694  1.00  0.00     0.162 HD
BRANCH   8  10
HETATM   10  C   UNK N   1      34.884  12.148  11.425  0.00  0.00     0.118 C 
BRANCH  10  11
HETATM   11  C   UNK N   1      34.132  10.932  10.881  0.00  0.00     0.056 C 
BRANCH  11  12
HETATM   12  C   UNK N   1      33.530  11.254   9.515  0.00  0.00     0.166 C 
BRANCH  12  13
HETATM   13  O   UNK N   1      32.163  11.499   9.634  0.00  0.00    -0.401 OA
HETATM   14  H   UNK N   1      31.522  10.896   9.225  0.00  0.00     0.209 HD
ENDBRANCH  12  13
ENDBRANCH  11  12
ENDBRANCH  10  11
BRANCH  10  15
HETATM   15  C   UNK N   1      34.900  12.198  12.946  0.00  0.00    -0.035 A 
HETATM   16  C   UNK N   1      34.211  11.208  13.667  0.00  0.00     0.011 A 
HETATM   17  C   UNK N   1      34.258  11.181  15.066  0.00  0.00     0.024 A 
HETATM   18  C   UNK N   1      34.998  12.140  15.759  0.00  0.00     0.034 A 
HETATM   19  C   UNK N   1      35.684  13.133  15.056  0.00  0.00     0.024 A 
HETATM   20 Cl   UNK N   1      35.086  12.082  17.507  0.00  0.00    -0.084 Cl
HETATM   21  C   UNK N   1      35.639  13.160  13.657  0.00  0.00     0.011 A 
ENDBRANCH  10  15
ENDBRANCH   8  10
BRANCH   7  22
HETATM   22  O   UNK N   1      36.478  14.219  10.289  0.00  0.00    -0.348 OA
HETATM   23  H   UNK N   1      37.325  14.619  10.264  0.00  0.00     0.219 HD
ENDBRANCH   7  22
ENDBRANCH   5   7
BRANCH   5  24
HETATM   24  N   UNK N   1      34.614  16.678  10.571  0.00  0.00    -0.415 N 
HETATM   25  H   UNK N   1      34.892  16.901  11.527  0.00  0.00     0.151 HD
HETATM   26  H   UNK N   1      34.361  17.532  10.074  0.00  0.00     0.151 HD
ENDBRANCH   5  24
BRANCH   6  27
HETATM   27  C   UNK N   1      31.864  16.593   6.476  0.00  0.00     0.118 A 
HETATM   28  C   UNK N   1      32.013  16.759   5.090  0.00  0.00     0.053 A 
HETATM   29  C   UNK N   1      33.049  16.510   4.218  0.00  0.00     0.036 A 
HETATM   30  C   UNK N   1      30.990  17.278   4.364  0.00  0.00     0.120 A 
HETATM   31  C   UNK N   1      32.575  16.906   2.965  0.00  0.00     0.091 A 
HETATM   32  N   UNK N   1      31.308  17.376   3.065  0.00  0.00    -0.351 N 
HETATM   33  H   UNK N   1      30.741  17.718   2.337  0.00  0.00     0.166 HD
HETATM   34  N   UNK N   1      29.813  17.644   4.918  0.00  0.00    -0.338 N 
HETATM   35  C   UNK N   1      29.655  17.491   6.266  0.00  0.00     0.183 A 
ATOM     36  HN  UNK N   1      29.061  18.025   4.344  1.00  0.00     0.168 HD
HETATM   37  N   UNK N   1      30.672  16.978   7.028  0.00  0.00    -0.338 N 
ATOM     38  HN  UNK N   1      30.537  16.879   8.034  1.00  0.00     0.168 HD
ENDBRANCH   6  27
TORSDOF 9
ENDMDL
MODEL 8
REMARK VINA RESULT:      -7.3     11.803     15.749
REMARK  9 active torsions:
REMARK  status: ('A' for Active; 'I' for Inactive)
REMARK    1  A    between atoms: C_12  and  C_6 
REMARK    2  A    between atoms: C_17  and  C_6 
REMARK    3  A    between atoms: O_32  and  C_12 
REMARK    4  A    between atoms: C_17  and  C_14 
REMARK    5  A    between atoms: C_17  and  N_29 
REMARK    6  A    between atoms: N_31  and  C_19 
REMARK    7  A    between atoms: C_21  and  C_20 
REMARK    8  A    between atoms: C_20  and  O_33 
REMARK    9  A    between atoms: N_23  and  C_21 
ROOT
HETATM    1  C   UNK N   1      34.628  14.981  11.330  0.00  0.00     0.059 C 
HETATM    2  C   UNK N   1      36.140  14.403   9.336  0.00  0.00     0.059 C 
HETATM    3  C   UNK N   1      33.603  14.456  10.340  0.00  0.00     0.127 C 
HETATM    4  C   UNK N   1      35.140  15.241   8.524  0.00  0.00     0.127 C 
HETATM    5  C   UNK N   1      36.064  14.711  10.848  0.00  0.00     0.092 C 
HETATM    6  N   UNK N   1      33.799  15.167   9.094  0.00  0.00    -0.366 N 
ENDROOT
BRANCH   5   7
HETATM    7  C   UNK N   1      36.601  13.539  11.633  0.00  0.00     0.140 C 
HETATM    8  N   UNK N   1      35.794  12.834  12.360  0.00  0.00    -0.364 N 
ATOM      9  HN  UNK N   1      34.809  13.098  12.345  1.00  0.00     0.162 HD
BRANCH   8  10
HETATM   10  C   UNK N   1      36.160  11.700  13.200  0.00  0.00     0.118 C 
BRANCH  10  11
HETATM   11  C   UNK N   1      35.583  10.410  12.613  0.00  0.00     0.056 C 
BRANCH  11  12
HETATM   12  C   UNK N   1      34.059  10.490  12.569  0.00  0.00     0.166 C 
BRANCH  12  13
HETATM   13  O   UNK N   1      33.637  11.037  11.357  0.00  0.00    -0.401 OA
HETATM   14  H   UNK N   1      33.561  11.999  11.257  0.00  0.00     0.209 HD
ENDBRANCH  12  13
ENDBRANCH  11  12
ENDBRANCH  10  11
BRANCH  10  15
HETATM   15  C   UNK N   1      35.839  11.868  14.679  0.00  0.00    -0.035 A 
HETATM   16  C   UNK N   1      36.258  10.879  15.584  0.00  0.00     0.011 A 
HETATM   17  C   UNK N   1      36.042  11.030  16.958  0.00  0.00     0.024 A 
HETATM   18  C   UNK N   1      35.408  12.175  17.444  0.00  0.00     0.034 A 
HETATM   19  C   UNK N   1      34.981  13.165  16.555  0.00  0.00     0.024 A 
HETATM   20 Cl   UNK N   1      35.171  12.380  19.167  0.00  0.00    -0.084 Cl
HETATM   21  C   UNK N   1      35.199  13.015  15.181  0.00  0.00     0.011 A 
ENDBRANCH  10  15
ENDBRANCH   8  10
BRANCH   7  22
HETATM   22  O   UNK N   1      37.907  13.207  11.529  0.00  0.00    -0.348 OA
HETATM   23  H   UNK N   1      38.812  13.451  11.512  0.00  0.00     0.219 HD
ENDBRANCH   7  22
ENDBRANCH   5   7
BRANCH   5  24
HETATM   24  N   UNK N   1      36.861  15.901  11.113  0.00  0.00    -0.415 N 
HETATM   25  H   UNK N   1      36.749  16.908  11.227  0.00  0.00     0.151 HD
HETATM   26  H   UNK N   1      37.842  15.645  11.216  0.00  0.00     0.151 HD
ENDBRANCH   5  24
BRANCH   6  27
HETATM   27  C   UNK N   1      32.681  15.825   8.493  0.00  0.00     0.118 A 
HETATM   28  C   UNK N   1      32.017  15.324   7.362  0.00  0.00     0.053 A 
HETATM   29  C   UNK N   1      32.210  14.212   6.573  0.00  0.00     0.036 A 
HETATM   30  C   UNK N   1      30.961  16.005   6.849  0.00  0.00     0.120 A 
HETATM   31  C   UNK N   1      31.220  14.287   5.589  0.00  0.00     0.091 A 
HETATM   32  N   UNK N   1      30.457  15.392   5.768  0.00  0.00    -0.351 N 
HETATM   33  H   UNK N   1      29.694  15.683   5.220  0.00  0.00     0.166 HD
HETATM   34  N   UNK N   1      30.507  17.160   7.385  0.00  0.00    -0.338 N 
HETATM   35  C   UNK N   1      31.145  17.661   8.483  0.00  0.00     0.183 A 
ATOM     36  HN  UNK N   1      29.706  17.645   6.979  1.00  0.00     0.168 HD
HETATM   37  N   UNK N   1      32.219  17.000   9.021  0.00  0.00    -0.338 N 
ATOM     38  HN  UNK N   1      32.687  17.395   9.836  1.00  0.00     0.168 HD
ENDBRANCH   6  27
TORSDOF 9
ENDMDL
MODEL 9
REMARK VINA RESULT:      -7.3      4.931      7.982
REMARK  9 active torsions:
REMARK  status: ('A' for Active; 'I' for Inactive)
REMARK    1  A    between atoms: C_12  and  C_6 
REMARK    2  A    between atoms: C_17  and  C_6 
REMARK    3  A    between atoms: O_32  and  C_12 
REMARK    4  A    between atoms: C_17  and  C_14 
REMARK    5  A    between atoms: C_17  and  N_29 
REMARK    6  A    between atoms: N_31  and  C_19 
REMARK    7  A    between atoms: C_21  and  C_20 
REMARK    8  A    between atoms: C_20  and  O_33 
REMARK    9  A    between atoms: N_23  and  C_21 
ROOT
HETATM    1  C   UNK N   1      25.015  17.681   4.416  0.00  0.00     0.059 C 
HETATM    2  C   UNK N   1      23.812  15.934   5.863  0.00  0.00     0.059 C 
HETATM    3  C   UNK N   1      23.782  18.461   4.836  0.00  0.00     0.127 C 
HETATM    4  C   UNK N   1      22.594  16.262   4.985  0.00  0.00     0.127 C 
HETATM    5  C   UNK N   1      25.139  16.363   5.199  0.00  0.00     0.092 C 
HETATM    6  N   UNK N   1      22.626  17.646   4.527  0.00  0.00    -0.366 N 
ENDROOT
BRANCH   5   7
HETATM    7  C   UNK N   1      26.198  16.554   6.258  0.00  0.00     0.140 C 
HETATM    8  N   UNK N   1      27.021  17.549   6.165  0.00  0.00    -0.364 N 
ATOM      9  HN  UNK N   1      26.892  18.183   5.377  1.00  0.00     0.162 HD
BRANCH   8  10
HETATM   10  C   UNK N   1      28.116  17.850   7.081  0.00  0.00     0.118 C 
BRANCH  10  11
HETATM   11  C   UNK N   1      28.004  19.296   7.568  0.00  0.00     0.056 C 
BRANCH  11  12
HETATM   12  C   UNK N   1      27.378  20.168   6.482  0.00  0.00     0.166 C 
BRANCH  12  13
HETATM   13  O   UNK N   1      26.035  20.409   6.770  0.00  0.00    -0.401 OA
HETATM   14  H   UNK N   1      25.747  20.531   7.689  0.00  0.00     0.209 HD
ENDBRANCH  12  13
ENDBRANCH  11  12
ENDBRANCH  10  11
BRANCH  10  15
HETATM   15  C   UNK N   1      29.503  17.512   6.553  0.00  0.00    -0.035 A 
HETATM   16  C   UNK N   1      29.736  17.566   5.169  0.00  0.00     0.011 A 
HETATM   17  C   UNK N   1      31.014  17.328   4.651  0.00  0.00     0.024 A 
HETATM   18  C   UNK N   1      32.075  17.039   5.511  0.00  0.00     0.034 A 
HETATM   19  C   UNK N   1      31.857  16.978   6.890  0.00  0.00     0.024 A 
HETATM   20 Cl   UNK N   1      33.681  16.779   4.864  0.00  0.00    -0.084 Cl
HETATM   21  C   UNK N   1      30.579  17.217   7.409  0.00  0.00     0.011 A 
ENDBRANCH  10  15
ENDBRANCH   8  10
BRANCH   7  22
HETATM   22  O   UNK N   1      26.243  15.715   7.317  0.00  0.00    -0.348 OA
HETATM   23  H   UNK N   1      26.114  14.865   7.690  0.00  0.00     0.219 HD
ENDBRANCH   7  22
ENDBRANCH   5   7
BRANCH   5  24
HETATM   24  N   UNK N   1      25.542  15.319   4.268  0.00  0.00    -0.415 N 
HETATM   25  H   UNK N   1      26.329  15.063   3.671  0.00  0.00     0.151 HD
HETATM   26  H   UNK N   1      24.803  14.621   4.187  0.00  0.00     0.151 HD
ENDBRANCH   5  24
BRANCH   6  27
HETATM   27  C   UNK N   1      21.579  18.207   3.731  0.00  0.00     0.118 A 
HETATM   28  C   UNK N   1      20.910  17.486   2.731  0.00  0.00     0.053 A 
HETATM   29  C   UNK N   1      21.038  16.203   2.250  0.00  0.00     0.036 A 
HETATM   30  C   UNK N   1      19.923  18.088   2.017  0.00  0.00     0.120 A 
HETATM   31  C   UNK N   1      20.085  16.096   1.234  0.00  0.00     0.091 A 
HETATM   32  N   UNK N   1      19.404  17.260   1.099  0.00  0.00    -0.351 N 
HETATM   33  H   UNK N   1      18.681  17.456   0.462  0.00  0.00     0.166 HD
HETATM   34  N   UNK N   1      19.545  19.367   2.231  0.00  0.00    -0.338 N 
HETATM   35  C   UNK N   1      20.189  20.082   3.200  0.00  0.00     0.183 A 
ATOM     36  HN  UNK N   1      18.795  19.789   1.682  1.00  0.00     0.168 HD
HETATM   37  N   UNK N   1      21.194  19.506   3.932  0.00  0.00    -0.338 N 
ATOM     38  HN  UNK N   1      21.668  20.059   4.645  1.00  0.00     0.168 HD
ENDBRANCH   6  27
TORSDOF 9
ENDMDL
