MODEL 1
REMARK VINA RESULT:      -7.4      0.000      0.000
REMARK  6 active torsions:
REMARK  status: ('A' for Active; 'I' for Inactive)
REMARK    1  A    between atoms: C_3  and  C_8 
REMARK    2  A    between atoms: C_10  and  O_22 
REMARK    3  A    between atoms: C_11  and  C_15 
REMARK       I    between atoms: C_15  and  N_17 
REMARK    4  A    between atoms: N_17  and  C_18 
REMARK    5  A    between atoms: C_18  and  C_19 
REMARK    6  A    between atoms: C_19  and  O_21 
ROOT
HETATM    1  C   UNK N   1      35.299  12.375  15.324  0.00  0.00    -0.008 A 
HETATM    2  C   UNK N   1      36.306  13.090  14.673  0.00  0.00     0.052 A 
HETATM    3  C   UNK N   1      36.296  13.240  13.292  0.00  0.00     0.098 A 
HETATM    4  C   UNK N   1      35.250  12.665  12.535  0.00  0.00     0.134 A 
HETATM    5  N   UNK N   1      34.279  11.964  13.194  0.00  0.00    -0.358 N 
ATOM      6  HN  UNK N   1      33.524  11.543  12.651  1.00  0.00     0.165 HD
HETATM    7  C   UNK N   1      34.280  11.808  14.548  0.00  0.00     0.101 A 
ENDROOT
BRANCH   4   8
HETATM    8  C   UNK N   1      35.202  12.822  11.039  0.00  0.00     0.271 C 
HETATM    9  O   UNK N   1      35.403  11.845  10.334  0.00  0.00    -0.266 OA
HETATM   10  N   UNK N   1      34.947  14.006  10.421  0.00  0.00    -0.346 N 
HETATM   11  H   UNK N   1      34.941  14.011   9.437  0.00  0.00     0.163 HD
BRANCH  10  12
HETATM   12  C   UNK N   1      34.684  15.255  11.093  0.00  0.00     0.232 C 
BRANCH  12  13
HETATM   13  C   UNK N   1      35.706  16.290  10.726  0.00  0.00     0.158 C 
HETATM   14  O   UNK N   1      35.366  17.382  10.297  0.00  0.00    -0.649 OA
BRANCH  13  15
HETATM   15  O   UNK N   1      37.013  16.011  10.877  0.00  0.00    -0.775 OA
HETATM   16  H   UNK N   1      37.350  15.793  11.723  0.00  0.00     0.167 HD
ENDBRANCH  13  15
ENDBRANCH  12  13
ENDBRANCH  10  12
ENDBRANCH   4   8
BRANCH   3  17
HETATM   17  O   UNK N   1      37.289  13.934  12.708  0.00  0.00    -0.358 OA
HETATM   18  H   UNK N   1      37.915  14.390  13.235  0.00  0.00     0.217 HD
ENDBRANCH   3  17
BRANCH   1  19
HETATM   19  C   UNK N   1      35.325  12.246  16.802  0.00  0.00    -0.023 A 
HETATM   20  C   UNK N   1      35.144  13.387  17.603  0.00  0.00     0.012 A 
HETATM   21  C   UNK N   1      35.155  13.291  18.994  0.00  0.00     0.003 A 
HETATM   22  C   UNK N   1      35.352  12.052  19.606  0.00  0.00     0.024 A 
HETATM   23  C   UNK N   1      35.535  10.908  18.824  0.00  0.00     0.034 A 
HETATM   24  C   UNK N   1      35.521  11.002  17.425  0.00  0.00     0.036 A 
HETATM   25 Cl   UNK N   1      35.788   9.363  19.604  0.00  0.00    -0.084 Cl
ENDBRANCH   1  19
TORSDOF 6
ENDMDL
MODEL 2
REMARK VINA RESULT:      -7.0      6.804     10.675
REMARK  6 active torsions:
REMARK  status: ('A' for Active; 'I' for Inactive)
REMARK    1  A    between atoms: C_3  and  C_8 
REMARK    2  A    between atoms: C_10  and  O_22 
REMARK    3  A    between atoms: C_11  and  C_15 
REMARK       I    between atoms: C_15  and  N_17 
REMARK    4  A    between atoms: N_17  and  C_18 
REMARK    5  A    between atoms: C_18  and  C_19 
REMARK    6  A    between atoms: C_19  and  O_21 
ROOT
HETATM    1  C   UNK N   1      30.953  17.214   6.842  0.00  0.00    -0.008 A 
HETATM    2  C   UNK N   1      32.158  17.327   6.146  0.00  0.00     0.052 A 
HETATM    3  C   UNK N   1      33.367  17.424   6.823  0.00  0.00     0.098 A 
HETATM    4  C   UNK N   1      33.379  17.405   8.236  0.00  0.00     0.134 A 
HETATM    5  N   UNK N   1      32.187  17.300   8.896  0.00  0.00    -0.358 N 
ATOM      6  HN  UNK N   1      32.190  17.290   9.917  1.00  0.00     0.165 HD
HETATM    7  C   UNK N   1      30.994  17.207   8.243  0.00  0.00     0.101 A 
ENDROOT
BRANCH   4   8
HETATM    8  C   UNK N   1      34.674  17.493   8.998  0.00  0.00     0.271 C 
HETATM    9  O   UNK N   1      35.242  18.572   9.078  0.00  0.00    -0.266 OA
HETATM   10  N   UNK N   1      35.255  16.427   9.609  0.00  0.00    -0.346 N 
HETATM   11  H   UNK N   1      36.105  16.582  10.080  0.00  0.00     0.163 HD
BRANCH  10  12
HETATM   12  C   UNK N   1      34.724  15.085   9.621  0.00  0.00     0.232 C 
BRANCH  12  13
HETATM   13  C   UNK N   1      33.961  14.820  10.885  0.00  0.00     0.158 C 
HETATM   14  O   UNK N   1      34.524  14.387  11.879  0.00  0.00    -0.649 OA
BRANCH  13  15
HETATM   15  O   UNK N   1      32.640  15.070  10.924  0.00  0.00    -0.775 OA
HETATM   16  H   UNK N   1      32.027  14.378  10.770  0.00  0.00     0.167 HD
ENDBRANCH  13  15
ENDBRANCH  12  13
ENDBRANCH  10  12
ENDBRANCH   4   8
BRANCH   3  17
HETATM   17  O   UNK N   1      34.501  17.535   6.110  0.00  0.00    -0.358 OA
HETATM   18  H   UNK N   1      34.550  17.173   5.247  0.00  0.00     0.217 HD
ENDBRANCH   3  17
BRANCH   1  19
HETATM   19  C   UNK N   1      29.677  17.094   6.094  0.00  0.00    -0.023 A 
HETATM   20  C   UNK N   1      29.598  17.575   4.775  0.00  0.00     0.012 A 
HETATM   21  C   UNK N   1      28.414  17.465   4.046  0.00  0.00     0.003 A 
HETATM   22  C   UNK N   1      27.290  16.878   4.628  0.00  0.00     0.024 A 
HETATM   23  C   UNK N   1      27.351  16.396   5.938  0.00  0.00     0.034 A 
HETATM   24  C   UNK N   1      28.541  16.502   6.672  0.00  0.00     0.036 A 
HETATM   25 Cl   UNK N   1      25.932  15.668   6.657  0.00  0.00    -0.084 Cl
ENDBRANCH   1  19
TORSDOF 6
ENDMDL
MODEL 3
REMARK VINA RESULT:      -6.8      8.790     11.804
REMARK  6 active torsions:
REMARK  status: ('A' for Active; 'I' for Inactive)
REMARK    1  A    between atoms: C_3  and  C_8 
REMARK    2  A    between atoms: C_10  and  O_22 
REMARK    3  A    between atoms: C_11  and  C_15 
REMARK       I    between atoms: C_15  and  N_17 
REMARK    4  A    between atoms: N_17  and  C_18 
REMARK    5  A    between atoms: C_18  and  C_19 
REMARK    6  A    between atoms: C_19  and  O_21 
ROOT
HETATM    1  C   UNK N   1      29.381  17.663   6.173  0.00  0.00    -0.008 A 
HETATM    2  C   UNK N   1      29.742  17.724   7.520  0.00  0.00     0.052 A 
HETATM    3  C   UNK N   1      30.758  16.921   8.024  0.00  0.00     0.098 A 
HETATM    4  C   UNK N   1      31.439  16.034   7.160  0.00  0.00     0.134 A 
HETATM    5  N   UNK N   1      31.064  15.986   5.847  0.00  0.00    -0.358 N 
ATOM      6  HN  UNK N   1      31.549  15.343   5.221  1.00  0.00     0.165 HD
HETATM    7  C   UNK N   1      30.067  16.766   5.342  0.00  0.00     0.101 A 
ENDROOT
BRANCH   4   8
HETATM    8  C   UNK N   1      32.554  15.162   7.673  0.00  0.00     0.271 C 
HETATM    9  O   UNK N   1      32.292  14.035   8.065  0.00  0.00    -0.266 OA
HETATM   10  N   UNK N   1      33.851  15.564   7.725  0.00  0.00    -0.346 N 
HETATM   11  H   UNK N   1      34.510  14.925   8.080  0.00  0.00     0.163 HD
BRANCH  10  12
HETATM   12  C   UNK N   1      34.339  16.854   7.301  0.00  0.00     0.232 C 
BRANCH  12  13
HETATM   13  C   UNK N   1      34.473  17.788   8.467  0.00  0.00     0.158 C 
HETATM   14  O   UNK N   1      34.923  18.915   8.320  0.00  0.00    -0.649 OA
BRANCH  13  15
HETATM   15  O   UNK N   1      34.086  17.380   9.689  0.00  0.00    -0.775 OA
HETATM   16  H   UNK N   1      34.258  16.502   9.966  0.00  0.00     0.167 HD
ENDBRANCH  13  15
ENDBRANCH  12  13
ENDBRANCH  10  12
ENDBRANCH   4   8
BRANCH   3  17
HETATM   17  O   UNK N   1      31.068  17.012   9.329  0.00  0.00    -0.358 OA
HETATM   18  H   UNK N   1      31.040  16.250   9.872  0.00  0.00     0.217 HD
ENDBRANCH   3  17
BRANCH   1  19
HETATM   19  C   UNK N   1      28.304  18.544   5.657  0.00  0.00    -0.023 A 
HETATM   20  C   UNK N   1      27.752  18.296   4.388  0.00  0.00     0.012 A 
HETATM   21  C   UNK N   1      26.732  19.103   3.884  0.00  0.00     0.003 A 
HETATM   22  C   UNK N   1      26.253  20.174   4.641  0.00  0.00     0.024 A 
HETATM   23  C   UNK N   1      26.792  20.435   5.903  0.00  0.00     0.034 A 
HETATM   24  C   UNK N   1      27.814  19.622   6.413  0.00  0.00     0.036 A 
HETATM   25 Cl   UNK N   1      26.186  21.784   6.837  0.00  0.00    -0.084 Cl
ENDBRANCH   1  19
TORSDOF 6
ENDMDL
MODEL 4
REMARK VINA RESULT:      -6.6      1.578      2.293
REMARK  6 active torsions:
REMARK  status: ('A' for Active; 'I' for Inactive)
REMARK    1  A    between atoms: C_3  and  C_8 
REMARK    2  A    between atoms: C_10  and  O_22 
REMARK    3  A    between atoms: C_11  and  C_15 
REMARK       I    between atoms: C_15  and  N_17 
REMARK    4  A    between atoms: N_17  and  C_18 
REMARK    5  A    between atoms: C_18  and  C_19 
REMARK    6  A    between atoms: C_19  and  O_21 
ROOT
HETATM    1  C   UNK N   1      35.387  12.408  15.806  0.00  0.00    -0.008 A 
HETATM    2  C   UNK N   1      36.156  13.462  15.309  0.00  0.00     0.052 A 
HETATM    3  C   UNK N   1      36.027  13.878  13.989  0.00  0.00     0.098 A 
HETATM    4  C   UNK N   1      35.103  13.229  13.140  0.00  0.00     0.134 A 
HETATM    5  N   UNK N   1      34.366  12.196  13.647  0.00  0.00    -0.358 N 
ATOM      6  HN  UNK N   1      33.701  11.720  13.036  1.00  0.00     0.165 HD
HETATM    7  C   UNK N   1      34.485  11.776  14.939  0.00  0.00     0.101 A 
ENDROOT
BRANCH   4   8
HETATM    8  C   UNK N   1      34.930  13.666  11.710  0.00  0.00     0.271 C 
HETATM    9  O   UNK N   1      34.226  14.634  11.468  0.00  0.00    -0.266 OA
HETATM   10  N   UNK N   1      35.520  13.035  10.660  0.00  0.00    -0.346 N 
HETATM   11  H   UNK N   1      35.343  13.392   9.760  0.00  0.00     0.163 HD
BRANCH  10  12
HETATM   12  C   UNK N   1      36.383  11.884  10.761  0.00  0.00     0.232 C 
BRANCH  12  13
HETATM   13  C   UNK N   1      37.825  12.281  10.651  0.00  0.00     0.158 C 
HETATM   14  O   UNK N   1      38.609  11.622   9.986  0.00  0.00    -0.649 OA
BRANCH  13  15
HETATM   15  O   UNK N   1      38.257  13.383  11.291  0.00  0.00    -0.775 OA
HETATM   16  H   UNK N   1      38.911  13.312  11.957  0.00  0.00     0.167 HD
ENDBRANCH  13  15
ENDBRANCH  12  13
ENDBRANCH  10  12
ENDBRANCH   4   8
BRANCH   3  17
HETATM   17  O   UNK N   1      36.791  14.895  13.554  0.00  0.00    -0.358 OA
HETATM   18  H   UNK N   1      36.394  15.639  13.146  0.00  0.00     0.217 HD
ENDBRANCH   3  17
BRANCH   1  19
HETATM   19  C   UNK N   1      35.532  11.995  17.224  0.00  0.00    -0.023 A 
HETATM   20  C   UNK N   1      35.155  12.883  18.247  0.00  0.00     0.012 A 
HETATM   21  C   UNK N   1      35.272  12.516  19.588  0.00  0.00     0.003 A 
HETATM   22  C   UNK N   1      35.772  11.257  19.925  0.00  0.00     0.024 A 
HETATM   23  C   UNK N   1      36.153  10.364  18.920  0.00  0.00     0.034 A 
HETATM   24  C   UNK N   1      36.032  10.729  17.572  0.00  0.00     0.036 A 
HETATM   25 Cl   UNK N   1      36.784   8.793  19.357  0.00  0.00    -0.084 Cl
ENDBRANCH   1  19
TORSDOF 6
ENDMDL
MODEL 5
REMARK VINA RESULT:      -6.6      1.725      2.850
REMARK  6 active torsions:
REMARK  status: ('A' for Active; 'I' for Inactive)
REMARK    1  A    between atoms: C_3  and  C_8 
REMARK    2  A    between atoms: C_10  and  O_22 
REMARK    3  A    between atoms: C_11  and  C_15 
REMARK       I    between atoms: C_15  and  N_17 
REMARK    4  A    between atoms: N_17  and  C_18 
REMARK    5  A    between atoms: C_18  and  C_19 
REMARK    6  A    between atoms: C_19  and  O_21 
ROOT
HETATM    1  C   UNK N   1      35.806  13.333  15.453  0.00  0.00    -0.008 A 
HETATM    2  C   UNK N   1      35.015  12.909  14.383  0.00  0.00     0.052 A 
HETATM    3  C   UNK N   1      35.137  13.495  13.129  0.00  0.00     0.098 A 
HETATM    4  C   UNK N   1      36.077  14.531  12.932  0.00  0.00     0.134 A 
HETATM    5  N   UNK N   1      36.836  14.934  13.994  0.00  0.00    -0.358 N 
ATOM      6  HN  UNK N   1      37.513  15.685  13.858  1.00  0.00     0.165 HD
HETATM    7  C   UNK N   1      36.723  14.369  15.231  0.00  0.00     0.101 A 
ENDROOT
BRANCH   4   8
HETATM    8  C   UNK N   1      36.244  15.175  11.581  0.00  0.00     0.271 C 
HETATM    9  O   UNK N   1      35.667  16.227  11.352  0.00  0.00    -0.266 OA
HETATM   10  N   UNK N   1      37.008  14.644  10.591  0.00  0.00    -0.346 N 
HETATM   11  H   UNK N   1      37.052  15.136   9.739  0.00  0.00     0.163 HD
BRANCH  10  12
HETATM   12  C   UNK N   1      37.759  13.416  10.688  0.00  0.00     0.232 C 
BRANCH  12  13
HETATM   13  C   UNK N   1      37.171  12.354   9.807  0.00  0.00     0.158 C 
HETATM   14  O   UNK N   1      37.714  12.034   8.761  0.00  0.00    -0.649 OA
BRANCH  13  15
HETATM   15  O   UNK N   1      36.033  11.741  10.181  0.00  0.00    -0.775 OA
HETATM   16  H   UNK N   1      35.369  11.559   9.547  0.00  0.00     0.167 HD
ENDBRANCH  13  15
ENDBRANCH  12  13
ENDBRANCH  10  12
ENDBRANCH   4   8
BRANCH   3  17
HETATM   17  O   UNK N   1      34.351  13.055  12.131  0.00  0.00    -0.358 OA
HETATM   18  H   UNK N   1      33.460  13.338  12.076  0.00  0.00     0.217 HD
ENDBRANCH   3  17
BRANCH   1  19
HETATM   19  C   UNK N   1      35.668  12.678  16.778  0.00  0.00    -0.023 A 
HETATM   20  C   UNK N   1      35.284  13.443  17.893  0.00  0.00     0.012 A 
HETATM   21  C   UNK N   1      35.137  12.850  19.147  0.00  0.00     0.003 A 
HETATM   22  C   UNK N   1      35.377  11.485  19.305  0.00  0.00     0.024 A 
HETATM   23  C   UNK N   1      35.762  10.711  18.206  0.00  0.00     0.034 A 
HETATM   24  C   UNK N   1      35.906  11.304  16.944  0.00  0.00     0.036 A 
HETATM   25 Cl   UNK N   1      36.067   9.002  18.420  0.00  0.00    -0.084 Cl
ENDBRANCH   1  19
TORSDOF 6
ENDMDL
MODEL 6
REMARK VINA RESULT:      -6.5      1.640      1.977
REMARK  6 active torsions:
REMARK  status: ('A' for Active; 'I' for Inactive)
REMARK    1  A    between atoms: C_3  and  C_8 
REMARK    2  A    between atoms: C_10  and  O_22 
REMARK    3  A    between atoms: C_11  and  C_15 
REMARK       I    between atoms: C_15  and  N_17 
REMARK    4  A    between atoms: N_17  and  C_18 
REMARK    5  A    between atoms: C_18  and  C_19 
REMARK    6  A    between atoms: C_19  and  O_21 
ROOT
HETATM    1  C   UNK N   1      36.211  12.979  14.481  0.00  0.00    -0.008 A 
HETATM    2  C   UNK N   1      36.379  11.982  13.518  0.00  0.00     0.052 A 
HETATM    3  C   UNK N   1      36.693  12.306  12.204  0.00  0.00     0.098 A 
HETATM    4  C   UNK N   1      36.849  13.662  11.838  0.00  0.00     0.134 A 
HETATM    5  N   UNK N   1      36.673  14.620  12.796  0.00  0.00    -0.358 N 
ATOM      6  HN  UNK N   1      36.779  15.601  12.535  1.00  0.00     0.165 HD
HETATM    7  C   UNK N   1      36.361  14.316  14.088  0.00  0.00     0.101 A 
ENDROOT
BRANCH   4   8
HETATM    8  C   UNK N   1      37.204  14.044  10.425  0.00  0.00     0.271 C 
HETATM    9  O   UNK N   1      38.310  13.755   9.994  0.00  0.00    -0.266 OA
HETATM   10  N   UNK N   1      36.353  14.703   9.594  0.00  0.00    -0.346 N 
HETATM   11  H   UNK N   1      36.677  14.914   8.689  0.00  0.00     0.163 HD
BRANCH  10  12
HETATM   12  C   UNK N   1      35.014  15.117   9.934  0.00  0.00     0.232 C 
BRANCH  12  13
HETATM   13  C   UNK N   1      34.969  16.582  10.256  0.00  0.00     0.158 C 
HETATM   14  O   UNK N   1      34.783  17.412   9.380  0.00  0.00    -0.649 OA
BRANCH  13  15
HETATM   15  O   UNK N   1      35.129  16.983  11.530  0.00  0.00    -0.775 OA
HETATM   16  H   UNK N   1      35.978  16.962  11.925  0.00  0.00     0.167 HD
ENDBRANCH  13  15
ENDBRANCH  12  13
ENDBRANCH  10  12
ENDBRANCH   4   8
BRANCH   3  17
HETATM   17  O   UNK N   1      36.842  11.313  11.311  0.00  0.00    -0.358 OA
HETATM   18  H   UNK N   1      36.246  10.591  11.307  0.00  0.00     0.217 HD
ENDBRANCH   3  17
BRANCH   1  19
HETATM   19  C   UNK N   1      35.892  12.604  15.882  0.00  0.00    -0.023 A 
HETATM   20  C   UNK N   1      35.477  13.595  16.788  0.00  0.00     0.012 A 
HETATM   21  C   UNK N   1      35.163  13.269  18.107  0.00  0.00     0.003 A 
HETATM   22  C   UNK N   1      35.264  11.946  18.540  0.00  0.00     0.024 A 
HETATM   23  C   UNK N   1      35.677  10.949  17.652  0.00  0.00     0.034 A 
HETATM   24  C   UNK N   1      35.990  11.275  16.325  0.00  0.00     0.036 A 
HETATM   25 Cl   UNK N   1      35.805   9.296  18.210  0.00  0.00    -0.084 Cl
ENDBRANCH   1  19
TORSDOF 6
ENDMDL
MODEL 7
REMARK VINA RESULT:      -6.3      4.085      5.932
REMARK  6 active torsions:
REMARK  status: ('A' for Active; 'I' for Inactive)
REMARK    1  A    between atoms: C_3  and  C_8 
REMARK    2  A    between atoms: C_10  and  O_22 
REMARK    3  A    between atoms: C_11  and  C_15 
REMARK       I    between atoms: C_15  and  N_17 
REMARK    4  A    between atoms: N_17  and  C_18 
REMARK    5  A    between atoms: C_18  and  C_19 
REMARK    6  A    between atoms: C_19  and  O_21 
ROOT
HETATM    1  C   UNK N   1      35.498  14.728  10.800  0.00  0.00    -0.008 A 
HETATM    2  C   UNK N   1      35.332  14.627   9.417  0.00  0.00     0.052 A 
HETATM    3  C   UNK N   1      35.000  15.741   8.655  0.00  0.00     0.098 A 
HETATM    4  C   UNK N   1      34.833  16.994   9.287  0.00  0.00     0.134 A 
HETATM    5  N   UNK N   1      34.994  17.067  10.642  0.00  0.00    -0.358 N 
ATOM      6  HN  UNK N   1      34.869  17.968  11.104  1.00  0.00     0.165 HD
HETATM    7  C   UNK N   1      35.316  15.981  11.401  0.00  0.00     0.101 A 
ENDROOT
BRANCH   4   8
HETATM    8  C   UNK N   1      34.489  18.222   8.487  0.00  0.00     0.271 C 
HETATM    9  O   UNK N   1      35.363  19.041   8.254  0.00  0.00    -0.266 OA
HETATM   10  N   UNK N   1      33.242  18.473   8.006  0.00  0.00    -0.346 N 
HETATM   11  H   UNK N   1      33.113  19.306   7.497  0.00  0.00     0.163 HD
BRANCH  10  12
HETATM   12  C   UNK N   1      32.095  17.616   8.181  0.00  0.00     0.232 C 
BRANCH  12  13
HETATM   13  C   UNK N   1      31.723  16.945   6.892  0.00  0.00     0.158 C 
HETATM   14  O   UNK N   1      32.450  17.017   5.914  0.00  0.00    -0.649 OA
BRANCH  13  15
HETATM   15  O   UNK N   1      30.575  16.247   6.818  0.00  0.00    -0.775 OA
HETATM   16  H   UNK N   1      29.813  16.638   6.440  0.00  0.00     0.167 HD
ENDBRANCH  13  15
ENDBRANCH  12  13
ENDBRANCH  10  12
ENDBRANCH   4   8
BRANCH   3  17
HETATM   17  O   UNK N   1      34.847  15.595   7.328  0.00  0.00    -0.358 OA
HETATM   18  H   UNK N   1      34.700  14.744   6.963  0.00  0.00     0.217 HD
ENDBRANCH   3  17
BRANCH   1  19
HETATM   19  C   UNK N   1      35.869  13.526  11.587  0.00  0.00    -0.023 A 
HETATM   20  C   UNK N   1      37.189  13.046  11.541  0.00  0.00     0.012 A 
HETATM   21  C   UNK N   1      37.567  11.924  12.279  0.00  0.00     0.003 A 
HETATM   22  C   UNK N   1      36.627  11.263  13.070  0.00  0.00     0.024 A 
HETATM   23  C   UNK N   1      35.309  11.726  13.126  0.00  0.00     0.034 A 
HETATM   24  C   UNK N   1      34.929  12.856  12.388  0.00  0.00     0.036 A 
HETATM   25 Cl   UNK N   1      34.140  10.883  14.117  0.00  0.00    -0.084 Cl
ENDBRANCH   1  19
TORSDOF 6
ENDMDL
MODEL 8
REMARK VINA RESULT:      -6.1      1.929      2.529
REMARK  6 active torsions:
REMARK  status: ('A' for Active; 'I' for Inactive)
REMARK    1  A    between atoms: C_3  and  C_8 
REMARK    2  A    between atoms: C_10  and  O_22 
REMARK    3  A    between atoms: C_11  and  C_15 
REMARK       I    between atoms: C_15  and  N_17 
REMARK    4  A    between atoms: N_17  and  C_18 
REMARK    5  A    between atoms: C_18  and  C_19 
REMARK    6  A    between atoms: C_19  and  O_21 
ROOT
HETATM    1  C   UNK N   1      35.127  12.120  14.585  0.00  0.00    -0.008 A 
HETATM    2  C   UNK N   1      35.818  13.308  14.341  0.00  0.00     0.052 A 
HETATM    3  C   UNK N   1      35.796  13.902  13.085  0.00  0.00     0.098 A 
HETATM    4  C   UNK N   1      35.061  13.297  12.041  0.00  0.00     0.134 A 
HETATM    5  N   UNK N   1      34.398  12.131  12.300  0.00  0.00    -0.358 N 
ATOM      6  HN  UNK N   1      33.869  11.688  11.548  1.00  0.00     0.165 HD
HETATM    7  C   UNK N   1      34.414  11.537  13.528  0.00  0.00     0.101 A 
ENDROOT
BRANCH   4   8
HETATM    8  C   UNK N   1      35.005  13.924  10.673  0.00  0.00     0.271 C 
HETATM    9  O   UNK N   1      34.038  14.606  10.373  0.00  0.00    -0.266 OA
HETATM   10  N   UNK N   1      35.983  13.769   9.741  0.00  0.00    -0.346 N 
HETATM   11  H   UNK N   1      35.855  14.214   8.872  0.00  0.00     0.163 HD
BRANCH  10  12
HETATM   12  C   UNK N   1      37.192  13.004   9.924  0.00  0.00     0.232 C 
BRANCH  12  13
HETATM   13  C   UNK N   1      38.394  13.779   9.471  0.00  0.00     0.158 C 
HETATM   14  O   UNK N   1      39.133  13.341   8.604  0.00  0.00    -0.649 OA
BRANCH  13  15
HETATM   15  O   UNK N   1      38.654  14.977  10.026  0.00  0.00    -0.775 OA
HETATM   16  H   UNK N   1      39.217  15.036  10.772  0.00  0.00     0.167 HD
ENDBRANCH  13  15
ENDBRANCH  12  13
ENDBRANCH  10  12
ENDBRANCH   4   8
BRANCH   3  17
HETATM   17  O   UNK N   1      36.480  15.044  12.897  0.00  0.00    -0.358 OA
HETATM   18  H   UNK N   1      36.960  15.426  13.605  0.00  0.00     0.217 HD
ENDBRANCH   3  17
BRANCH   1  19
HETATM   19  C   UNK N   1      35.153  11.516  15.940  0.00  0.00    -0.023 A 
HETATM   20  C   UNK N   1      35.115  10.118  16.078  0.00  0.00     0.012 A 
HETATM   21  C   UNK N   1      35.149   9.524  17.341  0.00  0.00     0.003 A 
HETATM   22  C   UNK N   1      35.215  10.322  18.483  0.00  0.00     0.024 A 
HETATM   23  C   UNK N   1      35.250  11.714  18.363  0.00  0.00     0.034 A 
HETATM   24  C   UNK N   1      35.221  12.312  17.096  0.00  0.00     0.036 A 
HETATM   25 Cl   UNK N   1      35.326  12.702  19.805  0.00  0.00    -0.084 Cl
ENDBRANCH   1  19
TORSDOF 6
ENDMDL
MODEL 9
REMARK VINA RESULT:      -6.0     20.783     23.138
REMARK  6 active torsions:
REMARK  status: ('A' for Active; 'I' for Inactive)
REMARK    1  A    between atoms: C_3  and  C_8 
REMARK    2  A    between atoms: C_10  and  O_22 
REMARK    3  A    between atoms: C_11  and  C_15 
REMARK       I    between atoms: C_15  and  N_17 
REMARK    4  A    between atoms: N_17  and  C_18 
REMARK    5  A    between atoms: C_18  and  C_19 
REMARK    6  A    between atoms: C_19  and  O_21 
ROOT
HETATM    1  C   UNK N   1      29.715  23.215  -4.527  0.00  0.00    -0.008 A 
HETATM    2  C   UNK N   1      28.842  23.450  -3.463  0.00  0.00     0.052 A 
HETATM    3  C   UNK N   1      27.612  24.063  -3.672  0.00  0.00     0.098 A 
HETATM    4  C   UNK N   1      27.238  24.449  -4.978  0.00  0.00     0.134 A 
HETATM    5  N   UNK N   1      28.111  24.214  -6.003  0.00  0.00    -0.358 N 
ATOM      6  HN  UNK N   1      27.847  24.496  -6.948  1.00  0.00     0.165 HD
HETATM    7  C   UNK N   1      29.321  23.617  -5.811  0.00  0.00     0.101 A 
ENDROOT
BRANCH   4   8
HETATM    8  C   UNK N   1      25.906  25.101  -5.239  0.00  0.00     0.271 C 
HETATM    9  O   UNK N   1      24.972  24.410  -5.615  0.00  0.00    -0.266 OA
HETATM   10  N   UNK N   1      25.683  26.432  -5.078  0.00  0.00    -0.346 N 
HETATM   11  H   UNK N   1      24.779  26.767  -5.277  0.00  0.00     0.163 HD
BRANCH  10  12
HETATM   12  C   UNK N   1      26.665  27.392  -4.638  0.00  0.00     0.232 C 
BRANCH  12  13
HETATM   13  C   UNK N   1      26.326  27.926  -3.278  0.00  0.00     0.158 C 
HETATM   14  O   UNK N   1      26.386  29.123  -3.040  0.00  0.00    -0.649 OA
BRANCH  13  15
HETATM   15  O   UNK N   1      25.943  27.073  -2.311  0.00  0.00    -0.775 OA
HETATM   16  H   UNK N   1      25.326  26.395  -2.501  0.00  0.00     0.167 HD
ENDBRANCH  13  15
ENDBRANCH  12  13
ENDBRANCH  10  12
ENDBRANCH   4   8
BRANCH   3  17
HETATM   17  O   UNK N   1      26.807  24.272  -2.616  0.00  0.00    -0.358 OA
HETATM   18  H   UNK N   1      27.143  24.676  -1.841  0.00  0.00     0.217 HD
ENDBRANCH   3  17
BRANCH   1  19
HETATM   19  C   UNK N   1      31.015  22.543  -4.279  0.00  0.00    -0.023 A 
HETATM   20  C   UNK N   1      31.329  22.095  -2.984  0.00  0.00     0.012 A 
HETATM   21  C   UNK N   1      32.539  21.452  -2.726  0.00  0.00     0.003 A 
HETATM   22  C   UNK N   1      33.456  21.253  -3.758  0.00  0.00     0.024 A 
HETATM   23  C   UNK N   1      33.161  21.694  -5.051  0.00  0.00     0.034 A 
HETATM   24  C   UNK N   1      31.943  22.337  -5.314  0.00  0.00     0.036 A 
HETATM   25 Cl   UNK N   1      34.322  21.444  -6.334  0.00  0.00    -0.084 Cl
ENDBRANCH   1  19
TORSDOF 6
ENDMDL
