REMARK  1 active torsions:
REMARK  status: ('A' for Active; 'I' for Inactive)
REMARK    1  A    between atoms: C_6  and  C_7 
ROOT
HETATM    1  C   UNK N   1       4.490  -0.055   0.333  0.00  0.00     0.017 A 
HETATM    2  C   UNK N   1       3.322  -0.833   0.270  0.00  0.00     0.009 A 
HETATM    3  C   UNK N   1       2.125  -0.207  -0.075  0.00  0.00    -0.046 A 
HETATM    4  C   UNK N   1       2.073   1.127  -0.351  0.00  0.00    -0.045 A 
HETATM    5  C   UNK N   1       3.220   1.922  -0.318  0.00  0.00     0.024 A 
HETATM    6  C   UNK N   1       4.448   1.324   0.032  0.00  0.00     0.048 A 
HETATM    7  C   UNK N   1       0.713   1.517  -0.785  0.00  0.00     0.037 C 
HETATM    8  C   UNK N   1       0.267   0.157  -1.361  0.00  0.00     0.022 C 
HETATM    9  C   UNK N   1       0.809  -0.841  -0.315  0.00  0.00     0.037 C 
HETATM   10  C   UNK N   1      -0.038  -0.662   0.965  0.00  0.00     0.123 C 
HETATM   11  N   UNK N   1      -0.852   0.571   0.974  0.00  0.00    -0.420 N 
HETATM   12  C   UNK N   1      -0.129   1.766   0.489  0.00  0.00     0.123 C 
HETATM   13  H   UNK N   1      -1.822   0.596   1.286  0.00  0.00     0.153 HD
ENDROOT
BRANCH   6  14
HETATM   14  C   UNK N   1       5.718   2.125   0.039  0.00  0.00     0.417 C 
HETATM   15  F   UNK N   1       6.300   2.074   1.292  0.00  0.00    -0.166 F 
HETATM   16  F   UNK N   1       5.477   3.448  -0.290  0.00  0.00    -0.166 F 
HETATM   17  F   UNK N   1       6.596   1.592  -0.888  0.00  0.00    -0.166 F 
ENDBRANCH   6  14
TORSDOF 1
