MODEL 1
REMARK VINA RESULT:      -7.4      0.000      0.000
REMARK  6 active torsions:
REMARK  status: ('A' for Active; 'I' for Inactive)
REMARK    1  A    between atoms: C_7  and  N_11 
REMARK    2  A    between atoms: N_11  and  C_12 
REMARK    3  A    between atoms: C_12  and  C_13 
REMARK    4  A    between atoms: C_13  and  C_14 
REMARK    5  A    between atoms: C_14  and  N_15 
REMARK    6  A    between atoms: C_16  and  N_15 
ROOT
HETATM    1  C   UNK N   1      27.470  16.212   3.419  0.00  0.00     0.039 C 
ENDROOT
BRANCH   1   2
HETATM    2  C   UNK N   1      27.050  17.326   4.343  0.00  0.00     0.123 C 
BRANCH   2   3
HETATM    3  N   UNK N   1      26.587  18.460   3.585  0.00  0.00    -0.376 N 
HETATM    4  H   UNK N   1      27.227  18.996   3.065  0.00  0.00     0.161 HD
BRANCH   3   5
HETATM    5  C   UNK N   1      25.218  18.805   3.586  0.00  0.00     0.105 A 
HETATM    6  N   UNK N   1      24.298  17.862   3.937  0.00  0.00    -0.341 N 
HETATM    7  C   UNK N   1      22.972  18.150   3.880  0.00  0.00     0.055 A 
HETATM    8  H   UNK N   1      24.594  16.971   4.231  0.00  0.00     0.167 HD
HETATM    9  C   UNK N   1      22.537  19.402   3.486  0.00  0.00     0.081 A 
HETATM   10  C   UNK N   1      21.934  17.236   4.188  0.00  0.00     0.038 A 
HETATM   11  S   UNK N   1      20.889  19.378   3.527  0.00  0.00    -0.096 SA
HETATM   12  C   UNK N   1      23.435  20.403   3.139  0.00  0.00     0.194 A 
HETATM   13  C   UNK N   1      20.652  17.799   4.030  0.00  0.00     0.053 A 
HETATM   14  C   UNK N   1      24.802  20.096   3.179  0.00  0.00     0.104 A 
HETATM   15  O   UNK N   1      23.052  21.509   2.799  0.00  0.00    -0.287 OA
ENDBRANCH   3   5
ENDBRANCH   2   3
ENDBRANCH   1   2
BRANCH   1  16
HETATM   16  C   UNK N   1      28.920  16.411   3.026  0.00  0.00     0.116 C 
BRANCH  16  17
HETATM   17  N   UNK N   1      29.534  17.377   3.920  0.00  0.00    -0.413 N 
HETATM   18  H   UNK N   1      29.185  18.311   4.137  0.00  0.00     0.153 HD
BRANCH  17  19
HETATM   19  C   UNK N   1      30.739  16.760   4.448  0.00  0.00     0.114 C 
HETATM   20  C   UNK N   1      31.929  17.162   3.583  0.00  0.00     0.056 C 
HETATM   21  C   UNK N   1      33.210  16.619   4.208  0.00  0.00     0.178 C 
HETATM   22  O   UNK N   1      33.356  17.052   5.517  0.00  0.00    -0.349 OA
HETATM   23  C   UNK N   1      32.309  17.267   6.356  0.00  0.00     0.094 A 
HETATM   24  C   UNK N   1      30.985  17.148   5.888  0.00  0.00     0.000 A 
HETATM   25  C   UNK N   1      32.542  17.610   7.699  0.00  0.00     0.046 A 
HETATM   26  C   UNK N   1      29.918  17.365   6.769  0.00  0.00     0.031 A 
HETATM   27  C   UNK N   1      30.154  17.713   8.096  0.00  0.00     0.013 A 
HETATM   28  C   UNK N   1      31.464  17.833   8.562  0.00  0.00     0.041 A 
HETATM   29 Br   UNK N   1      28.685  18.025   9.269  0.00  0.00    -0.051 Br
HETATM   30 Br   UNK N   1      34.321  17.766   8.372  0.00  0.00    -0.048 Br
ENDBRANCH  17  19
ENDBRANCH  16  17
ENDBRANCH   1  16
TORSDOF 6
ENDMDL
MODEL 2
REMARK VINA RESULT:      -7.2      8.271     12.878
REMARK  6 active torsions:
REMARK  status: ('A' for Active; 'I' for Inactive)
REMARK    1  A    between atoms: C_7  and  N_11 
REMARK    2  A    between atoms: N_11  and  C_12 
REMARK    3  A    between atoms: C_12  and  C_13 
REMARK    4  A    between atoms: C_13  and  C_14 
REMARK    5  A    between atoms: C_14  and  N_15 
REMARK    6  A    between atoms: C_16  and  N_15 
ROOT
HETATM    1  C   UNK N   1      35.356  16.297  11.301  0.00  0.00     0.039 C 
ENDROOT
BRANCH   1   2
HETATM    2  C   UNK N   1      35.655  14.898  11.773  0.00  0.00     0.123 C 
BRANCH   2   3
HETATM    3  N   UNK N   1      36.455  14.931  12.970  0.00  0.00    -0.376 N 
HETATM    4  H   UNK N   1      36.987  15.730  13.181  0.00  0.00     0.161 HD
BRANCH   3   5
HETATM    5  C   UNK N   1      36.478  13.821  13.842  0.00  0.00     0.105 A 
HETATM    6  N   UNK N   1      37.348  12.801  13.592  0.00  0.00    -0.341 N 
HETATM    7  C   UNK N   1      37.342  11.693  14.378  0.00  0.00     0.055 A 
HETATM    8  H   UNK N   1      37.982  12.867  12.843  0.00  0.00     0.167 HD
HETATM    9  C   UNK N   1      36.471  11.590  15.447  0.00  0.00     0.081 A 
HETATM   10  C   UNK N   1      38.177  10.565  14.187  0.00  0.00     0.038 A 
HETATM   11  S   UNK N   1      36.740  10.122  16.150  0.00  0.00    -0.096 SA
HETATM   12  C   UNK N   1      35.581  12.609  15.755  0.00  0.00     0.194 A 
HETATM   13  C   UNK N   1      37.948   9.554  15.142  0.00  0.00     0.053 A 
HETATM   14  C   UNK N   1      35.575  13.742  14.931  0.00  0.00     0.104 A 
HETATM   15  O   UNK N   1      34.818  12.521  16.702  0.00  0.00    -0.287 OA
ENDBRANCH   3   5
ENDBRANCH   2   3
ENDBRANCH   1   2
BRANCH   1  16
HETATM   16  C   UNK N   1      34.998  16.262   9.829  0.00  0.00     0.116 C 
BRANCH  16  17
HETATM   17  N   UNK N   1      33.898  17.176   9.579  0.00  0.00    -0.413 N 
HETATM   18  H   UNK N   1      33.325  17.645  10.282  0.00  0.00     0.153 HD
BRANCH  17  19
HETATM   19  C   UNK N   1      33.768  17.299   8.136  0.00  0.00     0.114 C 
HETATM   20  C   UNK N   1      34.599  16.212   7.464  0.00  0.00     0.056 C 
HETATM   21  C   UNK N   1      34.364  16.261   5.958  0.00  0.00     0.178 C 
HETATM   22  O   UNK N   1      33.017  16.141   5.652  0.00  0.00    -0.349 OA
HETATM   23  C   UNK N   1      32.024  16.628   6.442  0.00  0.00     0.094 A 
HETATM   24  C   UNK N   1      32.326  17.206   7.691  0.00  0.00     0.000 A 
HETATM   25  C   UNK N   1      30.687  16.555   6.017  0.00  0.00     0.046 A 
HETATM   26  C   UNK N   1      31.292  17.709   8.489  0.00  0.00     0.031 A 
HETATM   27  C   UNK N   1      29.967  17.627   8.067  0.00  0.00     0.013 A 
HETATM   28  C   UNK N   1      29.664  17.053   6.832  0.00  0.00     0.041 A 
HETATM   29 Br   UNK N   1      28.575  18.299   9.181  0.00  0.00    -0.051 Br
HETATM   30 Br   UNK N   1      30.240  15.791   4.326  0.00  0.00    -0.048 Br
ENDBRANCH  17  19
ENDBRANCH  16  17
ENDBRANCH   1  16
TORSDOF 6
ENDMDL
MODEL 3
REMARK VINA RESULT:      -7.2      7.833     10.913
REMARK  6 active torsions:
REMARK  status: ('A' for Active; 'I' for Inactive)
REMARK    1  A    between atoms: C_7  and  N_11 
REMARK    2  A    between atoms: N_11  and  C_12 
REMARK    3  A    between atoms: C_12  and  C_13 
REMARK    4  A    between atoms: C_13  and  C_14 
REMARK    5  A    between atoms: C_14  and  N_15 
REMARK    6  A    between atoms: C_16  and  N_15 
ROOT
HETATM    1  C   UNK N   1      34.900  14.678  10.345  0.00  0.00     0.039 C 
ENDROOT
BRANCH   1   2
HETATM    2  C   UNK N   1      35.603  16.011  10.317  0.00  0.00     0.123 C 
BRANCH   2   3
HETATM    3  N   UNK N   1      34.647  17.081  10.193  0.00  0.00    -0.376 N 
HETATM    4  H   UNK N   1      34.549  17.736  10.920  0.00  0.00     0.161 HD
BRANCH   3   5
HETATM    5  C   UNK N   1      33.852  17.195   9.032  0.00  0.00     0.105 A 
HETATM    6  N   UNK N   1      32.497  17.085   9.145  0.00  0.00    -0.341 N 
HETATM    7  C   UNK N   1      31.717  17.124   8.035  0.00  0.00     0.055 A 
HETATM    8  H   UNK N   1      32.084  16.976  10.032  0.00  0.00     0.167 HD
HETATM    9  C   UNK N   1      32.277  17.294   6.782  0.00  0.00     0.081 A 
HETATM   10  C   UNK N   1      30.306  16.985   8.036  0.00  0.00     0.038 A 
HETATM   11  S   UNK N   1      31.039  17.279   5.692  0.00  0.00    -0.096 SA
HETATM   12  C   UNK N   1      33.648  17.432   6.617  0.00  0.00     0.194 A 
HETATM   13  C   UNK N   1      29.755  17.052   6.740  0.00  0.00     0.053 A 
HETATM   14  C   UNK N   1      34.453  17.370   7.762  0.00  0.00     0.104 A 
HETATM   15  O   UNK N   1      34.141  17.588   5.513  0.00  0.00    -0.287 OA
ENDBRANCH   3   5
ENDBRANCH   2   3
ENDBRANCH   1   2
BRANCH   1  16
HETATM   16  C   UNK N   1      35.106  14.035  11.701  0.00  0.00     0.116 C 
BRANCH  16  17
HETATM   17  N   UNK N   1      36.255  13.148  11.644  0.00  0.00    -0.413 N 
HETATM   18  H   UNK N   1      36.641  12.706  10.809  0.00  0.00     0.153 HD
BRANCH  17  19
HETATM   19  C   UNK N   1      36.754  13.011  13.003  0.00  0.00     0.114 C 
HETATM   20  C   UNK N   1      36.334  14.231  13.816  0.00  0.00     0.056 C 
HETATM   21  C   UNK N   1      36.746  14.031  15.271  0.00  0.00     0.178 C 
HETATM   22  O   UNK N   1      36.216  12.859  15.789  0.00  0.00    -0.349 OA
HETATM   23  C   UNK N   1      36.014  11.737  15.050  0.00  0.00     0.094 A 
HETATM   24  C   UNK N   1      36.253  11.746  13.661  0.00  0.00     0.000 A 
HETATM   25  C   UNK N   1      35.565  10.558  15.668  0.00  0.00     0.046 A 
HETATM   26  C   UNK N   1      36.046  10.579  12.917  0.00  0.00     0.031 A 
HETATM   27  C   UNK N   1      35.594   9.415  13.533  0.00  0.00     0.013 A 
HETATM   28  C   UNK N   1      35.355   9.403  14.908  0.00  0.00     0.041 A 
HETATM   29 Br   UNK N   1      35.300   7.845  12.493  0.00  0.00    -0.051 Br
HETATM   30 Br   UNK N   1      35.245  10.503  17.550  0.00  0.00    -0.048 Br
ENDBRANCH  17  19
ENDBRANCH  16  17
ENDBRANCH   1  16
TORSDOF 6
ENDMDL
MODEL 4
REMARK VINA RESULT:      -7.2      6.382     11.360
REMARK  6 active torsions:
REMARK  status: ('A' for Active; 'I' for Inactive)
REMARK    1  A    between atoms: C_7  and  N_11 
REMARK    2  A    between atoms: N_11  and  C_12 
REMARK    3  A    between atoms: C_12  and  C_13 
REMARK    4  A    between atoms: C_13  and  C_14 
REMARK    5  A    between atoms: C_14  and  N_15 
REMARK    6  A    between atoms: C_16  and  N_15 
ROOT
HETATM    1  C   UNK N   1      33.796  16.071   8.438  0.00  0.00     0.039 C 
ENDROOT
BRANCH   1   2
HETATM    2  C   UNK N   1      34.642  17.193   8.982  0.00  0.00     0.123 C 
BRANCH   2   3
HETATM    3  N   UNK N   1      34.916  16.984  10.380  0.00  0.00    -0.376 N 
HETATM    4  H   UNK N   1      34.724  17.699  11.029  0.00  0.00     0.161 HD
BRANCH   3   5
HETATM    5  C   UNK N   1      35.456  15.758  10.825  0.00  0.00     0.105 A 
HETATM    6  N   UNK N   1      36.613  15.303  10.263  0.00  0.00    -0.341 N 
HETATM    7  C   UNK N   1      37.116  14.095  10.626  0.00  0.00     0.055 A 
HETATM    8  H   UNK N   1      37.084  15.850   9.594  0.00  0.00     0.167 HD
HETATM    9  C   UNK N   1      36.479  13.321  11.578  0.00  0.00     0.081 A 
HETATM   10  C   UNK N   1      38.289  13.514  10.083  0.00  0.00     0.038 A 
HETATM   11  S   UNK N   1      37.362  11.938  11.747  0.00  0.00    -0.096 SA
HETATM   12  C   UNK N   1      35.311  13.749  12.194  0.00  0.00     0.194 A 
HETATM   13  C   UNK N   1      38.571  12.248  10.633  0.00  0.00     0.053 A 
HETATM   14  C   UNK N   1      34.782  14.986  11.802  0.00  0.00     0.104 A 
HETATM   15  O   UNK N   1      34.753  13.069  13.037  0.00  0.00    -0.287 OA
ENDBRANCH   3   5
ENDBRANCH   2   3
ENDBRANCH   1   2
BRANCH   1  16
HETATM   16  C   UNK N   1      32.428  16.118   9.086  0.00  0.00     0.116 C 
BRANCH  16  17
HETATM   17  N   UNK N   1      31.842  17.431   8.880  0.00  0.00    -0.413 N 
HETATM   18  H   UNK N   1      32.330  18.326   8.911  0.00  0.00     0.153 HD
BRANCH  17  19
HETATM   19  C   UNK N   1      30.426  17.227   8.618  0.00  0.00     0.114 C 
HETATM   20  C   UNK N   1      29.612  18.159   9.509  0.00  0.00     0.056 C 
HETATM   21  C   UNK N   1      28.136  18.036   9.146  0.00  0.00     0.178 C 
HETATM   22  O   UNK N   1      27.923  18.295   7.800  0.00  0.00    -0.349 OA
HETATM   23  C   UNK N   1      28.820  17.985   6.827  0.00  0.00     0.094 A 
HETATM   24  C   UNK N   1      30.084  17.460   7.164  0.00  0.00     0.000 A 
HETATM   25  C   UNK N   1      28.491  18.187   5.477  0.00  0.00     0.046 A 
HETATM   26  C   UNK N   1      30.993  17.140   6.149  0.00  0.00     0.031 A 
HETATM   27  C   UNK N   1      30.665  17.350   4.812  0.00  0.00     0.013 A 
HETATM   28  C   UNK N   1      29.415  17.871   4.475  0.00  0.00     0.041 A 
HETATM   29 Br   UNK N   1      31.928  16.927   3.449  0.00  0.00    -0.051 Br
HETATM   30 Br   UNK N   1      26.783  18.882   4.981  0.00  0.00    -0.048 Br
ENDBRANCH  17  19
ENDBRANCH  16  17
ENDBRANCH   1  16
TORSDOF 6
ENDMDL
MODEL 5
REMARK VINA RESULT:      -7.2     12.054     14.936
REMARK  6 active torsions:
REMARK  status: ('A' for Active; 'I' for Inactive)
REMARK    1  A    between atoms: C_7  and  N_11 
REMARK    2  A    between atoms: N_11  and  C_12 
REMARK    3  A    between atoms: C_12  and  C_13 
REMARK    4  A    between atoms: C_13  and  C_14 
REMARK    5  A    between atoms: C_14  and  N_15 
REMARK    6  A    between atoms: C_16  and  N_15 
ROOT
HETATM    1  C   UNK N   1      25.993  23.701  -5.205  0.00  0.00     0.039 C 
ENDROOT
BRANCH   1   2
HETATM    2  C   UNK N   1      27.285  23.611  -5.976  0.00  0.00     0.123 C 
BRANCH   2   3
HETATM    3  N   UNK N   1      28.315  24.374  -5.320  0.00  0.00    -0.376 N 
HETATM    4  H   UNK N   1      28.285  25.357  -5.341  0.00  0.00     0.161 HD
BRANCH   3   5
HETATM    5  C   UNK N   1      29.368  23.717  -4.647  0.00  0.00     0.105 A 
HETATM    6  N   UNK N   1      30.307  23.050  -5.378  0.00  0.00    -0.341 N 
HETATM    7  C   UNK N   1      31.290  22.355  -4.751  0.00  0.00     0.055 A 
HETATM    8  H   UNK N   1      30.272  23.072  -6.362  0.00  0.00     0.167 HD
HETATM    9  C   UNK N   1      31.366  22.327  -3.371  0.00  0.00     0.081 A 
HETATM   10  C   UNK N   1      32.292  21.602  -5.411  0.00  0.00     0.038 A 
HETATM   11  S   UNK N   1      32.663  21.387  -2.976  0.00  0.00    -0.096 SA
HETATM   12  C   UNK N   1      30.447  23.006  -2.582  0.00  0.00     0.194 A 
HETATM   13  C   UNK N   1      33.176  20.971  -4.513  0.00  0.00     0.053 A 
HETATM   14  C   UNK N   1      29.421  23.706  -3.232  0.00  0.00     0.104 A 
HETATM   15  O   UNK N   1      30.518  22.987  -1.366  0.00  0.00    -0.287 OA
ENDBRANCH   3   5
ENDBRANCH   2   3
ENDBRANCH   1   2
BRANCH   1  16
HETATM   16  C   UNK N   1      25.811  25.117  -4.699  0.00  0.00     0.116 C 
BRANCH  16  17
HETATM   17  N   UNK N   1      24.923  25.838  -5.596  0.00  0.00    -0.413 N 
HETATM   18  H   UNK N   1      24.177  25.436  -6.164  0.00  0.00     0.153 HD
BRANCH  17  19
HETATM   19  C   UNK N   1      25.298  27.241  -5.526  0.00  0.00     0.114 C 
HETATM   20  C   UNK N   1      25.629  27.600  -4.082  0.00  0.00     0.056 C 
HETATM   21  C   UNK N   1      26.143  29.035  -4.027  0.00  0.00     0.178 C 
HETATM   22  O   UNK N   1      27.234  29.213  -4.865  0.00  0.00    -0.349 OA
HETATM   23  C   UNK N   1      27.390  28.551  -6.042  0.00  0.00     0.094 A 
HETATM   24  C   UNK N   1      26.471  27.554  -6.426  0.00  0.00     0.000 A 
HETATM   25  C   UNK N   1      28.473  28.858  -6.883  0.00  0.00     0.046 A 
HETATM   26  C   UNK N   1      26.644  26.888  -7.645  0.00  0.00     0.031 A 
HETATM   27  C   UNK N   1      27.723  27.190  -8.472  0.00  0.00     0.013 A 
HETATM   28  C   UNK N   1      28.636  28.175  -8.093  0.00  0.00     0.041 A 
HETATM   29 Br   UNK N   1      27.947  26.253 -10.116  0.00  0.00    -0.051 Br
HETATM   30 Br   UNK N   1      29.730  30.212  -6.403  0.00  0.00    -0.048 Br
ENDBRANCH  17  19
ENDBRANCH  16  17
ENDBRANCH   1  16
TORSDOF 6
ENDMDL
MODEL 6
REMARK VINA RESULT:      -7.0      1.812      2.844
REMARK  6 active torsions:
REMARK  status: ('A' for Active; 'I' for Inactive)
REMARK    1  A    between atoms: C_7  and  N_11 
REMARK    2  A    between atoms: N_11  and  C_12 
REMARK    3  A    between atoms: C_12  and  C_13 
REMARK    4  A    between atoms: C_13  and  C_14 
REMARK    5  A    between atoms: C_14  and  N_15 
REMARK    6  A    between atoms: C_16  and  N_15 
ROOT
HETATM    1  C   UNK N   1      26.901  16.035   4.667  0.00  0.00     0.039 C 
ENDROOT
BRANCH   1   2
HETATM    2  C   UNK N   1      25.968  16.740   3.716  0.00  0.00     0.123 C 
BRANCH   2   3
HETATM    3  N   UNK N   1      25.508  17.978   4.288  0.00  0.00    -0.376 N 
HETATM    4  H   UNK N   1      26.076  18.463   4.928  0.00  0.00     0.161 HD
BRANCH   3   5
HETATM    5  C   UNK N   1      24.246  18.501   3.933  0.00  0.00     0.105 A 
HETATM    6  N   UNK N   1      23.154  17.684   3.979  0.00  0.00    -0.341 N 
HETATM    7  C   UNK N   1      21.942  18.145   3.578  0.00  0.00     0.055 A 
HETATM    8  H   UNK N   1      23.245  16.759   4.303  0.00  0.00     0.167 HD
HETATM    9  C   UNK N   1      21.791  19.447   3.137  0.00  0.00     0.081 A 
HETATM   10  C   UNK N   1      20.754  17.373   3.554  0.00  0.00     0.038 A 
HETATM   11  S   UNK N   1      20.204  19.639   2.730  0.00  0.00    -0.096 SA
HETATM   12  C   UNK N   1      22.866  20.324   3.091  0.00  0.00     0.194 A 
HETATM   13  C   UNK N   1      19.644  18.102   3.080  0.00  0.00     0.053 A 
HETATM   14  C   UNK N   1      24.120  19.839   3.486  0.00  0.00     0.104 A 
HETATM   15  O   UNK N   1      22.732  21.473   2.709  0.00  0.00    -0.287 OA
ENDBRANCH   3   5
ENDBRANCH   2   3
ENDBRANCH   1   2
BRANCH   1  16
HETATM   16  C   UNK N   1      27.647  17.065   5.489  0.00  0.00     0.116 C 
BRANCH  16  17
HETATM   17  N   UNK N   1      28.624  16.395   6.330  0.00  0.00    -0.413 N 
HETATM   18  H   UNK N   1      28.731  15.388   6.451  0.00  0.00     0.153 HD
BRANCH  17  19
HETATM   19  C   UNK N   1      29.419  17.432   6.966  0.00  0.00     0.114 C 
HETATM   20  C   UNK N   1      29.300  17.299   8.480  0.00  0.00     0.056 C 
HETATM   21  C   UNK N   1      30.232  18.305   9.147  0.00  0.00     0.178 C 
HETATM   22  O   UNK N   1      31.541  18.143   8.718  0.00  0.00    -0.349 OA
HETATM   23  C   UNK N   1      31.873  17.740   7.463  0.00  0.00     0.094 A 
HETATM   24  C   UNK N   1      30.870  17.364   6.547  0.00  0.00     0.000 A 
HETATM   25  C   UNK N   1      33.221  17.694   7.072  0.00  0.00     0.046 A 
HETATM   26  C   UNK N   1      31.230  16.958   5.257  0.00  0.00     0.031 A 
HETATM   27  C   UNK N   1      32.569  16.907   4.877  0.00  0.00     0.013 A 
HETATM   28  C   UNK N   1      33.564  17.277   5.782  0.00  0.00     0.041 A 
HETATM   29 Br   UNK N   1      33.033  16.330   3.121  0.00  0.00    -0.051 Br
HETATM   30 Br   UNK N   1      34.606  18.210   8.281  0.00  0.00    -0.048 Br
ENDBRANCH  17  19
ENDBRANCH  16  17
ENDBRANCH   1  16
TORSDOF 6
ENDMDL
MODEL 7
REMARK VINA RESULT:      -7.0      7.622     12.281
REMARK  6 active torsions:
REMARK  status: ('A' for Active; 'I' for Inactive)
REMARK    1  A    between atoms: C_7  and  N_11 
REMARK    2  A    between atoms: N_11  and  C_12 
REMARK    3  A    between atoms: C_12  and  C_13 
REMARK    4  A    between atoms: C_13  and  C_14 
REMARK    5  A    between atoms: C_14  and  N_15 
REMARK    6  A    between atoms: C_16  and  N_15 
ROOT
HETATM    1  C   UNK N   1      34.343  15.166  10.547  0.00  0.00     0.039 C 
ENDROOT
BRANCH   1   2
HETATM    2  C   UNK N   1      35.843  15.291  10.619  0.00  0.00     0.123 C 
BRANCH   2   3
HETATM    3  N   UNK N   1      36.281  15.300  11.991  0.00  0.00    -0.376 N 
HETATM    4  H   UNK N   1      36.524  16.150  12.422  0.00  0.00     0.161 HD
BRANCH   3   5
HETATM    5  C   UNK N   1      36.362  14.094  12.720  0.00  0.00     0.105 A 
HETATM    6  N   UNK N   1      35.877  14.057  13.994  0.00  0.00    -0.341 N 
HETATM    7  C   UNK N   1      36.004  12.929  14.739  0.00  0.00     0.055 A 
HETATM    8  H   UNK N   1      35.434  14.849  14.375  0.00  0.00     0.167 HD
HETATM    9  C   UNK N   1      36.607  11.800  14.214  0.00  0.00     0.081 A 
HETATM   10  C   UNK N   1      35.567  12.794  16.080  0.00  0.00     0.038 A 
HETATM   11  S   UNK N   1      36.591  10.650  15.396  0.00  0.00    -0.096 SA
HETATM   12  C   UNK N   1      37.098  11.780  12.916  0.00  0.00     0.194 A 
HETATM   13  C   UNK N   1      35.839  11.518  16.613  0.00  0.00     0.053 A 
HETATM   14  C   UNK N   1      36.984  12.952  12.157  0.00  0.00     0.104 A 
HETATM   15  O   UNK N   1      37.623  10.783  12.452  0.00  0.00    -0.287 OA
ENDBRANCH   3   5
ENDBRANCH   2   3
ENDBRANCH   1   2
BRANCH   1  16
HETATM   16  C   UNK N   1      33.871  15.611   9.178  0.00  0.00     0.116 C 
BRANCH  16  17
HETATM   17  N   UNK N   1      33.427  16.993   9.247  0.00  0.00    -0.413 N 
HETATM   18  H   UNK N   1      33.279  17.541  10.095  0.00  0.00     0.153 HD
BRANCH  17  19
HETATM   19  C   UNK N   1      33.236  17.446   7.879  0.00  0.00     0.114 C 
HETATM   20  C   UNK N   1      34.132  16.632   6.952  0.00  0.00     0.056 C 
HETATM   21  C   UNK N   1      33.840  17.020   5.506  0.00  0.00     0.178 C 
HETATM   22  O   UNK N   1      32.498  16.855   5.199  0.00  0.00    -0.349 OA
HETATM   23  C   UNK N   1      31.496  17.046   6.098  0.00  0.00     0.094 A 
HETATM   24  C   UNK N   1      31.792  17.332   7.445  0.00  0.00     0.000 A 
HETATM   25  C   UNK N   1      30.155  16.956   5.687  0.00  0.00     0.046 A 
HETATM   26  C   UNK N   1      30.748  17.532   8.356  0.00  0.00     0.031 A 
HETATM   27  C   UNK N   1      29.421  17.435   7.945  0.00  0.00     0.013 A 
HETATM   28  C   UNK N   1      29.124  17.149   6.612  0.00  0.00     0.041 A 
HETATM   29 Br   UNK N   1      28.017  17.690   9.209  0.00  0.00    -0.051 Br
HETATM   30 Br   UNK N   1      29.715  16.583   3.867  0.00  0.00    -0.048 Br
ENDBRANCH  17  19
ENDBRANCH  16  17
ENDBRANCH   1  16
TORSDOF 6
ENDMDL
MODEL 8
REMARK VINA RESULT:      -6.9      6.859      9.618
REMARK  6 active torsions:
REMARK  status: ('A' for Active; 'I' for Inactive)
REMARK    1  A    between atoms: C_7  and  N_11 
REMARK    2  A    between atoms: N_11  and  C_12 
REMARK    3  A    between atoms: C_12  and  C_13 
REMARK    4  A    between atoms: C_13  and  C_14 
REMARK    5  A    between atoms: C_14  and  N_15 
REMARK    6  A    between atoms: C_16  and  N_15 
ROOT
HETATM    1  C   UNK N   1      35.331  15.429   9.141  0.00  0.00     0.039 C 
ENDROOT
BRANCH   1   2
HETATM    2  C   UNK N   1      34.612  16.652   9.650  0.00  0.00     0.123 C 
BRANCH   2   3
HETATM    3  N   UNK N   1      34.165  17.468   8.551  0.00  0.00    -0.376 N 
HETATM    4  H   UNK N   1      34.812  18.017   8.054  0.00  0.00     0.161 HD
BRANCH   3   5
HETATM    5  C   UNK N   1      32.802  17.481   8.183  0.00  0.00     0.105 A 
HETATM    6  N   UNK N   1      31.878  17.926   9.082  0.00  0.00    -0.341 N 
HETATM    7  C   UNK N   1      30.556  17.886   8.775  0.00  0.00     0.055 A 
HETATM    8  H   UNK N   1      32.169  18.277   9.954  0.00  0.00     0.167 HD
HETATM    9  C   UNK N   1      30.129  17.414   7.547  0.00  0.00     0.081 A 
HETATM   10  C   UNK N   1      29.514  18.290   9.646  0.00  0.00     0.038 A 
HETATM   11  S   UNK N   1      28.482  17.504   7.540  0.00  0.00    -0.096 SA
HETATM   12  C   UNK N   1      31.031  16.970   6.590  0.00  0.00     0.194 A 
HETATM   13  C   UNK N   1      28.237  18.128   9.073  0.00  0.00     0.053 A 
HETATM   14  C   UNK N   1      32.394  16.993   6.917  0.00  0.00     0.104 A 
HETATM   15  O   UNK N   1      30.655  16.560   5.506  0.00  0.00    -0.287 OA
ENDBRANCH   3   5
ENDBRANCH   2   3
ENDBRANCH   1   2
BRANCH   1  16
HETATM   16  C   UNK N   1      34.747  14.197   9.800  0.00  0.00     0.116 C 
BRANCH  16  17
HETATM   17  N   UNK N   1      35.616  13.774  10.885  0.00  0.00    -0.413 N 
HETATM   18  H   UNK N   1      36.589  14.046  11.026  0.00  0.00     0.153 HD
BRANCH  17  19
HETATM   19  C   UNK N   1      34.834  12.889  11.734  0.00  0.00     0.114 C 
HETATM   20  C   UNK N   1      34.816  11.493  11.122  0.00  0.00     0.056 C 
HETATM   21  C   UNK N   1      34.104  10.537  12.073  0.00  0.00     0.178 C 
HETATM   22  O   UNK N   1      34.694  10.541  13.328  0.00  0.00    -0.349 OA
HETATM   23  C   UNK N   1      35.268  11.642  13.882  0.00  0.00     0.094 A 
HETATM   24  C   UNK N   1      35.379  12.836  13.143  0.00  0.00     0.000 A 
HETATM   25  C   UNK N   1      35.758  11.593  15.198  0.00  0.00     0.046 A 
HETATM   26  C   UNK N   1      35.967  13.962  13.732  0.00  0.00     0.031 A 
HETATM   27  C   UNK N   1      36.457  13.906  15.034  0.00  0.00     0.013 A 
HETATM   28  C   UNK N   1      36.352  12.724  15.768  0.00  0.00     0.041 A 
HETATM   29 Br   UNK N   1      37.273  15.446  15.805  0.00  0.00    -0.051 Br
HETATM   30 Br   UNK N   1      35.613   9.996  16.235  0.00  0.00    -0.048 Br
ENDBRANCH  17  19
ENDBRANCH  16  17
ENDBRANCH   1  16
TORSDOF 6
ENDMDL
MODEL 9
REMARK VINA RESULT:      -6.9      5.548      8.392
REMARK  6 active torsions:
REMARK  status: ('A' for Active; 'I' for Inactive)
REMARK    1  A    between atoms: C_7  and  N_11 
REMARK    2  A    between atoms: N_11  and  C_12 
REMARK    3  A    between atoms: C_12  and  C_13 
REMARK    4  A    between atoms: C_13  and  C_14 
REMARK    5  A    between atoms: C_14  and  N_15 
REMARK    6  A    between atoms: C_16  and  N_15 
ROOT
HETATM    1  C   UNK N   1      25.937  15.549   4.724  0.00  0.00     0.039 C 
ENDROOT
BRANCH   1   2
HETATM    2  C   UNK N   1      25.908  15.492   6.230  0.00  0.00     0.123 C 
BRANCH   2   3
HETATM    3  N   UNK N   1      25.766  14.131   6.679  0.00  0.00    -0.376 N 
HETATM    4  H   UNK N   1      26.364  13.434   6.327  0.00  0.00     0.161 HD
BRANCH   3   5
HETATM    5  C   UNK N   1      24.774  13.794   7.625  0.00  0.00     0.105 A 
HETATM    6  N   UNK N   1      25.152  13.227   8.807  0.00  0.00    -0.341 N 
HETATM    7  C   UNK N   1      24.212  12.832   9.703  0.00  0.00     0.055 A 
HETATM    8  H   UNK N   1      26.107  13.103   9.010  0.00  0.00     0.167 HD
HETATM    9  C   UNK N   1      22.866  13.014   9.443  0.00  0.00     0.081 A 
HETATM   10  C   UNK N   1      24.493  12.204  10.942  0.00  0.00     0.038 A 
HETATM   11  S   UNK N   1      22.037  12.411  10.735  0.00  0.00    -0.096 SA
HETATM   12  C   UNK N   1      22.431  13.605   8.265  0.00  0.00     0.194 A 
HETATM   13  C   UNK N   1      23.326  11.890  11.667  0.00  0.00     0.053 A 
HETATM   14  C   UNK N   1      23.403  13.993   7.332  0.00  0.00     0.104 A 
HETATM   15  O   UNK N   1      21.246  13.771   8.038  0.00  0.00    -0.287 OA
ENDBRANCH   3   5
ENDBRANCH   2   3
ENDBRANCH   1   2
BRANCH   1  16
HETATM   16  C   UNK N   1      26.197  16.975   4.284  0.00  0.00     0.116 C 
BRANCH  16  17
HETATM   17  N   UNK N   1      25.923  17.877   5.389  0.00  0.00    -0.413 N 
HETATM   18  H   UNK N   1      26.111  17.703   6.376  0.00  0.00     0.153 HD
BRANCH  17  19
HETATM   19  C   UNK N   1      25.331  19.077   4.819  0.00  0.00     0.114 C 
HETATM   20  C   UNK N   1      26.044  19.418   3.516  0.00  0.00     0.056 C 
HETATM   21  C   UNK N   1      25.342  20.600   2.855  0.00  0.00     0.178 C 
HETATM   22  O   UNK N   1      23.996  20.340   2.652  0.00  0.00    -0.349 OA
HETATM   23  C   UNK N   1      23.247  19.573   3.488  0.00  0.00     0.094 A 
HETATM   24  C   UNK N   1      23.848  18.911   4.577  0.00  0.00     0.000 A 
HETATM   25  C   UNK N   1      21.866  19.435   3.268  0.00  0.00     0.046 A 
HETATM   26  C   UNK N   1      23.060  18.131   5.432  0.00  0.00     0.031 A 
HETATM   27  C   UNK N   1      21.693  17.992   5.206  0.00  0.00     0.013 A 
HETATM   28  C   UNK N   1      21.096  18.644   4.127  0.00  0.00     0.041 A 
HETATM   29 Br   UNK N   1      20.646  16.907   6.372  0.00  0.00    -0.051 Br
HETATM   30 Br   UNK N   1      21.015  20.329   1.812  0.00  0.00    -0.048 Br
ENDBRANCH  17  19
ENDBRANCH  16  17
ENDBRANCH   1  16
TORSDOF 6
ENDMDL
