MODEL 1
REMARK VINA RESULT:      -5.8      0.000      0.000
REMARK  15 active torsions:
REMARK  status: ('A' for Active; 'I' for Inactive)
REMARK    1  A    between atoms: C_2  and  C_1 
REMARK    2  A    between atoms: C_6  and  C_1 
REMARK    3  A    between atoms: C_7  and  C_2 
REMARK    4  A    between atoms: C_14  and  C_6 
REMARK    5  A    between atoms: C_15  and  C_7 
REMARK    6  A    between atoms: C_16  and  C_12 
REMARK    7  A    between atoms: C_19  and  C_12 
REMARK    8  A    between atoms: C_17  and  C_13 
REMARK    9  A    between atoms: C_20  and  C_13 
REMARK   10  A    between atoms: N_23  and  C_14 
REMARK   11  A    between atoms: N_24  and  C_15 
REMARK   12  A    between atoms: N_23  and  C_16 
REMARK   13  A    between atoms: N_24  and  C_17 
REMARK   14  A    between atoms: O_25  and  C_21 
REMARK   15  A    between atoms: O_26  and  C_22 
ROOT
HETATM    1  C   UNK N   1      29.315  26.901  -6.372  0.00  0.00     0.019 C 
ENDROOT
BRANCH   1   2
HETATM    2  C   UNK N   1      28.885  27.958  -5.369  0.00  0.00     0.002 C 
BRANCH   2   3
HETATM    3  C   UNK N   1      28.146  29.077  -6.070  0.00  0.00     0.002 C 
BRANCH   3   4
HETATM    4  C   UNK N   1      27.551  30.013  -5.033  0.00  0.00     0.019 C 
BRANCH   4   5
HETATM    5  C   UNK N   1      27.339  29.283  -3.721  0.00  0.00     0.113 C 
BRANCH   5   6
HETATM    6  N   UNK N   1      25.920  29.100  -3.473  0.00  0.00    -0.421 N 
HETATM    7  H   UNK N   1      25.251  29.819  -3.194  0.00  0.00     0.153 HD
BRANCH   6   8
HETATM    8  C   UNK N   1      25.641  27.695  -3.696  0.00  0.00     0.118 C 
BRANCH   8   9
HETATM    9  C   UNK N   1      24.941  27.519  -5.035  0.00  0.00     0.057 C 
BRANCH   9  10
HETATM   10  C   UNK N   1      25.387  26.297  -5.784  0.00  0.00    -0.057 A 
HETATM   11  C   UNK N   1      25.474  25.038  -5.165  0.00  0.00     0.007 A 
HETATM   12  C   UNK N   1      25.900  23.924  -5.893  0.00  0.00     0.001 A 
HETATM   13  C   UNK N   1      26.242  24.058  -7.240  0.00  0.00     0.000 A 
HETATM   14  C   UNK N   1      26.158  25.308  -7.861  0.00  0.00     0.001 A 
HETATM   15  C   UNK N   1      25.732  26.424  -7.133  0.00  0.00     0.007 A 
ENDBRANCH   9  10
ENDBRANCH   8   9
ENDBRANCH   6   8
ENDBRANCH   5   6
ENDBRANCH   4   5
ENDBRANCH   3   4
ENDBRANCH   2   3
ENDBRANCH   1   2
BRANCH   1  16
HETATM   16  C   UNK N   1      29.383  25.532  -5.717  0.00  0.00     0.113 C 
BRANCH  16  17
HETATM   17  N   UNK N   1      28.947  25.593  -4.326  0.00  0.00    -0.421 N 
HETATM   18  H   UNK N   1      28.638  26.429  -3.829  0.00  0.00     0.153 HD
BRANCH  17  19
HETATM   19  C   UNK N   1      29.031  24.247  -3.771  0.00  0.00     0.118 C 
BRANCH  19  20
HETATM   20  C   UNK N   1      29.123  23.227  -4.897  0.00  0.00     0.058 C 
BRANCH  20  21
HETATM   21  C   UNK N   1      30.133  22.167  -4.616  0.00  0.00    -0.054 A 
HETATM   22  C   UNK N   1      30.361  21.169  -5.567  0.00  0.00     0.010 A 
HETATM   23  C   UNK N   1      31.348  20.204  -5.347  0.00  0.00     0.040 A 
HETATM   24  C   UNK N   1      32.112  20.236  -4.177  0.00  0.00     0.098 A 
HETATM   25  C   UNK N   1      31.883  21.232  -3.218  0.00  0.00     0.099 A 
HETATM   26  C   UNK N   1      30.898  22.200  -3.442  0.00  0.00     0.046 A 
BRANCH  24  27
HETATM   27  O   UNK N   1      33.066  19.309  -3.980  0.00  0.00    -0.358 OA
HETATM   28  H   UNK N   1      33.959  19.496  -4.197  0.00  0.00     0.217 HD
ENDBRANCH  24  27
BRANCH  25  29
HETATM   29  O   UNK N   1      32.609  21.268  -2.089  0.00  0.00    -0.358 OA
HETATM   30  H   UNK N   1      32.180  21.305  -1.257  0.00  0.00     0.217 HD
ENDBRANCH  25  29
ENDBRANCH  20  21
ENDBRANCH  19  20
ENDBRANCH  17  19
ENDBRANCH  16  17
ENDBRANCH   1  16
TORSDOF 15
ENDMDL
MODEL 2
REMARK VINA RESULT:      -5.5      1.600      2.292
REMARK  15 active torsions:
REMARK  status: ('A' for Active; 'I' for Inactive)
REMARK    1  A    between atoms: C_2  and  C_1 
REMARK    2  A    between atoms: C_6  and  C_1 
REMARK    3  A    between atoms: C_7  and  C_2 
REMARK    4  A    between atoms: C_14  and  C_6 
REMARK    5  A    between atoms: C_15  and  C_7 
REMARK    6  A    between atoms: C_16  and  C_12 
REMARK    7  A    between atoms: C_19  and  C_12 
REMARK    8  A    between atoms: C_17  and  C_13 
REMARK    9  A    between atoms: C_20  and  C_13 
REMARK   10  A    between atoms: N_23  and  C_14 
REMARK   11  A    between atoms: N_24  and  C_15 
REMARK   12  A    between atoms: N_23  and  C_16 
REMARK   13  A    between atoms: N_24  and  C_17 
REMARK   14  A    between atoms: O_25  and  C_21 
REMARK   15  A    between atoms: O_26  and  C_22 
ROOT
HETATM    1  C   UNK N   1      28.190  26.217  -7.484  0.00  0.00     0.019 C 
ENDROOT
BRANCH   1   2
HETATM    2  C   UNK N   1      28.838  27.564  -7.759  0.00  0.00     0.002 C 
BRANCH   2   3
HETATM    3  C   UNK N   1      28.036  28.673  -7.113  0.00  0.00     0.002 C 
BRANCH   3   4
HETATM    4  C   UNK N   1      28.941  29.864  -6.858  0.00  0.00     0.019 C 
BRANCH   4   5
HETATM    5  C   UNK N   1      29.038  30.147  -5.372  0.00  0.00     0.113 C 
BRANCH   5   6
HETATM    6  N   UNK N   1      27.727  30.471  -4.837  0.00  0.00    -0.421 N 
HETATM    7  H   UNK N   1      27.062  31.145  -5.218  0.00  0.00     0.153 HD
BRANCH   6   8
HETATM    8  C   UNK N   1      27.550  29.649  -3.656  0.00  0.00     0.118 C 
BRANCH   8   9
HETATM    9  C   UNK N   1      26.126  29.118  -3.611  0.00  0.00     0.057 C 
BRANCH   9  10
HETATM   10  C   UNK N   1      26.001  27.705  -4.102  0.00  0.00    -0.057 A 
HETATM   11  C   UNK N   1      26.702  26.646  -3.500  0.00  0.00     0.007 A 
HETATM   12  C   UNK N   1      26.567  25.343  -3.989  0.00  0.00     0.001 A 
HETATM   13  C   UNK N   1      25.733  25.091  -5.081  0.00  0.00     0.000 A 
HETATM   14  C   UNK N   1      25.034  26.141  -5.684  0.00  0.00     0.001 A 
HETATM   15  C   UNK N   1      25.170  27.444  -5.195  0.00  0.00     0.007 A 
ENDBRANCH   9  10
ENDBRANCH   8   9
ENDBRANCH   6   8
ENDBRANCH   5   6
ENDBRANCH   4   5
ENDBRANCH   3   4
ENDBRANCH   2   3
ENDBRANCH   1   2
BRANCH   1  16
HETATM   16  C   UNK N   1      28.654  25.180  -8.493  0.00  0.00     0.113 C 
BRANCH  16  17
HETATM   17  N   UNK N   1      29.510  24.180  -7.863  0.00  0.00    -0.421 N 
HETATM   18  H   UNK N   1      30.337  23.750  -8.279  0.00  0.00     0.153 HD
BRANCH  17  19
HETATM   19  C   UNK N   1      28.974  23.906  -6.535  0.00  0.00     0.118 C 
BRANCH  19  20
HETATM   20  C   UNK N   1      28.994  22.408  -6.268  0.00  0.00     0.058 C 
BRANCH  20  21
HETATM   21  C   UNK N   1      29.880  22.051  -5.123  0.00  0.00    -0.054 A 
HETATM   22  C   UNK N   1      30.811  21.019  -5.273  0.00  0.00     0.010 A 
HETATM   23  C   UNK N   1      31.692  20.714  -4.231  0.00  0.00     0.040 A 
HETATM   24  C   UNK N   1      31.647  21.440  -3.039  0.00  0.00     0.098 A 
HETATM   25  C   UNK N   1      30.712  22.472  -2.882  0.00  0.00     0.099 A 
HETATM   26  C   UNK N   1      29.834  22.781  -3.927  0.00  0.00     0.046 A 
BRANCH  24  27
HETATM   27  O   UNK N   1      32.506  21.146  -2.047  0.00  0.00    -0.358 OA
HETATM   28  H   UNK N   1      33.083  20.412  -2.124  0.00  0.00     0.217 HD
ENDBRANCH  24  27
BRANCH  25  29
HETATM   29  O   UNK N   1      30.658  23.174  -1.738  0.00  0.00    -0.358 OA
HETATM   30  H   UNK N   1      31.449  23.406  -1.293  0.00  0.00     0.217 HD
ENDBRANCH  25  29
ENDBRANCH  20  21
ENDBRANCH  19  20
ENDBRANCH  17  19
ENDBRANCH  16  17
ENDBRANCH   1  16
TORSDOF 15
ENDMDL
MODEL 3
REMARK VINA RESULT:      -5.4      2.515      4.241
REMARK  15 active torsions:
REMARK  status: ('A' for Active; 'I' for Inactive)
REMARK    1  A    between atoms: C_2  and  C_1 
REMARK    2  A    between atoms: C_6  and  C_1 
REMARK    3  A    between atoms: C_7  and  C_2 
REMARK    4  A    between atoms: C_14  and  C_6 
REMARK    5  A    between atoms: C_15  and  C_7 
REMARK    6  A    between atoms: C_16  and  C_12 
REMARK    7  A    between atoms: C_19  and  C_12 
REMARK    8  A    between atoms: C_17  and  C_13 
REMARK    9  A    between atoms: C_20  and  C_13 
REMARK   10  A    between atoms: N_23  and  C_14 
REMARK   11  A    between atoms: N_24  and  C_15 
REMARK   12  A    between atoms: N_23  and  C_16 
REMARK   13  A    between atoms: N_24  and  C_17 
REMARK   14  A    between atoms: O_25  and  C_21 
REMARK   15  A    between atoms: O_26  and  C_22 
ROOT
HETATM    1  C   UNK N   1      29.705  25.773  -3.885  0.00  0.00     0.019 C 
ENDROOT
BRANCH   1   2
HETATM    2  C   UNK N   1      28.464  25.211  -4.558  0.00  0.00     0.002 C 
BRANCH   2   3
HETATM    3  C   UNK N   1      27.467  24.750  -3.518  0.00  0.00     0.002 C 
BRANCH   3   4
HETATM    4  C   UNK N   1      26.241  24.186  -4.213  0.00  0.00     0.019 C 
BRANCH   4   5
HETATM    5  C   UNK N   1      26.472  24.101  -5.709  0.00  0.00     0.113 C 
BRANCH   5   6
HETATM    6  N   UNK N   1      25.298  24.567  -6.425  0.00  0.00    -0.421 N 
HETATM    7  H   UNK N   1      24.415  24.068  -6.540  0.00  0.00     0.153 HD
BRANCH   6   8
HETATM    8  C   UNK N   1      25.628  25.880  -6.946  0.00  0.00     0.118 C 
BRANCH   8   9
HETATM    9  C   UNK N   1      24.974  26.950  -6.086  0.00  0.00     0.057 C 
BRANCH   9  10
HETATM   10  C   UNK N   1      25.961  27.812  -5.354  0.00  0.00    -0.057 A 
HETATM   11  C   UNK N   1      27.097  28.343  -5.990  0.00  0.00     0.007 A 
HETATM   12  C   UNK N   1      27.998  29.136  -5.274  0.00  0.00     0.001 A 
HETATM   13  C   UNK N   1      27.773  29.403  -3.922  0.00  0.00     0.000 A 
HETATM   14  C   UNK N   1      26.645  28.876  -3.284  0.00  0.00     0.001 A 
HETATM   15  C   UNK N   1      25.743  28.083  -4.000  0.00  0.00     0.007 A 
ENDBRANCH   9  10
ENDBRANCH   8   9
ENDBRANCH   6   8
ENDBRANCH   5   6
ENDBRANCH   4   5
ENDBRANCH   3   4
ENDBRANCH   2   3
ENDBRANCH   1   2
BRANCH   1  16
HETATM   16  C   UNK N   1      30.870  24.804  -4.006  0.00  0.00     0.113 C 
BRANCH  16  17
HETATM   17  N   UNK N   1      30.898  23.874  -2.881  0.00  0.00    -0.421 N 
HETATM   18  H   UNK N   1      30.605  24.078  -1.925  0.00  0.00     0.153 HD
BRANCH  17  19
HETATM   19  C   UNK N   1      31.421  22.602  -3.366  0.00  0.00     0.118 C 
BRANCH  19  20
HETATM   20  C   UNK N   1      30.271  21.664  -3.704  0.00  0.00     0.058 C 
BRANCH  20  21
HETATM   21  C   UNK N   1      30.244  21.305  -5.151  0.00  0.00    -0.054 A 
HETATM   22  C   UNK N   1      31.094  20.301  -5.623  0.00  0.00     0.010 A 
HETATM   23  C   UNK N   1      31.037  19.908  -6.964  0.00  0.00     0.040 A 
HETATM   24  C   UNK N   1      30.128  20.516  -7.835  0.00  0.00     0.098 A 
HETATM   25  C   UNK N   1      29.278  21.527  -7.367  0.00  0.00     0.099 A 
HETATM   26  C   UNK N   1      29.333  21.916  -6.024  0.00  0.00     0.046 A 
BRANCH  24  27
HETATM   27  O   UNK N   1      30.074  20.123  -9.119  0.00  0.00    -0.358 OA
HETATM   28  H   UNK N   1      29.356  19.606  -9.426  0.00  0.00     0.217 HD
ENDBRANCH  24  27
BRANCH  25  29
HETATM   29  O   UNK N   1      28.405  22.120  -8.197  0.00  0.00    -0.358 OA
HETATM   30  H   UNK N   1      28.024  22.944  -7.966  0.00  0.00     0.217 HD
ENDBRANCH  25  29
ENDBRANCH  20  21
ENDBRANCH  19  20
ENDBRANCH  17  19
ENDBRANCH  16  17
ENDBRANCH   1  16
TORSDOF 15
ENDMDL
MODEL 4
REMARK VINA RESULT:      -5.4     13.805     16.614
REMARK  15 active torsions:
REMARK  status: ('A' for Active; 'I' for Inactive)
REMARK    1  A    between atoms: C_2  and  C_1 
REMARK    2  A    between atoms: C_6  and  C_1 
REMARK    3  A    between atoms: C_7  and  C_2 
REMARK    4  A    between atoms: C_14  and  C_6 
REMARK    5  A    between atoms: C_15  and  C_7 
REMARK    6  A    between atoms: C_16  and  C_12 
REMARK    7  A    between atoms: C_19  and  C_12 
REMARK    8  A    between atoms: C_17  and  C_13 
REMARK    9  A    between atoms: C_20  and  C_13 
REMARK   10  A    between atoms: N_23  and  C_14 
REMARK   11  A    between atoms: N_24  and  C_15 
REMARK   12  A    between atoms: N_23  and  C_16 
REMARK   13  A    between atoms: N_24  and  C_17 
REMARK   14  A    between atoms: O_25  and  C_21 
REMARK   15  A    between atoms: O_26  and  C_22 
ROOT
HETATM    1  C   UNK N   1      27.520  16.373   5.474  0.00  0.00     0.019 C 
ENDROOT
BRANCH   1   2
HETATM    2  C   UNK N   1      28.144  17.230   4.385  0.00  0.00     0.002 C 
BRANCH   2   3
HETATM    3  C   UNK N   1      28.350  18.644   4.884  0.00  0.00     0.002 C 
BRANCH   3   4
HETATM    4  C   UNK N   1      27.246  18.996   5.865  0.00  0.00     0.019 C 
BRANCH   4   5
HETATM    5  C   UNK N   1      27.826  19.657   7.100  0.00  0.00     0.113 C 
BRANCH   5   6
HETATM    6  N   UNK N   1      27.815  18.729   8.217  0.00  0.00    -0.421 N 
HETATM    7  H   UNK N   1      27.006  18.233   8.590  0.00  0.00     0.153 HD
BRANCH   6   8
HETATM    8  C   UNK N   1      29.181  18.649   8.699  0.00  0.00     0.118 C 
BRANCH   8   9
HETATM    9  C   UNK N   1      29.777  17.302   8.324  0.00  0.00     0.057 C 
BRANCH   9  10
HETATM   10  C   UNK N   1      31.120  17.408   7.662  0.00  0.00    -0.057 A 
HETATM   11  C   UNK N   1      31.321  17.022   6.326  0.00  0.00     0.007 A 
HETATM   12  C   UNK N   1      32.589  17.129   5.745  0.00  0.00     0.001 A 
HETATM   13  C   UNK N   1      33.660  17.620   6.493  0.00  0.00     0.000 A 
HETATM   14  C   UNK N   1      33.466  18.006   7.823  0.00  0.00     0.001 A 
HETATM   15  C   UNK N   1      32.198  17.899   8.405  0.00  0.00     0.007 A 
ENDBRANCH   9  10
ENDBRANCH   8   9
ENDBRANCH   6   8
ENDBRANCH   5   6
ENDBRANCH   4   5
ENDBRANCH   3   4
ENDBRANCH   2   3
ENDBRANCH   1   2
BRANCH   1  16
HETATM   16  C   UNK N   1      26.530  15.385   4.880  0.00  0.00     0.113 C 
BRANCH  16  17
HETATM   17  N   UNK N   1      25.194  15.584   5.434  0.00  0.00    -0.421 N 
HETATM   18  H   UNK N   1      24.387  15.962   4.935  0.00  0.00     0.153 HD
BRANCH  17  19
HETATM   19  C   UNK N   1      25.217  15.149   6.825  0.00  0.00     0.118 C 
BRANCH  19  20
HETATM   20  C   UNK N   1      25.387  13.638   6.893  0.00  0.00     0.058 C 
BRANCH  20  21
HETATM   21  C   UNK N   1      24.663  13.041   8.051  0.00  0.00    -0.054 A 
HETATM   22  C   UNK N   1      23.482  12.330   7.829  0.00  0.00     0.010 A 
HETATM   23  C   UNK N   1      22.824  11.711   8.896  0.00  0.00     0.040 A 
HETATM   24  C   UNK N   1      23.347  11.799  10.188  0.00  0.00     0.098 A 
HETATM   25  C   UNK N   1      24.529  12.517  10.418  0.00  0.00     0.099 A 
HETATM   26  C   UNK N   1      25.189  13.132   9.348  0.00  0.00     0.046 A 
BRANCH  24  27
HETATM   27  O   UNK N   1      22.713  11.192  11.206  0.00  0.00    -0.358 OA
HETATM   28  H   UNK N   1      23.055  11.246  12.077  0.00  0.00     0.217 HD
ENDBRANCH  24  27
BRANCH  25  29
HETATM   29  O   UNK N   1      25.037  12.612  11.657  0.00  0.00    -0.358 OA
HETATM   30  H   UNK N   1      25.456  11.871  12.050  0.00  0.00     0.217 HD
ENDBRANCH  25  29
ENDBRANCH  20  21
ENDBRANCH  19  20
ENDBRANCH  17  19
ENDBRANCH  16  17
ENDBRANCH   1  16
TORSDOF 15
ENDMDL
MODEL 5
REMARK VINA RESULT:      -5.3      1.754      2.726
REMARK  15 active torsions:
REMARK  status: ('A' for Active; 'I' for Inactive)
REMARK    1  A    between atoms: C_2  and  C_1 
REMARK    2  A    between atoms: C_6  and  C_1 
REMARK    3  A    between atoms: C_7  and  C_2 
REMARK    4  A    between atoms: C_14  and  C_6 
REMARK    5  A    between atoms: C_15  and  C_7 
REMARK    6  A    between atoms: C_16  and  C_12 
REMARK    7  A    between atoms: C_19  and  C_12 
REMARK    8  A    between atoms: C_17  and  C_13 
REMARK    9  A    between atoms: C_20  and  C_13 
REMARK   10  A    between atoms: N_23  and  C_14 
REMARK   11  A    between atoms: N_24  and  C_15 
REMARK   12  A    between atoms: N_23  and  C_16 
REMARK   13  A    between atoms: N_24  and  C_17 
REMARK   14  A    between atoms: O_25  and  C_21 
REMARK   15  A    between atoms: O_26  and  C_22 
ROOT
HETATM    1  C   UNK N   1      31.296  25.429  -6.556  0.00  0.00     0.019 C 
ENDROOT
BRANCH   1   2
HETATM    2  C   UNK N   1      31.325  26.715  -5.748  0.00  0.00     0.002 C 
BRANCH   2   3
HETATM    3  C   UNK N   1      31.179  26.411  -4.273  0.00  0.00     0.002 C 
BRANCH   3   4
HETATM    4  C   UNK N   1      29.888  27.024  -3.760  0.00  0.00     0.019 C 
BRANCH   4   5
HETATM    5  C   UNK N   1      30.178  28.285  -2.970  0.00  0.00     0.113 C 
BRANCH   5   6
HETATM    6  N   UNK N   1      29.038  29.183  -3.023  0.00  0.00    -0.421 N 
HETATM    7  H   UNK N   1      28.415  29.425  -2.252  0.00  0.00     0.153 HD
BRANCH   6   8
HETATM    8  C   UNK N   1      28.957  29.665  -4.389  0.00  0.00     0.118 C 
BRANCH   8   9
HETATM    9  C   UNK N   1      27.502  29.897  -4.763  0.00  0.00     0.057 C 
BRANCH   9  10
HETATM   10  C   UNK N   1      26.849  28.699  -5.390  0.00  0.00    -0.057 A 
HETATM   11  C   UNK N   1      25.709  28.098  -4.829  0.00  0.00     0.007 A 
HETATM   12  C   UNK N   1      25.133  26.979  -5.437  0.00  0.00     0.001 A 
HETATM   13  C   UNK N   1      25.691  26.454  -6.605  0.00  0.00     0.000 A 
HETATM   14  C   UNK N   1      26.825  27.048  -7.166  0.00  0.00     0.001 A 
HETATM   15  C   UNK N   1      27.402  28.167  -6.558  0.00  0.00     0.007 A 
ENDBRANCH   9  10
ENDBRANCH   8   9
ENDBRANCH   6   8
ENDBRANCH   5   6
ENDBRANCH   4   5
ENDBRANCH   3   4
ENDBRANCH   2   3
ENDBRANCH   1   2
BRANCH   1  16
HETATM   16  C   UNK N   1      30.212  25.485  -7.620  0.00  0.00     0.113 C 
BRANCH  16  17
HETATM   17  N   UNK N   1      29.412  24.265  -7.619  0.00  0.00    -0.421 N 
HETATM   18  H   UNK N   1      29.287  23.627  -8.406  0.00  0.00     0.153 HD
BRANCH  17  19
HETATM   19  C   UNK N   1      28.821  24.119  -6.294  0.00  0.00     0.118 C 
BRANCH  19  20
HETATM   20  C   UNK N   1      28.726  22.645  -5.928  0.00  0.00     0.058 C 
BRANCH  20  21
HETATM   21  C   UNK N   1      29.714  22.259  -4.880  0.00  0.00    -0.054 A 
HETATM   22  C   UNK N   1      30.749  21.379  -5.205  0.00  0.00     0.010 A 
HETATM   23  C   UNK N   1      31.719  21.055  -4.252  0.00  0.00     0.040 A 
HETATM   24  C   UNK N   1      31.659  21.614  -2.972  0.00  0.00     0.098 A 
HETATM   25  C   UNK N   1      30.619  22.493  -2.640  0.00  0.00     0.099 A 
HETATM   26  C   UNK N   1      29.651  22.819  -3.596  0.00  0.00     0.046 A 
BRANCH  24  27
HETATM   27  O   UNK N   1      32.603  21.305  -2.067  0.00  0.00    -0.358 OA
HETATM   28  H   UNK N   1      32.521  20.531  -1.543  0.00  0.00     0.217 HD
ENDBRANCH  24  27
BRANCH  25  29
HETATM   29  O   UNK N   1      30.550  23.031  -1.411  0.00  0.00    -0.358 OA
HETATM   30  H   UNK N   1      30.811  23.920  -1.274  0.00  0.00     0.217 HD
ENDBRANCH  25  29
ENDBRANCH  20  21
ENDBRANCH  19  20
ENDBRANCH  17  19
ENDBRANCH  16  17
ENDBRANCH   1  16
TORSDOF 15
ENDMDL
MODEL 6
REMARK VINA RESULT:      -5.3     17.921     21.410
REMARK  15 active torsions:
REMARK  status: ('A' for Active; 'I' for Inactive)
REMARK    1  A    between atoms: C_2  and  C_1 
REMARK    2  A    between atoms: C_6  and  C_1 
REMARK    3  A    between atoms: C_7  and  C_2 
REMARK    4  A    between atoms: C_14  and  C_6 
REMARK    5  A    between atoms: C_15  and  C_7 
REMARK    6  A    between atoms: C_16  and  C_12 
REMARK    7  A    between atoms: C_19  and  C_12 
REMARK    8  A    between atoms: C_17  and  C_13 
REMARK    9  A    between atoms: C_20  and  C_13 
REMARK   10  A    between atoms: N_23  and  C_14 
REMARK   11  A    between atoms: N_24  and  C_15 
REMARK   12  A    between atoms: N_23  and  C_16 
REMARK   13  A    between atoms: N_24  and  C_17 
REMARK   14  A    between atoms: O_25  and  C_21 
REMARK   15  A    between atoms: O_26  and  C_22 
ROOT
HETATM    1  C   UNK N   1      36.568  12.349  11.383  0.00  0.00     0.019 C 
ENDROOT
BRANCH   1   2
HETATM    2  C   UNK N   1      37.290  13.531  10.759  0.00  0.00     0.002 C 
BRANCH   2   3
HETATM    3  C   UNK N   1      36.374  14.257   9.798  0.00  0.00     0.002 C 
BRANCH   3   4
HETATM    4  C   UNK N   1      35.984  15.599  10.392  0.00  0.00     0.019 C 
BRANCH   4   5
HETATM    5  C   UNK N   1      34.832  16.207   9.616  0.00  0.00     0.113 C 
BRANCH   5   6
HETATM    6  N   UNK N   1      34.996  17.647   9.521  0.00  0.00    -0.421 N 
HETATM    7  H   UNK N   1      35.564  18.237  10.129  0.00  0.00     0.153 HD
BRANCH   6   8
HETATM    8  C   UNK N   1      34.191  18.080   8.396  0.00  0.00     0.118 C 
BRANCH   8   9
HETATM    9  C   UNK N   1      34.223  17.019   7.307  0.00  0.00     0.057 C 
BRANCH   9  10
HETATM   10  C   UNK N   1      33.098  17.144   6.321  0.00  0.00    -0.057 A 
HETATM   11  C   UNK N   1      33.320  17.521   4.985  0.00  0.00     0.007 A 
HETATM   12  C   UNK N   1      32.246  17.633   4.097  0.00  0.00     0.001 A 
HETATM   13  C   UNK N   1      30.947  17.371   4.536  0.00  0.00     0.000 A 
HETATM   14  C   UNK N   1      30.720  16.997   5.864  0.00  0.00     0.001 A 
HETATM   15  C   UNK N   1      31.794  16.884   6.753  0.00  0.00     0.007 A 
ENDBRANCH   9  10
ENDBRANCH   8   9
ENDBRANCH   6   8
ENDBRANCH   5   6
ENDBRANCH   4   5
ENDBRANCH   3   4
ENDBRANCH   2   3
ENDBRANCH   1   2
BRANCH   1  16
HETATM   16  C   UNK N   1      35.940  12.740  12.710  0.00  0.00     0.113 C 
BRANCH  16  17
HETATM   17  N   UNK N   1      34.599  12.179  12.842  0.00  0.00    -0.421 N 
HETATM   18  H   UNK N   1      33.938  12.016  12.082  0.00  0.00     0.153 HD
BRANCH  17  19
HETATM   19  C   UNK N   1      34.370  11.895  14.254  0.00  0.00     0.118 C 
BRANCH  19  20
HETATM   20  C   UNK N   1      35.688  11.950  15.013  0.00  0.00     0.058 C 
BRANCH  20  21
HETATM   21  C   UNK N   1      35.491  12.228  16.465  0.00  0.00    -0.054 A 
HETATM   22  C   UNK N   1      35.488  11.165  17.372  0.00  0.00     0.010 A 
HETATM   23  C   UNK N   1      35.367  11.414  18.743  0.00  0.00     0.040 A 
HETATM   24  C   UNK N   1      35.250  12.725  19.210  0.00  0.00     0.098 A 
HETATM   25  C   UNK N   1      35.246  13.794  18.303  0.00  0.00     0.099 A 
HETATM   26  C   UNK N   1      35.373  13.545  16.932  0.00  0.00     0.046 A 
BRANCH  24  27
HETATM   27  O   UNK N   1      35.145  12.954  20.530  0.00  0.00    -0.358 OA
HETATM   28  H   UNK N   1      35.567  13.697  20.917  0.00  0.00     0.217 HD
ENDBRANCH  24  27
BRANCH  25  29
HETATM   29  O   UNK N   1      35.131  15.058  18.742  0.00  0.00    -0.358 OA
HETATM   30  H   UNK N   1      35.872  15.496  19.111  0.00  0.00     0.217 HD
ENDBRANCH  25  29
ENDBRANCH  20  21
ENDBRANCH  19  20
ENDBRANCH  17  19
ENDBRANCH  16  17
ENDBRANCH   1  16
TORSDOF 15
ENDMDL
MODEL 7
REMARK VINA RESULT:      -5.3      2.057      4.489
REMARK  15 active torsions:
REMARK  status: ('A' for Active; 'I' for Inactive)
REMARK    1  A    between atoms: C_2  and  C_1 
REMARK    2  A    between atoms: C_6  and  C_1 
REMARK    3  A    between atoms: C_7  and  C_2 
REMARK    4  A    between atoms: C_14  and  C_6 
REMARK    5  A    between atoms: C_15  and  C_7 
REMARK    6  A    between atoms: C_16  and  C_12 
REMARK    7  A    between atoms: C_19  and  C_12 
REMARK    8  A    between atoms: C_17  and  C_13 
REMARK    9  A    between atoms: C_20  and  C_13 
REMARK   10  A    between atoms: N_23  and  C_14 
REMARK   11  A    between atoms: N_24  and  C_15 
REMARK   12  A    between atoms: N_23  and  C_16 
REMARK   13  A    between atoms: N_24  and  C_17 
REMARK   14  A    between atoms: O_25  and  C_21 
REMARK   15  A    between atoms: O_26  and  C_22 
ROOT
HETATM    1  C   UNK N   1      27.424  28.740  -4.859  0.00  0.00     0.019 C 
ENDROOT
BRANCH   1   2
HETATM    2  C   UNK N   1      27.461  28.646  -6.376  0.00  0.00     0.002 C 
BRANCH   2   3
HETATM    3  C   UNK N   1      27.872  27.254  -6.804  0.00  0.00     0.002 C 
BRANCH   3   4
HETATM    4  C   UNK N   1      26.896  26.742  -7.849  0.00  0.00     0.019 C 
BRANCH   4   5
HETATM    5  C   UNK N   1      25.717  26.059  -7.183  0.00  0.00     0.113 C 
BRANCH   5   6
HETATM    6  N   UNK N   1      25.459  24.777  -7.814  0.00  0.00    -0.421 N 
HETATM    7  H   UNK N   1      24.866  24.605  -8.627  0.00  0.00     0.153 HD
BRANCH   6   8
HETATM    8  C   UNK N   1      26.207  23.790  -7.060  0.00  0.00     0.118 C 
BRANCH   8   9
HETATM    9  C   UNK N   1      26.621  22.651  -7.980  0.00  0.00     0.057 C 
BRANCH   9  10
HETATM   10  C   UNK N   1      27.816  21.890  -7.483  0.00  0.00    -0.057 A 
HETATM   11  C   UNK N   1      28.205  20.666  -8.054  0.00  0.00     0.007 A 
HETATM   12  C   UNK N   1      29.320  19.982  -7.560  0.00  0.00     0.001 A 
HETATM   13  C   UNK N   1      30.050  20.513  -6.496  0.00  0.00     0.000 A 
HETATM   14  C   UNK N   1      29.667  21.730  -5.923  0.00  0.00     0.001 A 
HETATM   15  C   UNK N   1      28.552  22.415  -6.417  0.00  0.00     0.007 A 
ENDBRANCH   9  10
ENDBRANCH   8   9
ENDBRANCH   6   8
ENDBRANCH   5   6
ENDBRANCH   4   5
ENDBRANCH   3   4
ENDBRANCH   2   3
ENDBRANCH   1   2
BRANCH   1  16
HETATM   16  C   UNK N   1      25.991  28.758  -4.355  0.00  0.00     0.113 C 
BRANCH  16  17
HETATM   17  N   UNK N   1      25.546  27.417  -3.989  0.00  0.00    -0.421 N 
HETATM   18  H   UNK N   1      24.622  27.022  -4.163  0.00  0.00     0.153 HD
BRANCH  17  19
HETATM   19  C   UNK N   1      26.658  26.742  -3.329  0.00  0.00     0.118 C 
BRANCH  19  20
HETATM   20  C   UNK N   1      26.718  25.288  -3.771  0.00  0.00     0.058 C 
BRANCH  20  21
HETATM   21  C   UNK N   1      27.982  24.621  -3.347  0.00  0.00    -0.054 A 
HETATM   22  C   UNK N   1      27.923  23.526  -2.482  0.00  0.00     0.010 A 
HETATM   23  C   UNK N   1      29.093  22.851  -2.123  0.00  0.00     0.040 A 
HETATM   24  C   UNK N   1      30.326  23.267  -2.631  0.00  0.00     0.098 A 
HETATM   25  C   UNK N   1      30.392  24.369  -3.495  0.00  0.00     0.099 A 
HETATM   26  C   UNK N   1      29.219  25.041  -3.856  0.00  0.00     0.046 A 
BRANCH  24  27
HETATM   27  O   UNK N   1      31.445  22.605  -2.289  0.00  0.00    -0.358 OA
HETATM   28  H   UNK N   1      31.454  21.667  -2.274  0.00  0.00     0.217 HD
ENDBRANCH  24  27
BRANCH  25  29
HETATM   29  O   UNK N   1      31.573  24.780  -3.985  0.00  0.00    -0.358 OA
HETATM   30  H   UNK N   1      31.624  25.570  -4.485  0.00  0.00     0.217 HD
ENDBRANCH  25  29
ENDBRANCH  20  21
ENDBRANCH  19  20
ENDBRANCH  17  19
ENDBRANCH  16  17
ENDBRANCH   1  16
TORSDOF 15
ENDMDL
MODEL 8
REMARK VINA RESULT:      -5.3      2.463      5.082
REMARK  15 active torsions:
REMARK  status: ('A' for Active; 'I' for Inactive)
REMARK    1  A    between atoms: C_2  and  C_1 
REMARK    2  A    between atoms: C_6  and  C_1 
REMARK    3  A    between atoms: C_7  and  C_2 
REMARK    4  A    between atoms: C_14  and  C_6 
REMARK    5  A    between atoms: C_15  and  C_7 
REMARK    6  A    between atoms: C_16  and  C_12 
REMARK    7  A    between atoms: C_19  and  C_12 
REMARK    8  A    between atoms: C_17  and  C_13 
REMARK    9  A    between atoms: C_20  and  C_13 
REMARK   10  A    between atoms: N_23  and  C_14 
REMARK   11  A    between atoms: N_24  and  C_15 
REMARK   12  A    between atoms: N_23  and  C_16 
REMARK   13  A    between atoms: N_24  and  C_17 
REMARK   14  A    between atoms: O_25  and  C_21 
REMARK   15  A    between atoms: O_26  and  C_22 
ROOT
HETATM    1  C   UNK N   1      29.135  19.838  -8.092  0.00  0.00     0.019 C 
ENDROOT
BRANCH   1   2
HETATM    2  C   UNK N   1      27.921  20.656  -8.498  0.00  0.00     0.002 C 
BRANCH   2   3
HETATM    3  C   UNK N   1      27.794  21.879  -7.617  0.00  0.00     0.002 C 
BRANCH   3   4
HETATM    4  C   UNK N   1      26.325  22.207  -7.420  0.00  0.00     0.019 C 
BRANCH   4   5
HETATM    5  C   UNK N   1      26.153  23.215  -6.301  0.00  0.00     0.113 C 
BRANCH   5   6
HETATM    6  N   UNK N   1      25.253  24.276  -6.716  0.00  0.00    -0.421 N 
HETATM    7  H   UNK N   1      24.279  24.173  -7.005  0.00  0.00     0.153 HD
BRANCH   6   8
HETATM    8  C   UNK N   1      26.010  25.511  -6.642  0.00  0.00     0.118 C 
BRANCH   8   9
HETATM    9  C   UNK N   1      25.230  26.541  -5.839  0.00  0.00     0.057 C 
BRANCH   9  10
HETATM   10  C   UNK N   1      26.038  27.755  -5.484  0.00  0.00    -0.057 A 
HETATM   11  C   UNK N   1      25.771  28.512  -4.331  0.00  0.00     0.007 A 
HETATM   12  C   UNK N   1      26.541  29.641  -4.036  0.00  0.00     0.001 A 
HETATM   13  C   UNK N   1      27.579  30.021  -4.890  0.00  0.00     0.000 A 
HETATM   14  C   UNK N   1      27.848  29.272  -6.040  0.00  0.00     0.001 A 
HETATM   15  C   UNK N   1      27.078  28.142  -6.335  0.00  0.00     0.007 A 
ENDBRANCH   9  10
ENDBRANCH   8   9
ENDBRANCH   6   8
ENDBRANCH   5   6
ENDBRANCH   4   5
ENDBRANCH   3   4
ENDBRANCH   2   3
ENDBRANCH   1   2
BRANCH   1  16
HETATM   16  C   UNK N   1      30.202  19.885  -9.173  0.00  0.00     0.113 C 
BRANCH  16  17
HETATM   17  N   UNK N   1      31.516  19.556  -8.629  0.00  0.00    -0.421 N 
HETATM   18  H   UNK N   1      32.350  19.327  -9.170  0.00  0.00     0.153 HD
BRANCH  17  19
HETATM   19  C   UNK N   1      31.424  19.613  -7.174  0.00  0.00     0.118 C 
BRANCH  19  20
HETATM   20  C   UNK N   1      32.471  20.571  -6.626  0.00  0.00     0.058 C 
BRANCH  20  21
HETATM   21  C   UNK N   1      32.044  21.197  -5.342  0.00  0.00    -0.054 A 
HETATM   22  C   UNK N   1      30.894  21.990  -5.315  0.00  0.00     0.010 A 
HETATM   23  C   UNK N   1      30.445  22.533  -4.108  0.00  0.00     0.040 A 
HETATM   24  C   UNK N   1      31.143  22.282  -2.923  0.00  0.00     0.098 A 
HETATM   25  C   UNK N   1      32.300  21.492  -2.946  0.00  0.00     0.099 A 
HETATM   26  C   UNK N   1      32.746  20.945  -4.154  0.00  0.00     0.046 A 
BRANCH  24  27
HETATM   27  O   UNK N   1      30.697  22.800  -1.766  0.00  0.00    -0.358 OA
HETATM   28  H   UNK N   1      30.124  23.543  -1.769  0.00  0.00     0.217 HD
ENDBRANCH  24  27
BRANCH  25  29
HETATM   29  O   UNK N   1      32.980  21.249  -1.813  0.00  0.00    -0.358 OA
HETATM   30  H   UNK N   1      33.401  21.952  -1.359  0.00  0.00     0.217 HD
ENDBRANCH  25  29
ENDBRANCH  20  21
ENDBRANCH  19  20
ENDBRANCH  17  19
ENDBRANCH  16  17
ENDBRANCH   1  16
TORSDOF 15
ENDMDL
MODEL 9
REMARK VINA RESULT:      -5.2      1.551      3.688
REMARK  15 active torsions:
REMARK  status: ('A' for Active; 'I' for Inactive)
REMARK    1  A    between atoms: C_2  and  C_1 
REMARK    2  A    between atoms: C_6  and  C_1 
REMARK    3  A    between atoms: C_7  and  C_2 
REMARK    4  A    between atoms: C_14  and  C_6 
REMARK    5  A    between atoms: C_15  and  C_7 
REMARK    6  A    between atoms: C_16  and  C_12 
REMARK    7  A    between atoms: C_19  and  C_12 
REMARK    8  A    between atoms: C_17  and  C_13 
REMARK    9  A    between atoms: C_20  and  C_13 
REMARK   10  A    between atoms: N_23  and  C_14 
REMARK   11  A    between atoms: N_24  and  C_15 
REMARK   12  A    between atoms: N_23  and  C_16 
REMARK   13  A    between atoms: N_24  and  C_17 
REMARK   14  A    between atoms: O_25  and  C_21 
REMARK   15  A    between atoms: O_26  and  C_22 
ROOT
HETATM    1  C   UNK N   1      27.414  25.448  -7.846  0.00  0.00     0.019 C 
ENDROOT
BRANCH   1   2
HETATM    2  C   UNK N   1      26.635  25.587  -6.548  0.00  0.00     0.002 C 
BRANCH   2   3
HETATM    3  C   UNK N   1      25.548  26.629  -6.698  0.00  0.00     0.002 C 
BRANCH   3   4
HETATM    4  C   UNK N   1      24.787  26.753  -5.390  0.00  0.00     0.019 C 
BRANCH   4   5
HETATM    5  C   UNK N   1      25.181  28.025  -4.667  0.00  0.00     0.113 C 
BRANCH   5   6
HETATM    6  N   UNK N   1      25.719  27.709  -3.355  0.00  0.00    -0.421 N 
HETATM    7  H   UNK N   1      25.330  27.053  -2.677  0.00  0.00     0.153 HD
BRANCH   6   8
HETATM    8  C   UNK N   1      26.916  28.512  -3.197  0.00  0.00     0.118 C 
BRANCH   8   9
HETATM    9  C   UNK N   1      27.123  29.370  -4.435  0.00  0.00     0.057 C 
BRANCH   9  10
HETATM   10  C   UNK N   1      28.169  28.829  -5.366  0.00  0.00    -0.057 A 
HETATM   11  C   UNK N   1      28.252  29.241  -6.708  0.00  0.00     0.007 A 
HETATM   12  C   UNK N   1      29.235  28.709  -7.547  0.00  0.00     0.001 A 
HETATM   13  C   UNK N   1      30.139  27.766  -7.055  0.00  0.00     0.000 A 
HETATM   14  C   UNK N   1      30.061  27.353  -5.721  0.00  0.00     0.001 A 
HETATM   15  C   UNK N   1      29.077  27.884  -4.881  0.00  0.00     0.007 A 
ENDBRANCH   9  10
ENDBRANCH   8   9
ENDBRANCH   6   8
ENDBRANCH   5   6
ENDBRANCH   4   5
ENDBRANCH   3   4
ENDBRANCH   2   3
ENDBRANCH   1   2
BRANCH   1  16
HETATM   16  C   UNK N   1      27.460  23.997  -8.294  0.00  0.00     0.113 C 
BRANCH  16  17
HETATM   17  N   UNK N   1      26.990  23.106  -7.238  0.00  0.00    -0.421 N 
HETATM   18  H   UNK N   1      26.107  23.187  -6.732  0.00  0.00     0.153 HD
BRANCH  17  19
HETATM   19  C   UNK N   1      28.006  22.080  -7.034  0.00  0.00     0.118 C 
BRANCH  19  20
HETATM   20  C   UNK N   1      29.360  22.732  -6.798  0.00  0.00     0.058 C 
BRANCH  20  21
HETATM   21  C   UNK N   1      29.695  22.827  -5.348  0.00  0.00    -0.054 A 
HETATM   22  C   UNK N   1      29.151  23.865  -4.586  0.00  0.00     0.010 A 
HETATM   23  C   UNK N   1      29.404  23.933  -3.213  0.00  0.00     0.040 A 
HETATM   24  C   UNK N   1      30.198  22.962  -2.597  0.00  0.00     0.098 A 
HETATM   25  C   UNK N   1      30.750  21.922  -3.358  0.00  0.00     0.099 A 
HETATM   26  C   UNK N   1      30.493  21.853  -4.731  0.00  0.00     0.046 A 
BRANCH  24  27
HETATM   27  O   UNK N   1      30.426  23.030  -1.274  0.00  0.00    -0.358 OA
HETATM   28  H   UNK N   1      29.729  23.239  -0.683  0.00  0.00     0.217 HD
ENDBRANCH  24  27
BRANCH  25  29
HETATM   29  O   UNK N   1      31.518  20.987  -2.776  0.00  0.00    -0.358 OA
HETATM   30  H   UNK N   1      31.828  20.258  -3.276  0.00  0.00     0.217 HD
ENDBRANCH  25  29
ENDBRANCH  20  21
ENDBRANCH  19  20
ENDBRANCH  17  19
ENDBRANCH  16  17
ENDBRANCH   1  16
TORSDOF 15
ENDMDL
