REMARK  11 active torsions:
REMARK  status: ('A' for Active; 'I' for Inactive)
REMARK    1  A    between atoms: C_9  and  C_35 
REMARK    2  A    between atoms: C_12  and  N_15 
REMARK       I    between atoms: N_15  and  C_16 
REMARK    3  A    between atoms: C_18  and  C_16 
REMARK    4  A    between atoms: C_18  and  C_19 
REMARK    5  A    between atoms: C_18  and  C_25 
REMARK    6  A    between atoms: C_19  and  C_20 
REMARK    7  A    between atoms: C_20  and  C_21 
REMARK    8  A    between atoms: C_25  and  C_26 
REMARK    9  A    between atoms: C_25  and  C_32 
REMARK   10  A    between atoms: C_26  and  C_27 
REMARK   11  A    between atoms: C_27  and  C_28 
REMARK       I    between atoms: C_32  and  N_34 
ROOT
HETATM    1  N   UNK N   1       3.002   0.069   2.275  0.00  0.00    -0.332 N 
HETATM    2  C   UNK N   1       3.712   1.186   1.925  0.00  0.00     0.224 C 
HETATM    3  O   UNK N   1       4.112   1.917   2.816  0.00  0.00    -0.273 OA
HETATM    4  H   UNK N   1       2.914  -0.085   3.243  0.00  0.00     0.165 HD
ENDROOT
BRANCH   1   5
HETATM    5  C   UNK N   1       2.356  -0.927   1.427  0.00  0.00     0.279 C 
HETATM    6  N   UNK N   1       1.213  -0.365   0.772  0.00  0.00    -0.360 N 
HETATM    7  C   UNK N   1       0.270  -1.042   0.207  0.00  0.00     0.053 C 
ATOM      8  HN  UNK N   1       1.137   0.652   0.751  1.00  0.00     0.162 HD
HETATM    9  C   UNK N   1       0.337  -2.552   0.046  0.00  0.00     0.018 A 
HETATM   10  C   UNK N   1      -0.893  -3.239  -0.014  0.00  0.00     0.016 A 
HETATM   11  C   UNK N   1       1.540  -3.330  -0.122  0.00  0.00     0.049 A 
HETATM   12  C   UNK N   1      -0.980  -4.610  -0.220  0.00  0.00     0.001 A 
HETATM   13  C   UNK N   1       0.174  -5.351  -0.398  0.00  0.00     0.002 A 
HETATM   14  C   UNK N   1       1.408  -4.717  -0.359  0.00  0.00     0.030 A 
HETATM   15  N   UNK N   1       2.877  -2.797  -0.143  0.00  0.00    -0.318 N 
HETATM   16  C   UNK N   1       3.900  -3.560  -0.840  0.00  0.00     0.159 C 
HETATM   17  C   UNK N   1       3.281  -1.689   0.539  0.00  0.00     0.266 C 
HETATM   18  O   UNK N   1       4.457  -1.376   0.526  0.00  0.00    -0.269 OA
BRANCH   7  19
HETATM   19  C   UNK N   1      -0.967  -0.267  -0.179  0.00  0.00    -0.009 A 
HETATM   20  C   UNK N   1      -2.058  -0.863  -0.837  0.00  0.00     0.014 A 
HETATM   21  C   UNK N   1      -3.209  -0.129  -1.136  0.00  0.00     0.001 A 
HETATM   22  C   UNK N   1      -3.287   1.218  -0.784  0.00  0.00     0.000 A 
HETATM   23  C   UNK N   1      -2.210   1.833  -0.143  0.00  0.00     0.001 A 
HETATM   24  C   UNK N   1      -1.059   1.097   0.157  0.00  0.00     0.014 A 
ENDBRANCH   7  19
ENDBRANCH   1   5
BRANCH   2  25
HETATM   25  C   UNK N   1       4.056   1.567   0.503  0.00  0.00     0.091 C 
BRANCH  25  26
HETATM   26  C   UNK N   1       2.933   1.797  -0.512  0.00  0.00     0.023 C 
BRANCH  26  27
HETATM   27  C   UNK N   1       2.923   3.200  -1.128  0.00  0.00     0.118 C 
BRANCH  27  28
HETATM   28  C   UNK N   1       2.576   4.322  -0.151  0.00  0.00     0.387 C 
HETATM   29  F   UNK N   1       3.551   4.446   0.822  0.00  0.00    -0.171 F 
HETATM   30  F   UNK N   1       1.355   4.073   0.449  0.00  0.00    -0.171 F 
HETATM   31  F   UNK N   1       2.498   5.511  -0.851  0.00  0.00    -0.171 F 
ENDBRANCH  27  28
ENDBRANCH  26  27
ENDBRANCH  25  26
BRANCH  25  32
HETATM   32  C   UNK N   1       5.557   1.722   0.152  0.00  0.00     0.091 C 
BRANCH  32  33
HETATM   33  C   UNK N   1       5.865   2.964  -0.672  0.00  0.00     0.023 C 
BRANCH  33  34
HETATM   34  C   UNK N   1       6.736   3.920   0.126  0.00  0.00     0.118 C 
BRANCH  34  35
HETATM   35  C   UNK N   1       8.175   3.929  -0.373  0.00  0.00     0.387 C 
HETATM   36  F   UNK N   1       8.910   4.805   0.402  0.00  0.00    -0.171 F 
HETATM   37  F   UNK N   1       8.219   4.349  -1.690  0.00  0.00    -0.171 F 
HETATM   38  F   UNK N   1       8.728   2.666  -0.272  0.00  0.00    -0.171 F 
ENDBRANCH  34  35
ENDBRANCH  33  34
ENDBRANCH  32  33
BRANCH  32  39
HETATM   39  C   UNK N   1       6.168   0.514  -0.481  0.00  0.00     0.220 C 
HETATM   40  O   UNK N   1       7.049  -0.093   0.107  0.00  0.00    -0.273 OA
HETATM   41  N   UNK N   1       5.753   0.088  -1.691  0.00  0.00    -0.370 N 
HETATM   42  H   UNK N   1       5.332   0.195  -2.574  0.00  0.00     0.159 HD
HETATM   43  H   UNK N   1       6.020  -0.860  -1.691  0.00  0.00     0.159 HD
ENDBRANCH  32  39
ENDBRANCH  25  32
ENDBRANCH   2  25
TORSDOF 11
