MODEL 1
REMARK VINA RESULT:      -6.5      0.000      0.000
REMARK  8 active torsions:
REMARK  status: ('A' for Active; 'I' for Inactive)
REMARK    1  A    between atoms: C_18  and  C_3 
REMARK    2  A    between atoms: O_26  and  C_18 
REMARK    3  A    between atoms: C_23  and  C_19 
REMARK    4  A    between atoms: C_23  and  C_20 
REMARK    5  A    between atoms: O_27  and  C_21 
REMARK    6  A    between atoms: C_23  and  C_22 
REMARK    7  A    between atoms: O_27  and  C_22 
REMARK    8  A    between atoms: O_26  and  C_23 
ROOT
HETATM    1  C   UNK N   1      33.145  17.071   6.689  0.00  0.00     0.203 C 
ENDROOT
BRANCH   1   2
HETATM    2  C   UNK N   1      33.550  15.591   6.491  0.00  0.00    -0.009 A 
HETATM    3  C   UNK N   1      34.805  15.244   5.953  0.00  0.00     0.011 A 
HETATM    4  C   UNK N   1      35.100  13.919   5.616  0.00  0.00     0.001 A 
HETATM    5  C   UNK N   1      34.139  12.921   5.793  0.00  0.00     0.000 A 
HETATM    6  C   UNK N   1      32.890  13.244   6.321  0.00  0.00     0.001 A 
HETATM    7  C   UNK N   1      32.596  14.567   6.657  0.00  0.00     0.011 A 
ENDBRANCH   1   2
BRANCH   1   8
HETATM    8  C   UNK N   1      31.701  17.357   7.158  0.00  0.00    -0.009 A 
HETATM    9  C   UNK N   1      31.467  18.078   8.345  0.00  0.00     0.011 A 
HETATM   10  C   UNK N   1      30.179  18.223   8.863  0.00  0.00     0.001 A 
HETATM   11  C   UNK N   1      29.097  17.632   8.212  0.00  0.00     0.000 A 
HETATM   12  C   UNK N   1      29.303  16.911   7.034  0.00  0.00     0.001 A 
HETATM   13  C   UNK N   1      30.595  16.770   6.513  0.00  0.00     0.011 A 
ENDBRANCH   1   8
BRANCH   1  14
HETATM   14  C   UNK N   1      34.028  17.536   7.835  0.00  0.00     0.304 C 
HETATM   15  O   UNK N   1      34.871  18.402   7.675  0.00  0.00    -0.261 OA
BRANCH  14  16
HETATM   16  O   UNK N   1      33.878  16.920   9.038  0.00  0.00    -0.313 OA
BRANCH  16  17
HETATM   17  C   UNK N   1      34.734  16.004   9.587  0.00  0.00     0.135 C 
HETATM   18  C   UNK N   1      33.887  14.814  10.040  0.00  0.00     0.062 C 
HETATM   19  C   UNK N   1      34.706  13.875  10.916  0.00  0.00     0.274 C 
HETATM   20  N   UNK N   1      35.189  14.601  12.087  0.00  0.00     0.084 N 
HETATM   21  C   UNK N   1      35.926  13.656  12.905  0.00  0.00     0.309 C 
HETATM   22  C   UNK N   1      36.133  15.622  11.640  0.00  0.00     0.274 C 
HETATM   23  C   UNK N   1      35.406  16.663  10.793  0.00  0.00     0.062 C 
ENDBRANCH  16  17
ENDBRANCH  14  16
ENDBRANCH   1  14
BRANCH   1  24
HETATM   24  O   UNK N   1      33.458  17.845   5.524  0.00  0.00    -0.360 OA
BRANCH  24  25
HETATM   25  C   UNK N   1      32.430  17.701   4.560  0.00  0.00     0.170 C 
BRANCH  25  26
HETATM   26  C   UNK N   1      32.938  16.986   3.325  0.00  0.00     0.022 C 
HETATM   27  C   UNK N   1      32.140  15.712   3.128  0.00  0.00     0.007 C 
ENDBRANCH  25  26
ENDBRANCH  24  25
ENDBRANCH   1  24
TORSDOF 8
ENDMDL
MODEL 2
REMARK VINA RESULT:      -6.4      2.953      5.725
REMARK  8 active torsions:
REMARK  status: ('A' for Active; 'I' for Inactive)
REMARK    1  A    between atoms: C_18  and  C_3 
REMARK    2  A    between atoms: O_26  and  C_18 
REMARK    3  A    between atoms: C_23  and  C_19 
REMARK    4  A    between atoms: C_23  and  C_20 
REMARK    5  A    between atoms: O_27  and  C_21 
REMARK    6  A    between atoms: C_23  and  C_22 
REMARK    7  A    between atoms: O_27  and  C_22 
REMARK    8  A    between atoms: O_26  and  C_23 
ROOT
HETATM    1  C   UNK N   1      28.932  17.197   6.310  0.00  0.00     0.203 C 
ENDROOT
BRANCH   1   2
HETATM    2  C   UNK N   1      28.363  18.598   5.987  0.00  0.00    -0.009 A 
HETATM    3  C   UNK N   1      27.875  19.440   7.007  0.00  0.00     0.011 A 
HETATM    4  C   UNK N   1      27.207  20.629   6.697  0.00  0.00     0.001 A 
HETATM    5  C   UNK N   1      26.999  20.989   5.363  0.00  0.00     0.000 A 
HETATM    6  C   UNK N   1      27.472  20.168   4.340  0.00  0.00     0.001 A 
HETATM    7  C   UNK N   1      28.139  18.981   4.650  0.00  0.00     0.011 A 
ENDBRANCH   1   2
BRANCH   1   8
HETATM    8  C   UNK N   1      30.052  16.654   5.394  0.00  0.00    -0.009 A 
HETATM    9  C   UNK N   1      30.362  15.280   5.385  0.00  0.00     0.011 A 
HETATM   10  C   UNK N   1      31.462  14.791   4.679  0.00  0.00     0.001 A 
HETATM   11  C   UNK N   1      32.287  15.670   3.980  0.00  0.00     0.000 A 
HETATM   12  C   UNK N   1      32.002  17.037   3.976  0.00  0.00     0.001 A 
HETATM   13  C   UNK N   1      30.897  17.527   4.681  0.00  0.00     0.011 A 
ENDBRANCH   1   8
BRANCH   1  14
HETATM   14  C   UNK N   1      29.590  17.378   7.668  0.00  0.00     0.304 C 
HETATM   15  O   UNK N   1      28.972  17.190   8.702  0.00  0.00    -0.261 OA
BRANCH  14  16
HETATM   16  O   UNK N   1      30.881  17.803   7.693  0.00  0.00    -0.313 OA
BRANCH  16  17
HETATM   17  C   UNK N   1      31.842  17.408   8.584  0.00  0.00     0.135 C 
HETATM   18  C   UNK N   1      33.171  17.986   8.095  0.00  0.00     0.062 C 
HETATM   19  C   UNK N   1      34.337  17.368   8.856  0.00  0.00     0.274 C 
HETATM   20  N   UNK N   1      34.334  15.922   8.656  0.00  0.00     0.084 N 
HETATM   21  C   UNK N   1      35.483  15.388   9.365  0.00  0.00     0.309 C 
HETATM   22  C   UNK N   1      33.137  15.371   9.286  0.00  0.00     0.274 C 
HETATM   23  C   UNK N   1      31.893  15.879   8.562  0.00  0.00     0.062 C 
ENDBRANCH  16  17
ENDBRANCH  14  16
ENDBRANCH   1  14
BRANCH   1  24
HETATM   24  O   UNK N   1      27.876  16.236   6.436  0.00  0.00    -0.360 OA
BRANCH  24  25
HETATM   25  C   UNK N   1      26.895  16.464   5.438  0.00  0.00     0.170 C 
BRANCH  25  26
HETATM   26  C   UNK N   1      26.781  15.277   4.505  0.00  0.00     0.022 C 
HETATM   27  C   UNK N   1      27.249  15.688   3.122  0.00  0.00     0.007 C 
ENDBRANCH  25  26
ENDBRANCH  24  25
ENDBRANCH   1  24
TORSDOF 8
ENDMDL
MODEL 3
REMARK VINA RESULT:      -6.3      4.405      9.528
REMARK  8 active torsions:
REMARK  status: ('A' for Active; 'I' for Inactive)
REMARK    1  A    between atoms: C_18  and  C_3 
REMARK    2  A    between atoms: O_26  and  C_18 
REMARK    3  A    between atoms: C_23  and  C_19 
REMARK    4  A    between atoms: C_23  and  C_20 
REMARK    5  A    between atoms: O_27  and  C_21 
REMARK    6  A    between atoms: C_23  and  C_22 
REMARK    7  A    between atoms: O_27  and  C_22 
REMARK    8  A    between atoms: O_26  and  C_23 
ROOT
HETATM    1  C   UNK N   1      35.631  12.105  15.150  0.00  0.00     0.203 C 
ENDROOT
BRANCH   1   2
HETATM    2  C   UNK N   1      36.736  11.114  14.716  0.00  0.00    -0.009 A 
HETATM    3  C   UNK N   1      37.228  11.102  13.395  0.00  0.00     0.011 A 
HETATM    4  C   UNK N   1      38.098  10.096  12.963  0.00  0.00     0.001 A 
HETATM    5  C   UNK N   1      38.477   9.074  13.837  0.00  0.00     0.000 A 
HETATM    6  C   UNK N   1      37.999   9.066  15.147  0.00  0.00     0.001 A 
HETATM    7  C   UNK N   1      37.131  10.071  15.578  0.00  0.00     0.011 A 
ENDBRANCH   1   2
BRANCH   1   8
HETATM    8  C   UNK N   1      35.379  12.273  16.665  0.00  0.00    -0.009 A 
HETATM    9  C   UNK N   1      35.175  13.552  17.216  0.00  0.00     0.011 A 
HETATM   10  C   UNK N   1      35.091  13.741  18.597  0.00  0.00     0.001 A 
HETATM   11  C   UNK N   1      35.228  12.653  19.457  0.00  0.00     0.000 A 
HETATM   12  C   UNK N   1      35.433  11.374  18.935  0.00  0.00     0.001 A 
HETATM   13  C   UNK N   1      35.513  11.185  17.550  0.00  0.00     0.011 A 
ENDBRANCH   1   8
BRANCH   1  14
HETATM   14  C   UNK N   1      36.157  13.455  14.690  0.00  0.00     0.304 C 
HETATM   15  O   UNK N   1      37.138  13.963  15.206  0.00  0.00    -0.261 OA
BRANCH  14  16
HETATM   16  O   UNK N   1      35.469  14.101  13.711  0.00  0.00    -0.313 OA
BRANCH  16  17
HETATM   17  C   UNK N   1      35.874  14.264  12.414  0.00  0.00     0.135 C 
HETATM   18  C   UNK N   1      35.685  15.741  12.067  0.00  0.00     0.062 C 
HETATM   19  C   UNK N   1      35.837  15.964  10.568  0.00  0.00     0.274 C 
HETATM   20  N   UNK N   1      34.842  15.168   9.856  0.00  0.00     0.084 N 
HETATM   21  C   UNK N   1      35.002  15.445   8.440  0.00  0.00     0.309 C 
HETATM   22  C   UNK N   1      35.149  13.754  10.061  0.00  0.00     0.274 C 
HETATM   23  C   UNK N   1      34.971  13.397  11.534  0.00  0.00     0.062 C 
ENDBRANCH  16  17
ENDBRANCH  14  16
ENDBRANCH   1  14
BRANCH   1  24
HETATM   24  O   UNK N   1      34.403  11.832  14.463  0.00  0.00    -0.360 OA
BRANCH  24  25
HETATM   25  C   UNK N   1      34.260  10.436  14.270  0.00  0.00     0.170 C 
BRANCH  25  26
HETATM   26  C   UNK N   1      33.754  10.128  12.876  0.00  0.00     0.022 C 
HETATM   27  C   UNK N   1      34.583   9.003  12.286  0.00  0.00     0.007 C 
ENDBRANCH  25  26
ENDBRANCH  24  25
ENDBRANCH   1  24
TORSDOF 8
ENDMDL
MODEL 4
REMARK VINA RESULT:      -6.3     13.836     17.325
REMARK  8 active torsions:
REMARK  status: ('A' for Active; 'I' for Inactive)
REMARK    1  A    between atoms: C_18  and  C_3 
REMARK    2  A    between atoms: O_26  and  C_18 
REMARK    3  A    between atoms: C_23  and  C_19 
REMARK    4  A    between atoms: C_23  and  C_20 
REMARK    5  A    between atoms: O_27  and  C_21 
REMARK    6  A    between atoms: C_23  and  C_22 
REMARK    7  A    between atoms: O_27  and  C_22 
REMARK    8  A    between atoms: O_26  and  C_23 
ROOT
HETATM    1  C   UNK N   1      27.329  25.467  -4.759  0.00  0.00     0.203 C 
ENDROOT
BRANCH   1   2
HETATM    2  C   UNK N   1      28.263  24.717  -3.780  0.00  0.00    -0.009 A 
HETATM    3  C   UNK N   1      29.664  24.797  -3.903  0.00  0.00     0.011 A 
HETATM    4  C   UNK N   1      30.500  23.986  -3.129  0.00  0.00     0.001 A 
HETATM    5  C   UNK N   1      29.949  23.068  -2.231  0.00  0.00     0.000 A 
HETATM    6  C   UNK N   1      28.565  22.972  -2.097  0.00  0.00     0.001 A 
HETATM    7  C   UNK N   1      27.731  23.782  -2.870  0.00  0.00     0.011 A 
ENDBRANCH   1   2
BRANCH   1   8
HETATM    8  C   UNK N   1      27.958  26.565  -5.645  0.00  0.00    -0.009 A 
HETATM    9  C   UNK N   1      29.122  27.239  -5.226  0.00  0.00     0.011 A 
HETATM   10  C   UNK N   1      29.623  28.330  -5.937  0.00  0.00     0.001 A 
HETATM   11  C   UNK N   1      28.958  28.782  -7.076  0.00  0.00     0.000 A 
HETATM   12  C   UNK N   1      27.801  28.131  -7.512  0.00  0.00     0.001 A 
HETATM   13  C   UNK N   1      27.302  27.035  -6.799  0.00  0.00     0.011 A 
ENDBRANCH   1   8
BRANCH   1  14
HETATM   14  C   UNK N   1      26.884  24.386  -5.732  0.00  0.00     0.304 C 
HETATM   15  O   UNK N   1      25.713  24.062  -5.826  0.00  0.00    -0.261 OA
BRANCH  14  16
HETATM   16  O   UNK N   1      27.845  23.760  -6.463  0.00  0.00    -0.313 OA
BRANCH  16  17
HETATM   17  C   UNK N   1      27.960  22.410  -6.653  0.00  0.00     0.135 C 
HETATM   18  C   UNK N   1      29.393  22.025  -6.278  0.00  0.00     0.062 C 
HETATM   19  C   UNK N   1      29.700  20.602  -6.727  0.00  0.00     0.274 C 
HETATM   20  N   UNK N   1      29.534  20.503  -8.174  0.00  0.00     0.084 N 
HETATM   21  C   UNK N   1      29.877  19.145  -8.554  0.00  0.00     0.309 C 
HETATM   22  C   UNK N   1      28.122  20.703  -8.491  0.00  0.00     0.274 C 
HETATM   23  C   UNK N   1      27.710  22.129  -8.136  0.00  0.00     0.062 C 
ENDBRANCH  16  17
ENDBRANCH  14  16
ENDBRANCH   1  14
BRANCH   1  24
HETATM   24  O   UNK N   1      26.175  25.972  -4.076  0.00  0.00    -0.360 OA
BRANCH  24  25
HETATM   25  C   UNK N   1      26.523  27.126  -3.331  0.00  0.00     0.170 C 
BRANCH  25  26
HETATM   26  C   UNK N   1      25.648  28.303  -3.708  0.00  0.00     0.022 C 
HETATM   27  C   UNK N   1      26.520  29.533  -3.877  0.00  0.00     0.007 C 
ENDBRANCH  25  26
ENDBRANCH  24  25
ENDBRANCH   1  24
TORSDOF 8
ENDMDL
MODEL 5
REMARK VINA RESULT:      -6.2      4.956      8.496
REMARK  8 active torsions:
REMARK  status: ('A' for Active; 'I' for Inactive)
REMARK    1  A    between atoms: C_18  and  C_3 
REMARK    2  A    between atoms: O_26  and  C_18 
REMARK    3  A    between atoms: C_23  and  C_19 
REMARK    4  A    between atoms: C_23  and  C_20 
REMARK    5  A    between atoms: O_27  and  C_21 
REMARK    6  A    between atoms: C_23  and  C_22 
REMARK    7  A    between atoms: O_27  and  C_22 
REMARK    8  A    between atoms: O_26  and  C_23 
ROOT
HETATM    1  C   UNK N   1      29.070  17.162   5.505  0.00  0.00     0.203 C 
ENDROOT
BRANCH   1   2
HETATM    2  C   UNK N   1      29.185  17.420   7.026  0.00  0.00    -0.009 A 
HETATM    3  C   UNK N   1      28.037  17.540   7.834  0.00  0.00     0.011 A 
HETATM    4  C   UNK N   1      28.139  17.942   9.170  0.00  0.00     0.001 A 
HETATM    5  C   UNK N   1      29.387  18.250   9.716  0.00  0.00     0.000 A 
HETATM    6  C   UNK N   1      30.535  18.141   8.931  0.00  0.00     0.001 A 
HETATM    7  C   UNK N   1      30.432  17.739   7.598  0.00  0.00     0.011 A 
ENDBRANCH   1   2
BRANCH   1   8
HETATM    8  C   UNK N   1      30.375  17.183   4.678  0.00  0.00    -0.009 A 
HETATM    9  C   UNK N   1      30.375  16.754   3.337  0.00  0.00     0.011 A 
HETATM   10  C   UNK N   1      31.565  16.626   2.618  0.00  0.00     0.001 A 
HETATM   11  C   UNK N   1      32.783  16.909   3.233  0.00  0.00     0.000 A 
HETATM   12  C   UNK N   1      32.809  17.336   4.563  0.00  0.00     0.001 A 
HETATM   13  C   UNK N   1      31.615  17.467   5.282  0.00  0.00     0.011 A 
ENDBRANCH   1   8
BRANCH   1  14
HETATM   14  C   UNK N   1      28.575  15.728   5.419  0.00  0.00     0.304 C 
HETATM   15  O   UNK N   1      29.305  14.788   5.683  0.00  0.00    -0.261 OA
BRANCH  14  16
HETATM   16  O   UNK N   1      27.300  15.524   4.993  0.00  0.00    -0.313 OA
BRANCH  16  17
HETATM   17  C   UNK N   1      26.928  14.875   3.846  0.00  0.00     0.135 C 
HETATM   18  C   UNK N   1      26.640  15.949   2.796  0.00  0.00     0.062 C 
HETATM   19  C   UNK N   1      25.948  15.341   1.583  0.00  0.00     0.274 C 
HETATM   20  N   UNK N   1      24.693  14.722   2.000  0.00  0.00     0.084 N 
HETATM   21  C   UNK N   1      24.056  14.196   0.807  0.00  0.00     0.309 C 
HETATM   22  C   UNK N   1      25.004  13.588   2.866  0.00  0.00     0.274 C 
HETATM   23  C   UNK N   1      25.654  14.085   4.155  0.00  0.00     0.062 C 
ENDBRANCH  16  17
ENDBRANCH  14  16
ENDBRANCH   1  14
BRANCH   1  24
HETATM   24  O   UNK N   1      28.087  18.023   4.916  0.00  0.00    -0.360 OA
BRANCH  24  25
HETATM   25  C   UNK N   1      28.567  19.356   4.892  0.00  0.00     0.170 C 
BRANCH  25  26
HETATM   26  C   UNK N   1      27.426  20.348   4.992  0.00  0.00     0.022 C 
HETATM   27  C   UNK N   1      27.520  21.078   6.318  0.00  0.00     0.007 C 
ENDBRANCH  25  26
ENDBRANCH  24  25
ENDBRANCH   1  24
TORSDOF 8
ENDMDL
MODEL 6
REMARK VINA RESULT:      -6.2     13.224     16.502
REMARK  8 active torsions:
REMARK  status: ('A' for Active; 'I' for Inactive)
REMARK    1  A    between atoms: C_18  and  C_3 
REMARK    2  A    between atoms: O_26  and  C_18 
REMARK    3  A    between atoms: C_23  and  C_19 
REMARK    4  A    between atoms: C_23  and  C_20 
REMARK    5  A    between atoms: O_27  and  C_21 
REMARK    6  A    between atoms: C_23  and  C_22 
REMARK    7  A    between atoms: O_27  and  C_22 
REMARK    8  A    between atoms: O_26  and  C_23 
ROOT
HETATM    1  C   UNK N   1      27.691  24.656  -5.695  0.00  0.00     0.203 C 
ENDROOT
BRANCH   1   2
HETATM    2  C   UNK N   1      27.062  23.534  -6.555  0.00  0.00    -0.009 A 
HETATM    3  C   UNK N   1      25.731  23.120  -6.353  0.00  0.00     0.011 A 
HETATM    4  C   UNK N   1      25.222  21.995  -7.010  0.00  0.00     0.001 A 
HETATM    5  C   UNK N   1      26.040  21.254  -7.867  0.00  0.00     0.000 A 
HETATM    6  C   UNK N   1      27.361  21.647  -8.078  0.00  0.00     0.001 A 
HETATM    7  C   UNK N   1      27.869  22.770  -7.422  0.00  0.00     0.011 A 
ENDBRANCH   1   2
BRANCH   1   8
HETATM    8  C   UNK N   1      26.757  25.781  -5.197  0.00  0.00    -0.009 A 
HETATM    9  C   UNK N   1      25.571  26.083  -5.895  0.00  0.00     0.011 A 
HETATM   10  C   UNK N   1      24.789  27.186  -5.549  0.00  0.00     0.001 A 
HETATM   11  C   UNK N   1      25.188  28.023  -4.508  0.00  0.00     0.000 A 
HETATM   12  C   UNK N   1      26.360  27.746  -3.802  0.00  0.00     0.001 A 
HETATM   13  C   UNK N   1      27.142  26.637  -4.147  0.00  0.00     0.011 A 
ENDBRANCH   1   8
BRANCH   1  14
HETATM   14  C   UNK N   1      28.141  23.935  -4.435  0.00  0.00     0.304 C 
HETATM   15  O   UNK N   1      27.344  23.610  -3.572  0.00  0.00    -0.261 OA
BRANCH  14  16
HETATM   16  O   UNK N   1      29.472  23.704  -4.280  0.00  0.00    -0.313 OA
BRANCH  16  17
HETATM   17  C   UNK N   1      30.047  22.515  -3.921  0.00  0.00     0.135 C 
HETATM   18  C   UNK N   1      31.350  22.849  -3.192  0.00  0.00     0.062 C 
HETATM   19  C   UNK N   1      32.198  21.597  -3.009  0.00  0.00     0.274 C 
HETATM   20  N   UNK N   1      32.506  21.024  -4.315  0.00  0.00     0.084 N 
HETATM   21  C   UNK N   1      33.345  19.862  -4.088  0.00  0.00     0.309 C 
HETATM   22  C   UNK N   1      31.262  20.553  -4.918  0.00  0.00     0.274 C 
HETATM   23  C   UNK N   1      30.347  21.740  -5.206  0.00  0.00     0.062 C 
ENDBRANCH  16  17
ENDBRANCH  14  16
ENDBRANCH   1  14
BRANCH   1  24
HETATM   24  O   UNK N   1      28.843  25.209  -6.344  0.00  0.00    -0.360 OA
BRANCH  24  25
HETATM   25  C   UNK N   1      28.439  26.021  -7.433  0.00  0.00     0.170 C 
BRANCH  25  26
HETATM   26  C   UNK N   1      29.171  27.347  -7.425  0.00  0.00     0.022 C 
HETATM   27  C   UNK N   1      28.161  28.468  -7.279  0.00  0.00     0.007 C 
ENDBRANCH  25  26
ENDBRANCH  24  25
ENDBRANCH   1  24
TORSDOF 8
ENDMDL
MODEL 7
REMARK VINA RESULT:      -6.1      4.583      7.642
REMARK  8 active torsions:
REMARK  status: ('A' for Active; 'I' for Inactive)
REMARK    1  A    between atoms: C_18  and  C_3 
REMARK    2  A    between atoms: O_26  and  C_18 
REMARK    3  A    between atoms: C_23  and  C_19 
REMARK    4  A    between atoms: C_23  and  C_20 
REMARK    5  A    between atoms: O_27  and  C_21 
REMARK    6  A    between atoms: C_23  and  C_22 
REMARK    7  A    between atoms: O_27  and  C_22 
REMARK    8  A    between atoms: O_26  and  C_23 
ROOT
HETATM    1  C   UNK N   1      29.160  17.108   6.058  0.00  0.00     0.203 C 
ENDROOT
BRANCH   1   2
HETATM    2  C   UNK N   1      30.511  16.781   5.378  0.00  0.00    -0.009 A 
HETATM    3  C   UNK N   1      31.220  15.605   5.694  0.00  0.00     0.011 A 
HETATM    4  C   UNK N   1      32.516  15.398   5.210  0.00  0.00     0.001 A 
HETATM    5  C   UNK N   1      33.132  16.369   4.417  0.00  0.00     0.000 A 
HETATM    6  C   UNK N   1      32.447  17.540   4.095  0.00  0.00     0.001 A 
HETATM    7  C   UNK N   1      31.153  17.747   4.579  0.00  0.00     0.011 A 
ENDBRANCH   1   2
BRANCH   1   8
HETATM    8  C   UNK N   1      28.430  18.394   5.610  0.00  0.00    -0.009 A 
HETATM    9  C   UNK N   1      27.981  19.327   6.565  0.00  0.00     0.011 A 
HETATM   10  C   UNK N   1      27.194  20.419   6.196  0.00  0.00     0.001 A 
HETATM   11  C   UNK N   1      26.825  20.591   4.862  0.00  0.00     0.000 A 
HETATM   12  C   UNK N   1      27.256  19.679   3.897  0.00  0.00     0.001 A 
HETATM   13  C   UNK N   1      28.048  18.586   4.268  0.00  0.00     0.011 A 
ENDBRANCH   1   8
BRANCH   1  14
HETATM   14  C   UNK N   1      28.252  15.970   5.620  0.00  0.00     0.304 C 
HETATM   15  O   UNK N   1      28.441  15.375   4.574  0.00  0.00    -0.261 OA
BRANCH  14  16
HETATM   16  O   UNK N   1      27.190  15.668   6.415  0.00  0.00    -0.313 OA
BRANCH  16  17
HETATM   17  C   UNK N   1      25.959  15.247   5.989  0.00  0.00     0.135 C 
HETATM   18  C   UNK N   1      25.202  16.488   5.511  0.00  0.00     0.062 C 
HETATM   19  C   UNK N   1      23.730  16.165   5.289  0.00  0.00     0.274 C 
HETATM   20  N   UNK N   1      23.144  15.690   6.539  0.00  0.00     0.084 N 
HETATM   21  C   UNK N   1      21.738  15.436   6.285  0.00  0.00     0.309 C 
HETATM   22  C   UNK N   1      23.763  14.413   6.883  0.00  0.00     0.274 C 
HETATM   23  C   UNK N   1      25.244  14.623   7.189  0.00  0.00     0.062 C 
ENDBRANCH  16  17
ENDBRANCH  14  16
ENDBRANCH   1  14
BRANCH   1  24
HETATM   24  O   UNK N   1      29.286  17.072   7.485  0.00  0.00    -0.360 OA
BRANCH  24  25
HETATM   25  C   UNK N   1      30.603  17.435   7.861  0.00  0.00     0.170 C 
BRANCH  25  26
HETATM   26  C   UNK N   1      30.588  18.494   8.944  0.00  0.00     0.022 C 
HETATM   27  C   UNK N   1      29.359  18.298   9.810  0.00  0.00     0.007 C 
ENDBRANCH  25  26
ENDBRANCH  24  25
ENDBRANCH   1  24
TORSDOF 8
ENDMDL
MODEL 8
REMARK VINA RESULT:      -6.1      4.953      8.044
REMARK  8 active torsions:
REMARK  status: ('A' for Active; 'I' for Inactive)
REMARK    1  A    between atoms: C_18  and  C_3 
REMARK    2  A    between atoms: O_26  and  C_18 
REMARK    3  A    between atoms: C_23  and  C_19 
REMARK    4  A    between atoms: C_23  and  C_20 
REMARK    5  A    between atoms: O_27  and  C_21 
REMARK    6  A    between atoms: C_23  and  C_22 
REMARK    7  A    between atoms: O_27  and  C_22 
REMARK    8  A    between atoms: O_26  and  C_23 
ROOT
HETATM    1  C   UNK N   1      28.722  17.138   6.387  0.00  0.00     0.203 C 
ENDROOT
BRANCH   1   2
HETATM    2  C   UNK N   1      29.849  16.497   5.543  0.00  0.00    -0.009 A 
HETATM    3  C   UNK N   1      30.547  17.241   4.572  0.00  0.00     0.011 A 
HETATM    4  C   UNK N   1      31.441  16.617   3.696  0.00  0.00     0.001 A 
HETATM    5  C   UNK N   1      31.640  15.236   3.763  0.00  0.00     0.000 A 
HETATM    6  C   UNK N   1      30.957  14.482   4.716  0.00  0.00     0.001 A 
HETATM    7  C   UNK N   1      30.064  15.105   5.590  0.00  0.00     0.011 A 
ENDBRANCH   1   2
BRANCH   1   8
HETATM    8  C   UNK N   1      28.220  18.536   5.961  0.00  0.00    -0.009 A 
HETATM    9  C   UNK N   1      27.820  19.475   6.931  0.00  0.00     0.011 A 
HETATM   10  C   UNK N   1      27.228  20.685   6.565  0.00  0.00     0.001 A 
HETATM   11  C   UNK N   1      27.008  20.973   5.219  0.00  0.00     0.000 A 
HETATM   12  C   UNK N   1      27.395  20.057   4.239  0.00  0.00     0.001 A 
HETATM   13  C   UNK N   1      27.992  18.846   4.606  0.00  0.00     0.011 A 
ENDBRANCH   1   8
BRANCH   1  14
HETATM   14  C   UNK N   1      27.536  16.213   6.168  0.00  0.00     0.304 C 
HETATM   15  O   UNK N   1      26.726  16.001   7.054  0.00  0.00    -0.261 OA
BRANCH  14  16
HETATM   16  O   UNK N   1      27.434  15.591   4.963  0.00  0.00    -0.313 OA
BRANCH  16  17
HETATM   17  C   UNK N   1      26.409  15.734   4.068  0.00  0.00     0.135 C 
HETATM   18  C   UNK N   1      25.471  14.542   4.267  0.00  0.00     0.062 C 
HETATM   19  C   UNK N   1      24.460  14.460   3.130  0.00  0.00     0.274 C 
HETATM   20  N   UNK N   1      25.167  14.313   1.862  0.00  0.00     0.084 N 
HETATM   21  C   UNK N   1      24.163  14.199   0.820  0.00  0.00     0.309 C 
HETATM   22  C   UNK N   1      25.921  15.539   1.610  0.00  0.00     0.274 C 
HETATM   23  C   UNK N   1      27.014  15.698   2.663  0.00  0.00     0.062 C 
ENDBRANCH  16  17
ENDBRANCH  14  16
ENDBRANCH   1  14
BRANCH   1  24
HETATM   24  O   UNK N   1      29.061  17.129   7.780  0.00  0.00    -0.360 OA
BRANCH  24  25
HETATM   25  C   UNK N   1      30.461  17.285   7.936  0.00  0.00     0.170 C 
BRANCH  25  26
HETATM   26  C   UNK N   1      30.780  18.433   8.871  0.00  0.00     0.022 C 
HETATM   27  C   UNK N   1      29.676  18.551   9.904  0.00  0.00     0.007 C 
ENDBRANCH  25  26
ENDBRANCH  24  25
ENDBRANCH   1  24
TORSDOF 8
ENDMDL
MODEL 9
REMARK VINA RESULT:      -6.0      4.838      8.361
REMARK  8 active torsions:
REMARK  status: ('A' for Active; 'I' for Inactive)
REMARK    1  A    between atoms: C_18  and  C_3 
REMARK    2  A    between atoms: O_26  and  C_18 
REMARK    3  A    between atoms: C_23  and  C_19 
REMARK    4  A    between atoms: C_23  and  C_20 
REMARK    5  A    between atoms: O_27  and  C_21 
REMARK    6  A    between atoms: C_23  and  C_22 
REMARK    7  A    between atoms: O_27  and  C_22 
REMARK    8  A    between atoms: O_26  and  C_23 
ROOT
HETATM    1  C   UNK N   1      29.009  17.382   4.697  0.00  0.00     0.203 C 
ENDROOT
BRANCH   1   2
HETATM    2  C   UNK N   1      28.277  18.706   5.017  0.00  0.00    -0.009 A 
HETATM    3  C   UNK N   1      28.201  19.197   6.335  0.00  0.00     0.011 A 
HETATM    4  C   UNK N   1      27.395  20.298   6.645  0.00  0.00     0.001 A 
HETATM    5  C   UNK N   1      26.638  20.915   5.646  0.00  0.00     0.000 A 
HETATM    6  C   UNK N   1      26.697  20.442   4.336  0.00  0.00     0.001 A 
HETATM    7  C   UNK N   1      27.502  19.343   4.027  0.00  0.00     0.011 A 
ENDBRANCH   1   2
BRANCH   1   8
HETATM    8  C   UNK N   1      30.511  17.295   5.049  0.00  0.00    -0.009 A 
HETATM    9  C   UNK N   1      30.922  17.164   6.389  0.00  0.00     0.011 A 
HETATM   10  C   UNK N   1      32.271  17.231   6.743  0.00  0.00     0.001 A 
HETATM   11  C   UNK N   1      33.237  17.448   5.762  0.00  0.00     0.000 A 
HETATM   12  C   UNK N   1      32.855  17.583   4.426  0.00  0.00     0.001 A 
HETATM   13  C   UNK N   1      31.502  17.512   4.072  0.00  0.00     0.011 A 
ENDBRANCH   1   8
BRANCH   1  14
HETATM   14  C   UNK N   1      28.335  16.368   5.607  0.00  0.00     0.304 C 
HETATM   15  O   UNK N   1      28.897  15.336   5.933  0.00  0.00    -0.261 OA
BRANCH  14  16
HETATM   16  O   UNK N   1      27.063  16.628   6.010  0.00  0.00    -0.313 OA
BRANCH  16  17
HETATM   17  C   UNK N   1      25.949  15.904   5.681  0.00  0.00     0.135 C 
HETATM   18  C   UNK N   1      24.889  16.900   5.210  0.00  0.00     0.062 C 
HETATM   19  C   UNK N   1      23.529  16.222   5.096  0.00  0.00     0.274 C 
HETATM   20  N   UNK N   1      23.145  15.684   6.398  0.00  0.00     0.084 N 
HETATM   21  C   UNK N   1      21.831  15.088   6.246  0.00  0.00     0.309 C 
HETATM   22  C   UNK N   1      24.074  14.612   6.747  0.00  0.00     0.274 C 
HETATM   23  C   UNK N   1      25.474  15.187   6.947  0.00  0.00     0.062 C 
ENDBRANCH  16  17
ENDBRANCH  14  16
ENDBRANCH   1  14
BRANCH   1  24
HETATM   24  O   UNK N   1      28.789  16.994   3.335  0.00  0.00    -0.360 OA
BRANCH  24  25
HETATM   25  C   UNK N   1      28.792  15.581   3.229  0.00  0.00     0.170 C 
BRANCH  25  26
HETATM   26  C   UNK N   1      28.079  15.127   1.973  0.00  0.00     0.022 C 
HETATM   27  C   UNK N   1      26.600  15.434   2.105  0.00  0.00     0.007 C 
ENDBRANCH  25  26
ENDBRANCH  24  25
ENDBRANCH   1  24
TORSDOF 8
ENDMDL
