MODEL 1
REMARK VINA RESULT:      -8.4      0.000      0.000
REMARK  16 active torsions:
REMARK  status: ('A' for Active; 'I' for Inactive)
REMARK    1  A    between atoms: C_17  and  C_16 
REMARK    2  A    between atoms: O_48  and  C_16 
REMARK    3  A    between atoms: S_51  and  C_17 
REMARK    4  A    between atoms: C_22  and  C_20 
REMARK    5  A    between atoms: N_37  and  C_20 
REMARK    6  A    between atoms: N_47  and  C_23 
REMARK    7  A    between atoms: S_52  and  C_24 
REMARK    8  A    between atoms: C_33  and  C_25 
REMARK    9  A    between atoms: O_49  and  C_27 
REMARK   10  A    between atoms: S_52  and  C_28 
REMARK   11  A    between atoms: S_51  and  C_29 
REMARK   12  A    between atoms: C_35  and  C_30 
REMARK   13  A    between atoms: N_39  and  C_32 
REMARK   14  A    between atoms: N_37  and  C_34 
REMARK   15  A    between atoms: N_39  and  C_34 
REMARK   16  A    between atoms: O_50  and  C_34 
ROOT
HETATM    1  C   UNK N   1      34.112  11.960   8.399  0.00  0.00     0.001 A 
HETATM    2  C   UNK N   1      34.284  12.306   7.057  0.00  0.00     0.001 A 
HETATM    3  C   UNK N   1      33.809  12.945   9.340  0.00  0.00     0.010 A 
HETATM    4  C   UNK N   1      34.148  13.636   6.656  0.00  0.00     0.019 A 
HETATM    5  C   UNK N   1      33.680  14.283   8.950  0.00  0.00    -0.023 A 
HETATM    6  C   UNK N   1      33.848  14.633   7.591  0.00  0.00     0.013 A 
ENDROOT
BRANCH   5   7
HETATM    7  C   UNK N   1      33.265  15.285  10.000  0.00  0.00     0.163 C 
BRANCH   7   8
HETATM    8  N   UNK N   1      34.272  15.754  10.950  0.00  0.00    -0.352 N 
ATOM      9  HN  UNK N   1      34.059  15.610  11.936  1.00  0.00     0.163 HD
BRANCH   8  10
HETATM   10  C   UNK N   1      35.402  16.329  10.689  0.00  0.00     0.218 C 
BRANCH  10  11
HETATM   11  N   UNK N   1      36.624  15.668  10.998  0.00  0.00    -0.307 N 
HETATM   12  H   UNK N   1      37.306  16.179  11.492  0.00  0.00     0.171 HD
BRANCH  11  13
HETATM   13  C   UNK N   1      36.937  14.321  10.648  0.00  0.00     0.132 A 
HETATM   14  C   UNK N   1      37.467  13.959   9.425  0.00  0.00     0.077 A 
HETATM   15  C   UNK N   1      37.605  12.580   9.516  0.00  0.00     0.037 A 
HETATM   16  N   UNK N   1      37.161  12.157  10.717  0.00  0.00    -0.295 N 
HETATM   17  N   UNK N   1      36.748  13.206  11.410  0.00  0.00    -0.240 N 
ATOM     18  HN  UNK N   1      37.146  11.189  11.037  1.00  0.00     0.187 HD
BRANCH  15  19
HETATM   19  C   UNK N   1      38.183  11.673   8.460  0.00  0.00    -0.007 C 
HETATM   20  C   UNK N   1      39.664  11.457   8.706  0.00  0.00     0.021 C 
HETATM   21  C   UNK N   1      38.012  12.265   7.069  0.00  0.00     0.021 C 
HETATM   22  C   UNK N   1      37.475  10.333   8.495  0.00  0.00     0.021 C 
ENDBRANCH  15  19
BRANCH  17  23
HETATM   23  C   UNK N   1      36.187  13.049  12.733  0.00  0.00     0.060 A 
HETATM   24  C   UNK N   1      36.608  13.903  13.767  0.00  0.00     0.034 A 
HETATM   25  C   UNK N   1      36.056  13.801  15.047  0.00  0.00     0.040 A 
HETATM   26  C   UNK N   1      35.069  12.849  15.308  0.00  0.00     0.087 A 
HETATM   27  C   UNK N   1      34.652  11.981  14.291  0.00  0.00     0.069 A 
HETATM   28  C   UNK N   1      35.222  12.079  13.020  0.00  0.00     0.058 A 
HETATM   29 Cl   UNK N   1      33.400  10.786  14.577  0.00  0.00    -0.081 Cl
BRANCH  26  30
HETATM   30  O   UNK N   1      34.523  12.774  16.534  0.00  0.00    -0.359 OA
HETATM   31  H   UNK N   1      35.048  12.531  17.270  0.00  0.00     0.217 HD
ENDBRANCH  26  30
ENDBRANCH  17  23
ENDBRANCH  11  13
ENDBRANCH  10  11
BRANCH  10  32
HETATM   32  O   UNK N   1      35.450  17.551  10.121  0.00  0.00    -0.332 OA
HETATM   33  H   UNK N   1      35.198  17.840   9.266  0.00  0.00     0.220 HD
ENDBRANCH  10  32
ENDBRANCH   8  10
ENDBRANCH   7   8
ENDBRANCH   5   7
BRANCH   6  34
HETATM   34  S   UNK N   1      33.553  16.336   7.091  0.00  0.00    -0.089 SA
BRANCH  34  35
HETATM   35  C   UNK N   1      32.571  16.289   5.581  0.00  0.00     0.021 A 
HETATM   36  C   UNK N   1      32.764  15.383   4.513  0.00  0.00     0.024 A 
HETATM   37  C   UNK N   1      31.814  15.307   3.472  0.00  0.00     0.052 A 
HETATM   38  C   UNK N   1      30.676  16.105   3.586  0.00  0.00     0.127 A 
HETATM   39  N   UNK N   1      29.643  16.185   2.729  0.00  0.00    -0.283 N 
HETATM   40  N   UNK N   1      30.500  16.925   4.626  0.00  0.00    -0.290 N 
HETATM   41  N   UNK N   1      28.794  17.076   3.235  0.00  0.00    -0.283 N 
ATOM     42  HN  UNK N   1      29.532  15.664   1.860  1.00  0.00     0.188 HD
HETATM   43  C   UNK N   1      29.309  17.517   4.413  0.00  0.00     0.139 A 
ATOM     44  HN  UNK N   1      27.914  17.375   2.815  1.00  0.00     0.188 HD
HETATM   45  C   UNK N   1      31.416  17.061   5.602  0.00  0.00     0.119 A 
BRANCH  43  46
HETATM   46  C   UNK N   1      28.627  18.558   5.255  0.00  0.00     0.027 A 
HETATM   47  C   UNK N   1      28.213  19.709   4.565  0.00  0.00     0.017 A 
HETATM   48  C   UNK N   1      27.589  20.771   5.218  0.00  0.00     0.001 A 
HETATM   49  C   UNK N   1      27.348  20.701   6.585  0.00  0.00     0.001 A 
HETATM   50  C   UNK N   1      27.706  19.559   7.294  0.00  0.00     0.019 A 
HETATM   51  C   UNK N   1      28.343  18.482   6.665  0.00  0.00     0.014 A 
BRANCH  51  52
HETATM   52  S   UNK N   1      28.598  17.034   7.701  0.00  0.00    -0.127 SA
BRANCH  52  53
HETATM   53  C   UNK N   1      28.228  17.909   9.258  0.00  0.00     0.105 C 
BRANCH  53  54
HETATM   54  C   UNK N   1      29.513  18.352   9.932  0.00  0.00     0.174 C 
BRANCH  54  55
HETATM   55  O   UNK N   1      30.593  17.634   9.418  0.00  0.00    -0.400 OA
HETATM   56  H   UNK N   1      31.321  17.195   9.886  0.00  0.00     0.209 HD
ENDBRANCH  54  55
ENDBRANCH  53  54
ENDBRANCH  52  53
ENDBRANCH  51  52
ENDBRANCH  43  46
ENDBRANCH  34  35
ENDBRANCH   6  34
TORSDOF 16
ENDMDL
MODEL 2
REMARK VINA RESULT:      -8.4      7.768     13.247
REMARK  16 active torsions:
REMARK  status: ('A' for Active; 'I' for Inactive)
REMARK    1  A    between atoms: C_17  and  C_16 
REMARK    2  A    between atoms: O_48  and  C_16 
REMARK    3  A    between atoms: S_51  and  C_17 
REMARK    4  A    between atoms: C_22  and  C_20 
REMARK    5  A    between atoms: N_37  and  C_20 
REMARK    6  A    between atoms: N_47  and  C_23 
REMARK    7  A    between atoms: S_52  and  C_24 
REMARK    8  A    between atoms: C_33  and  C_25 
REMARK    9  A    between atoms: O_49  and  C_27 
REMARK   10  A    between atoms: S_52  and  C_28 
REMARK   11  A    between atoms: S_51  and  C_29 
REMARK   12  A    between atoms: C_35  and  C_30 
REMARK   13  A    between atoms: N_39  and  C_32 
REMARK   14  A    between atoms: N_37  and  C_34 
REMARK   15  A    between atoms: N_39  and  C_34 
REMARK   16  A    between atoms: O_50  and  C_34 
ROOT
HETATM    1  C   UNK N   1      18.529  13.328   0.387  0.00  0.00     0.001 A 
HETATM    2  C   UNK N   1      19.519  12.345   0.456  0.00  0.00     0.001 A 
HETATM    3  C   UNK N   1      18.853  14.662   0.632  0.00  0.00     0.010 A 
HETATM    4  C   UNK N   1      20.833  12.699   0.765  0.00  0.00     0.019 A 
HETATM    5  C   UNK N   1      20.166  15.027   0.951  0.00  0.00    -0.023 A 
HETATM    6  C   UNK N   1      21.170  14.034   1.016  0.00  0.00     0.013 A 
ENDROOT
BRANCH   5   7
HETATM    7  C   UNK N   1      20.468  16.497   1.118  0.00  0.00     0.163 C 
BRANCH   7   8
HETATM    8  N   UNK N   1      19.570  17.302   1.942  0.00  0.00    -0.352 N 
ATOM      9  HN  UNK N   1      18.800  17.758   1.453  1.00  0.00     0.163 HD
BRANCH   8  10
HETATM   10  C   UNK N   1      19.633  17.506   3.219  0.00  0.00     0.218 C 
BRANCH  10  11
HETATM   11  N   UNK N   1      20.335  18.638   3.724  0.00  0.00    -0.307 N 
HETATM   12  H   UNK N   1      19.838  19.484   3.801  0.00  0.00     0.171 HD
BRANCH  11  13
HETATM   13  C   UNK N   1      21.704  18.639   4.126  0.00  0.00     0.132 A 
HETATM   14  C   UNK N   1      22.708  19.243   3.395  0.00  0.00     0.077 A 
HETATM   15  C   UNK N   1      23.855  19.000   4.140  0.00  0.00     0.037 A 
HETATM   16  N   UNK N   1      23.543  18.276   5.233  0.00  0.00    -0.295 N 
HETATM   17  N   UNK N   1      22.239  18.047   5.231  0.00  0.00    -0.240 N 
ATOM     18  HN  UNK N   1      24.202  17.958   5.943  1.00  0.00     0.187 HD
BRANCH  15  19
HETATM   19  C   UNK N   1      25.246  19.481   3.812  0.00  0.00    -0.007 C 
HETATM   20  C   UNK N   1      26.112  18.317   3.369  0.00  0.00     0.021 C 
HETATM   21  C   UNK N   1      25.904  20.133   5.017  0.00  0.00     0.021 C 
HETATM   22  C   UNK N   1      25.183  20.503   2.694  0.00  0.00     0.021 C 
ENDBRANCH  15  19
BRANCH  17  23
HETATM   23  C   UNK N   1      21.621  17.262   6.276  0.00  0.00     0.060 A 
HETATM   24  C   UNK N   1      22.002  15.920   6.448  0.00  0.00     0.034 A 
HETATM   25  C   UNK N   1      21.452  15.148   7.474  0.00  0.00     0.040 A 
HETATM   26  C   UNK N   1      20.519  15.709   8.348  0.00  0.00     0.087 A 
HETATM   27  C   UNK N   1      20.119  17.040   8.178  0.00  0.00     0.069 A 
HETATM   28  C   UNK N   1      20.661  17.799   7.140  0.00  0.00     0.058 A 
HETATM   29 Cl   UNK N   1      18.964  17.785   9.269  0.00  0.00    -0.081 Cl
BRANCH  26  30
HETATM   30  O   UNK N   1      20.014  14.968   9.349  0.00  0.00    -0.359 OA
HETATM   31  H   UNK N   1      20.549  14.332   9.782  0.00  0.00     0.217 HD
ENDBRANCH  26  30
ENDBRANCH  17  23
ENDBRANCH  11  13
ENDBRANCH  10  11
BRANCH  10  32
HETATM   32  O   UNK N   1      19.041  16.667   4.092  0.00  0.00    -0.332 OA
HETATM   33  H   UNK N   1      19.120  16.593   5.023  0.00  0.00     0.220 HD
ENDBRANCH  10  32
ENDBRANCH   8  10
ENDBRANCH   7   8
ENDBRANCH   5   7
BRANCH   6  34
HETATM   34  S   UNK N   1      22.873  14.539   1.303  0.00  0.00    -0.089 SA
BRANCH  34  35
HETATM   35  C   UNK N   1      23.296  14.067   2.989  0.00  0.00     0.021 A 
HETATM   36  C   UNK N   1      22.546  13.184   3.799  0.00  0.00     0.024 A 
HETATM   37  C   UNK N   1      23.075  12.733   5.027  0.00  0.00     0.052 A 
HETATM   38  C   UNK N   1      24.367  13.142   5.355  0.00  0.00     0.127 A 
HETATM   39  N   UNK N   1      25.071  12.826   6.457  0.00  0.00    -0.283 N 
HETATM   40  N   UNK N   1      25.070  13.946   4.552  0.00  0.00    -0.290 N 
HETATM   41  N   UNK N   1      26.244  13.445   6.351  0.00  0.00    -0.283 N 
ATOM     42  HN  UNK N   1      24.765  12.228   7.224  1.00  0.00     0.188 HD
HETATM   43  C   UNK N   1      26.254  14.117   5.171  0.00  0.00     0.139 A 
ATOM     44  HN  UNK N   1      27.001  13.419   7.035  1.00  0.00     0.188 HD
HETATM   45  C   UNK N   1      24.569  14.439   3.405  0.00  0.00     0.119 A 
BRANCH  43  46
HETATM   46  C   UNK N   1      27.419  14.956   4.727  0.00  0.00     0.027 A 
HETATM   47  C   UNK N   1      27.992  14.584   3.500  0.00  0.00     0.017 A 
HETATM   48  C   UNK N   1      29.095  15.253   2.973  0.00  0.00     0.001 A 
HETATM   49  C   UNK N   1      29.649  16.328   3.658  0.00  0.00     0.001 A 
HETATM   50  C   UNK N   1      29.083  16.751   4.856  0.00  0.00     0.019 A 
HETATM   51  C   UNK N   1      27.981  16.091   5.413  0.00  0.00     0.014 A 
BRANCH  51  52
HETATM   52  S   UNK N   1      27.291  16.863   6.884  0.00  0.00    -0.127 SA
BRANCH  52  53
HETATM   53  C   UNK N   1      28.918  17.253   7.612  0.00  0.00     0.105 C 
BRANCH  53  54
HETATM   54  C   UNK N   1      28.756  18.199   8.787  0.00  0.00     0.174 C 
BRANCH  54  55
HETATM   55  O   UNK N   1      27.477  18.073   9.329  0.00  0.00    -0.400 OA
HETATM   56  H   UNK N   1      26.701  17.608   8.978  0.00  0.00     0.209 HD
ENDBRANCH  54  55
ENDBRANCH  53  54
ENDBRANCH  52  53
ENDBRANCH  51  52
ENDBRANCH  43  46
ENDBRANCH  34  35
ENDBRANCH   6  34
TORSDOF 16
ENDMDL
MODEL 3
REMARK VINA RESULT:      -8.3      1.643      2.411
REMARK  16 active torsions:
REMARK  status: ('A' for Active; 'I' for Inactive)
REMARK    1  A    between atoms: C_17  and  C_16 
REMARK    2  A    between atoms: O_48  and  C_16 
REMARK    3  A    between atoms: S_51  and  C_17 
REMARK    4  A    between atoms: C_22  and  C_20 
REMARK    5  A    between atoms: N_37  and  C_20 
REMARK    6  A    between atoms: N_47  and  C_23 
REMARK    7  A    between atoms: S_52  and  C_24 
REMARK    8  A    between atoms: C_33  and  C_25 
REMARK    9  A    between atoms: O_49  and  C_27 
REMARK   10  A    between atoms: S_52  and  C_28 
REMARK   11  A    between atoms: S_51  and  C_29 
REMARK   12  A    between atoms: C_35  and  C_30 
REMARK   13  A    between atoms: N_39  and  C_32 
REMARK   14  A    between atoms: N_37  and  C_34 
REMARK   15  A    between atoms: N_39  and  C_34 
REMARK   16  A    between atoms: O_50  and  C_34 
ROOT
HETATM    1  C   UNK N   1      34.546  12.370   7.956  0.00  0.00     0.001 A 
HETATM    2  C   UNK N   1      34.520  13.043   6.732  0.00  0.00     0.001 A 
HETATM    3  C   UNK N   1      34.214  13.046   9.130  0.00  0.00     0.010 A 
HETATM    4  C   UNK N   1      34.158  14.390   6.684  0.00  0.00     0.019 A 
HETATM    5  C   UNK N   1      33.858  14.398   9.095  0.00  0.00    -0.023 A 
HETATM    6  C   UNK N   1      33.826  15.079   7.856  0.00  0.00     0.013 A 
ENDROOT
BRANCH   5   7
HETATM    7  C   UNK N   1      33.426  15.047  10.388  0.00  0.00     0.163 C 
BRANCH   7   8
HETATM    8  N   UNK N   1      34.451  15.631  11.249  0.00  0.00    -0.352 N 
ATOM      9  HN  UNK N   1      34.295  15.547  12.253  1.00  0.00     0.163 HD
BRANCH   8  10
HETATM   10  C   UNK N   1      35.534  16.244  10.891  0.00  0.00     0.218 C 
BRANCH  10  11
HETATM   11  N   UNK N   1      36.802  15.634  11.113  0.00  0.00    -0.307 N 
HETATM   12  H   UNK N   1      37.502  16.182  11.535  0.00  0.00     0.171 HD
BRANCH  11  13
HETATM   13  C   UNK N   1      37.134  14.289  10.771  0.00  0.00     0.132 A 
HETATM   14  C   UNK N   1      37.711  13.934   9.568  0.00  0.00     0.077 A 
HETATM   15  C   UNK N   1      37.853  12.555   9.661  0.00  0.00     0.037 A 
HETATM   16  N   UNK N   1      37.366  12.126  10.842  0.00  0.00    -0.295 N 
HETATM   17  N   UNK N   1      36.921  13.172  11.522  0.00  0.00    -0.240 N 
ATOM     18  HN  UNK N   1      37.343  11.157  11.159  1.00  0.00     0.187 HD
BRANCH  15  19
HETATM   19  C   UNK N   1      38.474  11.654   8.624  0.00  0.00    -0.007 C 
HETATM   20  C   UNK N   1      37.843  10.276   8.681  0.00  0.00     0.021 C 
HETATM   21  C   UNK N   1      39.971  11.503   8.848  0.00  0.00     0.021 C 
HETATM   22  C   UNK N   1      38.258  12.239   7.242  0.00  0.00     0.021 C 
ENDBRANCH  15  19
BRANCH  17  23
HETATM   23  C   UNK N   1      36.311  13.007  12.822  0.00  0.00     0.060 A 
HETATM   24  C   UNK N   1      36.707  13.844  13.881  0.00  0.00     0.034 A 
HETATM   25  C   UNK N   1      36.107  13.736  15.138  0.00  0.00     0.040 A 
HETATM   26  C   UNK N   1      35.098  12.795  15.353  0.00  0.00     0.087 A 
HETATM   27  C   UNK N   1      34.707  11.944  14.312  0.00  0.00     0.069 A 
HETATM   28  C   UNK N   1      35.323  12.048  13.063  0.00  0.00     0.058 A 
HETATM   29 Cl   UNK N   1      33.429  10.764  14.539  0.00  0.00    -0.081 Cl
BRANCH  26  30
HETATM   30  O   UNK N   1      34.508  12.715  16.558  0.00  0.00    -0.359 OA
HETATM   31  H   UNK N   1      34.749  12.036  17.157  0.00  0.00     0.217 HD
ENDBRANCH  26  30
ENDBRANCH  17  23
ENDBRANCH  11  13
ENDBRANCH  10  11
BRANCH  10  32
HETATM   32  O   UNK N   1      35.490  17.455  10.303  0.00  0.00    -0.332 OA
HETATM   33  H   UNK N   1      34.846  18.134  10.343  0.00  0.00     0.220 HD
ENDBRANCH  10  32
ENDBRANCH   8  10
ENDBRANCH   7   8
ENDBRANCH   5   7
BRANCH   6  34
HETATM   34  S   UNK N   1      33.244  16.781   7.816  0.00  0.00    -0.089 SA
BRANCH  34  35
HETATM   35  C   UNK N   1      32.599  17.089   6.163  0.00  0.00     0.021 A 
HETATM   36  C   UNK N   1      33.377  17.459   5.042  0.00  0.00     0.024 A 
HETATM   37  C   UNK N   1      32.796  17.480   3.756  0.00  0.00     0.052 A 
HETATM   38  C   UNK N   1      31.469  17.065   3.648  0.00  0.00     0.127 A 
HETATM   39  N   UNK N   1      30.722  16.991   2.531  0.00  0.00    -0.283 N 
HETATM   40  N   UNK N   1      30.767  16.683   4.719  0.00  0.00    -0.290 N 
HETATM   41  N   UNK N   1      29.522  16.555   2.903  0.00  0.00    -0.283 N 
ATOM     42  HN  UNK N   1      31.020  17.224   1.584  1.00  0.00     0.188 HD
HETATM   43  C   UNK N   1      29.553  16.345   4.245  0.00  0.00     0.139 A 
ATOM     44  HN  UNK N   1      28.720  16.405   2.289  1.00  0.00     0.188 HD
HETATM   45  C   UNK N   1      31.277  16.710   5.964  0.00  0.00     0.119 A 
BRANCH  43  46
HETATM   46  C   UNK N   1      28.354  15.872   5.017  0.00  0.00     0.027 A 
HETATM   47  C   UNK N   1      28.038  14.513   4.860  0.00  0.00     0.017 A 
HETATM   48  C   UNK N   1      26.939  13.937   5.493  0.00  0.00     0.001 A 
HETATM   49  C   UNK N   1      26.129  14.708   6.319  0.00  0.00     0.001 A 
HETATM   50  C   UNK N   1      26.435  16.049   6.532  0.00  0.00     0.019 A 
HETATM   51  C   UNK N   1      27.528  16.654   5.900  0.00  0.00     0.014 A 
BRANCH  51  52
HETATM   52  S   UNK N   1      27.859  18.349   6.405  0.00  0.00    -0.127 SA
BRANCH  52  53
HETATM   53  C   UNK N   1      26.623  19.075   5.277  0.00  0.00     0.105 C 
BRANCH  53  54
HETATM   54  C   UNK N   1      27.287  19.535   3.993  0.00  0.00     0.174 C 
BRANCH  54  55
HETATM   55  O   UNK N   1      28.674  19.520   4.141  0.00  0.00    -0.400 OA
HETATM   56  H   UNK N   1      29.367  19.486   3.463  0.00  0.00     0.209 HD
ENDBRANCH  54  55
ENDBRANCH  53  54
ENDBRANCH  52  53
ENDBRANCH  51  52
ENDBRANCH  43  46
ENDBRANCH  34  35
ENDBRANCH   6  34
TORSDOF 16
ENDMDL
MODEL 4
REMARK VINA RESULT:      -8.3      4.609      7.379
REMARK  16 active torsions:
REMARK  status: ('A' for Active; 'I' for Inactive)
REMARK    1  A    between atoms: C_17  and  C_16 
REMARK    2  A    between atoms: O_48  and  C_16 
REMARK    3  A    between atoms: S_51  and  C_17 
REMARK    4  A    between atoms: C_22  and  C_20 
REMARK    5  A    between atoms: N_37  and  C_20 
REMARK    6  A    between atoms: N_47  and  C_23 
REMARK    7  A    between atoms: S_52  and  C_24 
REMARK    8  A    between atoms: C_33  and  C_25 
REMARK    9  A    between atoms: O_49  and  C_27 
REMARK   10  A    between atoms: S_52  and  C_28 
REMARK   11  A    between atoms: S_51  and  C_29 
REMARK   12  A    between atoms: C_35  and  C_30 
REMARK   13  A    between atoms: N_39  and  C_32 
REMARK   14  A    between atoms: N_37  and  C_34 
REMARK   15  A    between atoms: N_39  and  C_34 
REMARK   16  A    between atoms: O_50  and  C_34 
ROOT
HETATM    1  C   UNK N   1      27.331  21.074   5.870  0.00  0.00     0.001 A 
HETATM    2  C   UNK N   1      27.168  20.685   4.539  0.00  0.00     0.001 A 
HETATM    3  C   UNK N   1      27.666  20.126   6.837  0.00  0.00     0.010 A 
HETATM    4  C   UNK N   1      27.347  19.349   4.175  0.00  0.00     0.019 A 
HETATM    5  C   UNK N   1      27.838  18.783   6.485  0.00  0.00    -0.023 A 
HETATM    6  C   UNK N   1      27.680  18.389   5.137  0.00  0.00     0.013 A 
ENDROOT
BRANCH   5   7
HETATM    7  C   UNK N   1      28.286  17.824   7.562  0.00  0.00     0.163 C 
BRANCH   7   8
HETATM    8  N   UNK N   1      29.204  18.311   8.589  0.00  0.00    -0.352 N 
ATOM      9  HN  UNK N   1      29.090  19.284   8.869  1.00  0.00     0.163 HD
BRANCH   8  10
HETATM   10  C   UNK N   1      30.147  17.654   9.186  0.00  0.00     0.218 C 
BRANCH  10  11
HETATM   11  N   UNK N   1      31.502  17.834   8.787  0.00  0.00    -0.307 N 
HETATM   12  H   UNK N   1      32.028  18.518   9.260  0.00  0.00     0.171 HD
BRANCH  11  13
HETATM   13  C   UNK N   1      32.155  17.099   7.753  0.00  0.00     0.132 A 
HETATM   14  C   UNK N   1      31.707  17.067   6.447  0.00  0.00     0.077 A 
HETATM   15  C   UNK N   1      32.622  16.245   5.801  0.00  0.00     0.037 A 
HETATM   16  N   UNK N   1      33.539  15.803   6.684  0.00  0.00    -0.295 N 
HETATM   17  N   UNK N   1      33.261  16.312   7.874  0.00  0.00    -0.240 N 
ATOM     18  HN  UNK N   1      34.318  15.180   6.470  1.00  0.00     0.187 HD
BRANCH  15  19
HETATM   19  C   UNK N   1      32.626  15.902   4.333  0.00  0.00    -0.007 C 
HETATM   20  C   UNK N   1      33.868  15.102   3.985  0.00  0.00     0.021 C 
HETATM   21  C   UNK N   1      32.609  17.155   3.471  0.00  0.00     0.021 C 
HETATM   22  C   UNK N   1      31.398  15.078   3.998  0.00  0.00     0.021 C 
ENDBRANCH  15  19
BRANCH  17  23
HETATM   23  C   UNK N   1      34.066  15.983   9.029  0.00  0.00     0.060 A 
HETATM   24  C   UNK N   1      34.816  16.992   9.658  0.00  0.00     0.034 A 
HETATM   25  C   UNK N   1      35.571  16.713  10.800  0.00  0.00     0.040 A 
HETATM   26  C   UNK N   1      35.582  15.422  11.333  0.00  0.00     0.087 A 
HETATM   27  C   UNK N   1      34.853  14.405  10.707  0.00  0.00     0.069 A 
HETATM   28  C   UNK N   1      34.114  14.688   9.557  0.00  0.00     0.058 A 
HETATM   29 Cl   UNK N   1      34.826  12.777  11.360  0.00  0.00    -0.081 Cl
BRANCH  26  30
HETATM   30  O   UNK N   1      36.290  15.168  12.447  0.00  0.00    -0.359 OA
HETATM   31  H   UNK N   1      37.011  14.570  12.421  0.00  0.00     0.217 HD
ENDBRANCH  26  30
ENDBRANCH  17  23
ENDBRANCH  11  13
ENDBRANCH  10  11
BRANCH  10  32
HETATM   32  O   UNK N   1      29.874  16.799  10.191  0.00  0.00    -0.332 OA
HETATM   33  H   UNK N   1      30.438  16.386  10.816  0.00  0.00     0.220 HD
ENDBRANCH  10  32
ENDBRANCH   8  10
ENDBRANCH   7   8
ENDBRANCH   5   7
BRANCH   6  34
HETATM   34  S   UNK N   1      28.029  16.684   4.684  0.00  0.00    -0.089 SA
BRANCH  34  35
HETATM   35  C   UNK N   1      26.713  16.140   3.581  0.00  0.00     0.021 A 
HETATM   36  C   UNK N   1      26.899  15.379   2.404  0.00  0.00     0.024 A 
HETATM   37  C   UNK N   1      25.783  14.842   1.727  0.00  0.00     0.052 A 
HETATM   38  C   UNK N   1      24.529  15.043   2.303  0.00  0.00     0.127 A 
HETATM   39  N   UNK N   1      23.339  14.614   1.844  0.00  0.00    -0.283 N 
HETATM   40  N   UNK N   1      24.384  15.734   3.437  0.00  0.00    -0.290 N 
HETATM   41  N   UNK N   1      22.421  15.044   2.705  0.00  0.00    -0.283 N 
ATOM     42  HN  UNK N   1      23.175  14.066   1.001  1.00  0.00     0.188 HD
HETATM   43  C   UNK N   1      23.063  15.715   3.697  0.00  0.00     0.139 A 
ATOM     44  HN  UNK N   1      21.414  14.896   2.634  1.00  0.00     0.188 HD
HETATM   45  C   UNK N   1      25.423  16.307   4.072  0.00  0.00     0.119 A 
BRANCH  43  46
HETATM   46  C   UNK N   1      22.333  16.366   4.838  0.00  0.00     0.027 A 
HETATM   47  C   UNK N   1      22.022  15.516   5.912  0.00  0.00     0.017 A 
HETATM   48  C   UNK N   1      21.323  15.972   7.028  0.00  0.00     0.001 A 
HETATM   49  C   UNK N   1      20.928  17.302   7.107  0.00  0.00     0.001 A 
HETATM   50  C   UNK N   1      21.255  18.182   6.081  0.00  0.00     0.019 A 
HETATM   51  C   UNK N   1      21.947  17.749   4.944  0.00  0.00     0.014 A 
BRANCH  51  52
HETATM   52  S   UNK N   1      22.412  19.050   3.791  0.00  0.00    -0.127 SA
BRANCH  52  53
HETATM   53  C   UNK N   1      20.696  19.408   3.285  0.00  0.00     0.105 C 
BRANCH  53  54
HETATM   54  C   UNK N   1      20.124  18.243   2.500  0.00  0.00     0.174 C 
BRANCH  54  55
HETATM   55  O   UNK N   1      18.822  17.975   2.924  0.00  0.00    -0.400 OA
HETATM   56  H   UNK N   1      18.308  17.155   2.857  0.00  0.00     0.209 HD
ENDBRANCH  54  55
ENDBRANCH  53  54
ENDBRANCH  52  53
ENDBRANCH  51  52
ENDBRANCH  43  46
ENDBRANCH  34  35
ENDBRANCH   6  34
TORSDOF 16
ENDMDL
MODEL 5
REMARK VINA RESULT:      -8.2      7.669     13.684
REMARK  16 active torsions:
REMARK  status: ('A' for Active; 'I' for Inactive)
REMARK    1  A    between atoms: C_17  and  C_16 
REMARK    2  A    between atoms: O_48  and  C_16 
REMARK    3  A    between atoms: S_51  and  C_17 
REMARK    4  A    between atoms: C_22  and  C_20 
REMARK    5  A    between atoms: N_37  and  C_20 
REMARK    6  A    between atoms: N_47  and  C_23 
REMARK    7  A    between atoms: S_52  and  C_24 
REMARK    8  A    between atoms: C_33  and  C_25 
REMARK    9  A    between atoms: O_49  and  C_27 
REMARK   10  A    between atoms: S_52  and  C_28 
REMARK   11  A    between atoms: S_51  and  C_29 
REMARK   12  A    between atoms: C_35  and  C_30 
REMARK   13  A    between atoms: N_39  and  C_32 
REMARK   14  A    between atoms: N_37  and  C_34 
REMARK   15  A    between atoms: N_39  and  C_34 
REMARK   16  A    between atoms: O_50  and  C_34 
ROOT
HETATM    1  C   UNK N   1      21.040  11.459   6.077  0.00  0.00     0.001 A 
HETATM    2  C   UNK N   1      22.284  10.826   6.035  0.00  0.00     0.001 A 
HETATM    3  C   UNK N   1      20.920  12.724   6.652  0.00  0.00     0.010 A 
HETATM    4  C   UNK N   1      23.408  11.461   6.565  0.00  0.00     0.019 A 
HETATM    5  C   UNK N   1      22.039  13.366   7.194  0.00  0.00    -0.023 A 
HETATM    6  C   UNK N   1      23.300  12.729   7.148  0.00  0.00     0.013 A 
ENDROOT
BRANCH   5   7
HETATM    7  C   UNK N   1      21.859  14.769   7.723  0.00  0.00     0.163 C 
BRANCH   7   8
HETATM    8  N   UNK N   1      20.551  15.403   7.581  0.00  0.00    -0.352 N 
ATOM      9  HN  UNK N   1      19.777  14.949   8.068  1.00  0.00     0.163 HD
BRANCH   8  10
HETATM   10  C   UNK N   1      20.254  16.471   6.913  0.00  0.00     0.218 C 
BRANCH  10  11
HETATM   11  N   UNK N   1      19.252  16.423   5.902  0.00  0.00    -0.307 N 
HETATM   12  H   UNK N   1      18.383  16.839   6.103  0.00  0.00     0.171 HD
BRANCH  11  13
HETATM   13  C   UNK N   1      19.411  15.816   4.621  0.00  0.00     0.132 A 
HETATM   14  C   UNK N   1      19.076  14.503   4.356  0.00  0.00     0.077 A 
HETATM   15  C   UNK N   1      19.393  14.341   3.014  0.00  0.00     0.037 A 
HETATM   16  N   UNK N   1      19.907  15.489   2.526  0.00  0.00    -0.295 N 
HETATM   17  N   UNK N   1      19.927  16.389   3.496  0.00  0.00    -0.240 N 
ATOM     18  HN  UNK N   1      20.226  15.637   1.570  1.00  0.00     0.187 HD
BRANCH  15  19
HETATM   19  C   UNK N   1      19.185  13.092   2.196  0.00  0.00    -0.007 C 
HETATM   20  C   UNK N   1      18.313  13.394   0.992  0.00  0.00     0.021 C 
HETATM   21  C   UNK N   1      18.510  12.002   3.013  0.00  0.00     0.021 C 
HETATM   22  C   UNK N   1      20.524  12.567   1.717  0.00  0.00     0.021 C 
ENDBRANCH  15  19
BRANCH  17  23
HETATM   23  C   UNK N   1      20.458  17.715   3.268  0.00  0.00     0.060 A 
HETATM   24  C   UNK N   1      19.611  18.722   2.775  0.00  0.00     0.034 A 
HETATM   25  C   UNK N   1      20.086  20.022   2.582  0.00  0.00     0.040 A 
HETATM   26  C   UNK N   1      21.412  20.335   2.888  0.00  0.00     0.087 A 
HETATM   27  C   UNK N   1      22.270  19.336   3.364  0.00  0.00     0.069 A 
HETATM   28  C   UNK N   1      21.792  18.036   3.538  0.00  0.00     0.058 A 
HETATM   29 Cl   UNK N   1      23.937  19.697   3.777  0.00  0.00    -0.081 Cl
BRANCH  26  30
HETATM   30  O   UNK N   1      21.854  21.594   2.725  0.00  0.00    -0.359 OA
HETATM   31  H   UNK N   1      22.542  21.777   2.116  0.00  0.00     0.217 HD
ENDBRANCH  26  30
ENDBRANCH  17  23
ENDBRANCH  11  13
ENDBRANCH  10  11
BRANCH  10  32
HETATM   32  O   UNK N   1      20.874  17.643   7.157  0.00  0.00    -0.332 OA
HETATM   33  H   UNK N   1      21.021  18.386   6.605  0.00  0.00     0.220 HD
ENDBRANCH  10  32
ENDBRANCH   8  10
ENDBRANCH   7   8
ENDBRANCH   5   7
BRANCH   6  34
HETATM   34  S   UNK N   1      24.747  13.623   7.734  0.00  0.00    -0.089 SA
BRANCH  34  35
HETATM   35  C   UNK N   1      25.331  14.650   6.375  0.00  0.00     0.021 A 
HETATM   36  C   UNK N   1      24.655  14.835   5.147  0.00  0.00     0.024 A 
HETATM   37  C   UNK N   1      25.104  15.815   4.235  0.00  0.00     0.052 A 
HETATM   38  C   UNK N   1      26.179  16.610   4.631  0.00  0.00     0.127 A 
HETATM   39  N   UNK N   1      26.761  17.605   3.937  0.00  0.00    -0.283 N 
HETATM   40  N   UNK N   1      26.776  16.440   5.814  0.00  0.00    -0.290 N 
HETATM   41  N   UNK N   1      27.748  18.074   4.695  0.00  0.00    -0.283 N 
ATOM     42  HN  UNK N   1      26.496  17.935   3.010  1.00  0.00     0.188 HD
HETATM   43  C   UNK N   1      27.746  17.372   5.859  0.00  0.00     0.139 A 
ATOM     44  HN  UNK N   1      28.392  18.826   4.448  1.00  0.00     0.188 HD
HETATM   45  C   UNK N   1      26.407  15.475   6.677  0.00  0.00     0.119 A 
BRANCH  43  46
HETATM   46  C   UNK N   1      28.749  17.616   6.952  0.00  0.00     0.027 A 
HETATM   47  C   UNK N   1      28.266  18.334   8.058  0.00  0.00     0.017 A 
HETATM   48  C   UNK N   1      29.087  18.658   9.136  0.00  0.00     0.001 A 
HETATM   49  C   UNK N   1      30.418  18.256   9.143  0.00  0.00     0.001 A 
HETATM   50  C   UNK N   1      30.920  17.508   8.084  0.00  0.00     0.019 A 
HETATM   51  C   UNK N   1      30.120  17.177   6.984  0.00  0.00     0.014 A 
BRANCH  51  52
HETATM   52  S   UNK N   1      30.890  16.083   5.781  0.00  0.00    -0.127 SA
BRANCH  52  53
HETATM   53  C   UNK N   1      31.592  17.441   4.786  0.00  0.00     0.105 C 
BRANCH  53  54
HETATM   54  C   UNK N   1      33.098  17.288   4.675  0.00  0.00     0.174 C 
BRANCH  54  55
HETATM   55  O   UNK N   1      33.718  17.836   5.799  0.00  0.00    -0.400 OA
HETATM   56  H   UNK N   1      33.847  18.766   6.040  0.00  0.00     0.209 HD
ENDBRANCH  54  55
ENDBRANCH  53  54
ENDBRANCH  52  53
ENDBRANCH  51  52
ENDBRANCH  43  46
ENDBRANCH  34  35
ENDBRANCH   6  34
TORSDOF 16
ENDMDL
MODEL 6
REMARK VINA RESULT:      -8.2      3.696      5.982
REMARK  16 active torsions:
REMARK  status: ('A' for Active; 'I' for Inactive)
REMARK    1  A    between atoms: C_17  and  C_16 
REMARK    2  A    between atoms: O_48  and  C_16 
REMARK    3  A    between atoms: S_51  and  C_17 
REMARK    4  A    between atoms: C_22  and  C_20 
REMARK    5  A    between atoms: N_37  and  C_20 
REMARK    6  A    between atoms: N_47  and  C_23 
REMARK    7  A    between atoms: S_52  and  C_24 
REMARK    8  A    between atoms: C_33  and  C_25 
REMARK    9  A    between atoms: O_49  and  C_27 
REMARK   10  A    between atoms: S_52  and  C_28 
REMARK   11  A    between atoms: S_51  and  C_29 
REMARK   12  A    between atoms: C_35  and  C_30 
REMARK   13  A    between atoms: N_39  and  C_32 
REMARK   14  A    between atoms: N_37  and  C_34 
REMARK   15  A    between atoms: N_39  and  C_34 
REMARK   16  A    between atoms: O_50  and  C_34 
ROOT
HETATM    1  C   UNK N   1      33.393  17.549   4.834  0.00  0.00     0.001 A 
HETATM    2  C   UNK N   1      32.143  17.443   4.219  0.00  0.00     0.001 A 
HETATM    3  C   UNK N   1      33.490  17.528   6.225  0.00  0.00     0.010 A 
HETATM    4  C   UNK N   1      30.992  17.310   4.997  0.00  0.00     0.019 A 
HETATM    5  C   UNK N   1      32.341  17.404   7.015  0.00  0.00    -0.023 A 
HETATM    6  C   UNK N   1      31.076  17.291   6.394  0.00  0.00     0.013 A 
ENDROOT
BRANCH   5   7
HETATM    7  C   UNK N   1      32.523  17.299   8.510  0.00  0.00     0.163 C 
BRANCH   7   8
HETATM    8  N   UNK N   1      33.850  17.543   9.069  0.00  0.00    -0.352 N 
ATOM      9  HN  UNK N   1      34.352  18.348   8.696  1.00  0.00     0.163 HD
BRANCH   8  10
HETATM   10  C   UNK N   1      34.466  16.860   9.981  0.00  0.00     0.218 C 
BRANCH  10  11
HETATM   11  N   UNK N   1      33.859  15.693  10.526  0.00  0.00    -0.307 N 
HETATM   12  H   UNK N   1      32.959  15.787  10.914  0.00  0.00     0.171 HD
BRANCH  11  13
HETATM   13  C   UNK N   1      34.455  14.397  10.552  0.00  0.00     0.132 A 
HETATM   14  C   UNK N   1      34.900  13.791  11.711  0.00  0.00     0.077 A 
HETATM   15  C   UNK N   1      35.400  12.570  11.278  0.00  0.00     0.037 A 
HETATM   16  N   UNK N   1      35.275  12.476   9.938  0.00  0.00    -0.295 N 
HETATM   17  N   UNK N   1      34.707  13.584   9.487  0.00  0.00    -0.240 N 
ATOM     18  HN  UNK N   1      35.569  11.684   9.368  1.00  0.00     0.187 HD
BRANCH  15  19
HETATM   19  C   UNK N   1      35.978  11.486  12.151  0.00  0.00    -0.007 C 
HETATM   20  C   UNK N   1      36.830  12.095  13.248  0.00  0.00     0.021 C 
HETATM   21  C   UNK N   1      36.847  10.532  11.346  0.00  0.00     0.021 C 
HETATM   22  C   UNK N   1      34.855  10.686  12.783  0.00  0.00     0.021 C 
ENDBRANCH  15  19
BRANCH  17  23
HETATM   23  C   UNK N   1      34.475  13.777   8.074  0.00  0.00     0.060 A 
HETATM   24  C   UNK N   1      35.567  14.019   7.221  0.00  0.00     0.034 A 
HETATM   25  C   UNK N   1      35.378  14.170   5.845  0.00  0.00     0.040 A 
HETATM   26  C   UNK N   1      34.095  14.074   5.301  0.00  0.00     0.087 A 
HETATM   27  C   UNK N   1      32.998  13.851   6.141  0.00  0.00     0.069 A 
HETATM   28  C   UNK N   1      33.194  13.718   7.517  0.00  0.00     0.058 A 
HETATM   29 Cl   UNK N   1      31.375  13.705   5.490  0.00  0.00    -0.081 Cl
BRANCH  26  30
HETATM   30  O   UNK N   1      33.925  14.194   3.973  0.00  0.00    -0.359 OA
HETATM   31  H   UNK N   1      34.463  13.705   3.382  0.00  0.00     0.217 HD
ENDBRANCH  26  30
ENDBRANCH  17  23
ENDBRANCH  11  13
ENDBRANCH  10  11
BRANCH  10  32
HETATM   32  O   UNK N   1      35.682  17.229  10.428  0.00  0.00    -0.332 OA
HETATM   33  H   UNK N   1      36.399  16.718  10.749  0.00  0.00     0.220 HD
ENDBRANCH  10  32
ENDBRANCH   8  10
ENDBRANCH   7   8
ENDBRANCH   5   7
BRANCH   6  34
HETATM   34  S   UNK N   1      29.628  17.005   7.422  0.00  0.00    -0.089 SA
BRANCH  34  35
HETATM   35  C   UNK N   1      28.332  18.116   6.844  0.00  0.00     0.021 A 
HETATM   36  C   UNK N   1      28.314  19.516   7.041  0.00  0.00     0.024 A 
HETATM   37  C   UNK N   1      27.355  20.309   6.376  0.00  0.00     0.052 A 
HETATM   38  C   UNK N   1      26.494  19.661   5.490  0.00  0.00     0.127 A 
HETATM   39  N   UNK N   1      25.520  20.213   4.744  0.00  0.00    -0.283 N 
HETATM   40  N   UNK N   1      26.558  18.341   5.293  0.00  0.00    -0.290 N 
HETATM   41  N   UNK N   1      24.953  19.222   4.062  0.00  0.00    -0.283 N 
ATOM     42  HN  UNK N   1      25.266  21.200   4.709  1.00  0.00     0.188 HD
HETATM   43  C   UNK N   1      25.603  18.072   4.382  0.00  0.00     0.139 A 
ATOM     44  HN  UNK N   1      24.170  19.308   3.413  1.00  0.00     0.188 HD
HETATM   45  C   UNK N   1      27.422  17.553   5.958  0.00  0.00     0.119 A 
BRANCH  43  46
HETATM   46  C   UNK N   1      25.212  16.737   3.815  0.00  0.00     0.027 A 
HETATM   47  C   UNK N   1      25.943  16.328   2.687  0.00  0.00     0.017 A 
HETATM   48  C   UNK N   1      25.676  15.125   2.037  0.00  0.00     0.001 A 
HETATM   49  C   UNK N   1      24.674  14.286   2.510  0.00  0.00     0.001 A 
HETATM   50  C   UNK N   1      23.957  14.639   3.649  0.00  0.00     0.019 A 
HETATM   51  C   UNK N   1      24.198  15.846   4.316  0.00  0.00     0.014 A 
BRANCH  51  52
HETATM   52  S   UNK N   1      23.284  16.067   5.849  0.00  0.00    -0.127 SA
BRANCH  52  53
HETATM   53  C   UNK N   1      21.910  16.974   5.063  0.00  0.00     0.105 C 
BRANCH  53  54
HETATM   54  C   UNK N   1      21.848  18.396   5.589  0.00  0.00     0.174 C 
BRANCH  54  55
HETATM   55  O   UNK N   1      21.294  18.408   6.869  0.00  0.00    -0.400 OA
HETATM   56  H   UNK N   1      21.652  18.772   7.693  0.00  0.00     0.209 HD
ENDBRANCH  54  55
ENDBRANCH  53  54
ENDBRANCH  52  53
ENDBRANCH  51  52
ENDBRANCH  43  46
ENDBRANCH  34  35
ENDBRANCH   6  34
TORSDOF 16
ENDMDL
MODEL 7
REMARK VINA RESULT:      -8.2      5.647     11.930
REMARK  16 active torsions:
REMARK  status: ('A' for Active; 'I' for Inactive)
REMARK    1  A    between atoms: C_17  and  C_16 
REMARK    2  A    between atoms: O_48  and  C_16 
REMARK    3  A    between atoms: S_51  and  C_17 
REMARK    4  A    between atoms: C_22  and  C_20 
REMARK    5  A    between atoms: N_37  and  C_20 
REMARK    6  A    between atoms: N_47  and  C_23 
REMARK    7  A    between atoms: S_52  and  C_24 
REMARK    8  A    between atoms: C_33  and  C_25 
REMARK    9  A    between atoms: O_49  and  C_27 
REMARK   10  A    between atoms: S_52  and  C_28 
REMARK   11  A    between atoms: S_51  and  C_29 
REMARK   12  A    between atoms: C_35  and  C_30 
REMARK   13  A    between atoms: N_39  and  C_32 
REMARK   14  A    between atoms: N_37  and  C_34 
REMARK   15  A    between atoms: N_39  and  C_34 
REMARK   16  A    between atoms: O_50  and  C_34 
ROOT
HETATM    1  C   UNK N   1      25.654  20.670   2.972  0.00  0.00     0.001 A 
HETATM    2  C   UNK N   1      26.969  20.449   3.385  0.00  0.00     0.001 A 
HETATM    3  C   UNK N   1      24.644  19.790   3.360  0.00  0.00     0.010 A 
HETATM    4  C   UNK N   1      27.272  19.351   4.192  0.00  0.00     0.019 A 
HETATM    5  C   UNK N   1      24.938  18.681   4.160  0.00  0.00    -0.023 A 
HETATM    6  C   UNK N   1      26.268  18.459   4.585  0.00  0.00     0.013 A 
ENDROOT
BRANCH   5   7
HETATM    7  C   UNK N   1      23.787  17.817   4.617  0.00  0.00     0.163 C 
BRANCH   7   8
HETATM    8  N   UNK N   1      22.969  18.282   5.735  0.00  0.00    -0.352 N 
ATOM      9  HN  UNK N   1      23.280  19.138   6.192  1.00  0.00     0.163 HD
BRANCH   8  10
HETATM   10  C   UNK N   1      21.897  17.737   6.215  0.00  0.00     0.218 C 
BRANCH  10  11
HETATM   11  N   UNK N   1      21.544  16.410   5.838  0.00  0.00    -0.307 N 
HETATM   12  H   UNK N   1      20.800  16.301   5.203  0.00  0.00     0.171 HD
BRANCH  11  13
HETATM   13  C   UNK N   1      22.186  15.227   6.309  0.00  0.00     0.132 A 
HETATM   14  C   UNK N   1      22.210  14.856   7.640  0.00  0.00     0.077 A 
HETATM   15  C   UNK N   1      22.929  13.668   7.642  0.00  0.00     0.037 A 
HETATM   16  N   UNK N   1      23.324  13.373   6.387  0.00  0.00    -0.295 N 
HETATM   17  N   UNK N   1      22.883  14.317   5.571  0.00  0.00    -0.240 N 
ATOM     18  HN  UNK N   1      23.873  12.558   6.113  1.00  0.00     0.187 HD
BRANCH  15  19
HETATM   19  C   UNK N   1      23.220  12.808   8.845  0.00  0.00    -0.007 C 
HETATM   20  C   UNK N   1      23.229  11.343   8.452  0.00  0.00     0.021 C 
HETATM   21  C   UNK N   1      22.174  13.004   9.932  0.00  0.00     0.021 C 
HETATM   22  C   UNK N   1      24.575  13.173   9.419  0.00  0.00     0.021 C 
ENDBRANCH  15  19
BRANCH  17  23
HETATM   23  C   UNK N   1      23.184  14.277   4.157  0.00  0.00     0.060 A 
HETATM   24  C   UNK N   1      22.222  13.782   3.260  0.00  0.00     0.034 A 
HETATM   25  C   UNK N   1      22.468  13.768   1.885  0.00  0.00     0.040 A 
HETATM   26  C   UNK N   1      23.678  14.257   1.387  0.00  0.00     0.087 A 
HETATM   27  C   UNK N   1      24.651  14.738   2.271  0.00  0.00     0.069 A 
HETATM   28  C   UNK N   1      24.403  14.732   3.645  0.00  0.00     0.058 A 
HETATM   29 Cl   UNK N   1      26.174  15.378   1.680  0.00  0.00    -0.081 Cl
BRANCH  26  30
HETATM   30  O   UNK N   1      23.897  14.265   0.061  0.00  0.00    -0.359 OA
HETATM   31  H   UNK N   1      24.552  14.825  -0.306  0.00  0.00     0.217 HD
ENDBRANCH  26  30
ENDBRANCH  17  23
ENDBRANCH  11  13
ENDBRANCH  10  11
BRANCH  10  32
HETATM   32  O   UNK N   1      21.101  18.401   7.076  0.00  0.00    -0.332 OA
HETATM   33  H   UNK N   1      20.980  18.303   8.000  0.00  0.00     0.220 HD
ENDBRANCH  10  32
ENDBRANCH   8  10
ENDBRANCH   7   8
ENDBRANCH   5   7
BRANCH   6  34
HETATM   34  S   UNK N   1      26.603  17.101   5.716  0.00  0.00    -0.089 SA
BRANCH  34  35
HETATM   35  C   UNK N   1      28.007  17.585   6.735  0.00  0.00     0.021 A 
HETATM   36  C   UNK N   1      27.922  18.059   8.065  0.00  0.00     0.024 A 
HETATM   37  C   UNK N   1      29.095  18.220   8.833  0.00  0.00     0.052 A 
HETATM   38  C   UNK N   1      30.300  17.833   8.246  0.00  0.00     0.127 A 
HETATM   39  N   UNK N   1      31.529  17.884   8.792  0.00  0.00    -0.283 N 
HETATM   40  N   UNK N   1      30.348  17.352   7.001  0.00  0.00    -0.290 N 
HETATM   41  N   UNK N   1      32.374  17.427   7.871  0.00  0.00    -0.283 N 
ATOM     42  HN  UNK N   1      31.766  18.210   9.728  1.00  0.00     0.188 HD
HETATM   43  C   UNK N   1      31.647  17.079   6.777  0.00  0.00     0.139 A 
ATOM     44  HN  UNK N   1      33.387  17.350   7.970  1.00  0.00     0.188 HD
HETATM   45  C   UNK N   1      29.254  17.244   6.225  0.00  0.00     0.119 A 
BRANCH  43  46
HETATM   46  C   UNK N   1      32.280  16.544   5.524  0.00  0.00     0.027 A 
HETATM   47  C   UNK N   1      32.284  17.426   4.431  0.00  0.00     0.017 A 
HETATM   48  C   UNK N   1      32.813  17.059   3.195  0.00  0.00     0.001 A 
HETATM   49  C   UNK N   1      33.368  15.797   3.022  0.00  0.00     0.001 A 
HETATM   50  C   UNK N   1      33.419  14.911   4.094  0.00  0.00     0.019 A 
HETATM   51  C   UNK N   1      32.886  15.250   5.343  0.00  0.00     0.014 A 
BRANCH  51  52
HETATM   52  S   UNK N   1      33.171  14.044   6.648  0.00  0.00    -0.127 SA
BRANCH  52  53
HETATM   53  C   UNK N   1      34.965  14.361   6.741  0.00  0.00     0.105 C 
BRANCH  53  54
HETATM   54  C   UNK N   1      35.356  14.766   8.150  0.00  0.00     0.174 C 
BRANCH  54  55
HETATM   55  O   UNK N   1      34.839  16.027   8.445  0.00  0.00    -0.400 OA
HETATM   56  H   UNK N   1      35.185  16.713   9.037  0.00  0.00     0.209 HD
ENDBRANCH  54  55
ENDBRANCH  53  54
ENDBRANCH  52  53
ENDBRANCH  51  52
ENDBRANCH  43  46
ENDBRANCH  34  35
ENDBRANCH   6  34
TORSDOF 16
ENDMDL
MODEL 8
REMARK VINA RESULT:      -8.1      3.149      6.228
REMARK  16 active torsions:
REMARK  status: ('A' for Active; 'I' for Inactive)
REMARK    1  A    between atoms: C_17  and  C_16 
REMARK    2  A    between atoms: O_48  and  C_16 
REMARK    3  A    between atoms: S_51  and  C_17 
REMARK    4  A    between atoms: C_22  and  C_20 
REMARK    5  A    between atoms: N_37  and  C_20 
REMARK    6  A    between atoms: N_47  and  C_23 
REMARK    7  A    between atoms: S_52  and  C_24 
REMARK    8  A    between atoms: C_33  and  C_25 
REMARK    9  A    between atoms: O_49  and  C_27 
REMARK   10  A    between atoms: S_52  and  C_28 
REMARK   11  A    between atoms: S_51  and  C_29 
REMARK   12  A    between atoms: C_35  and  C_30 
REMARK   13  A    between atoms: N_39  and  C_32 
REMARK   14  A    between atoms: N_37  and  C_34 
REMARK   15  A    between atoms: N_39  and  C_34 
REMARK   16  A    between atoms: O_50  and  C_34 
ROOT
HETATM    1  C   UNK N   1      38.317  10.896  10.200  0.00  0.00     0.001 A 
HETATM    2  C   UNK N   1      37.606  10.813   9.002  0.00  0.00     0.001 A 
HETATM    3  C   UNK N   1      37.794  11.619  11.273  0.00  0.00     0.010 A 
HETATM    4  C   UNK N   1      36.369  11.447   8.878  0.00  0.00     0.019 A 
HETATM    5  C   UNK N   1      36.559  12.266  11.157  0.00  0.00    -0.023 A 
HETATM    6  C   UNK N   1      35.835  12.178   9.946  0.00  0.00     0.013 A 
ENDROOT
BRANCH   5   7
HETATM    7  C   UNK N   1      36.008  12.957  12.382  0.00  0.00     0.163 C 
BRANCH   7   8
HETATM    8  N   UNK N   1      36.941  13.356  13.433  0.00  0.00    -0.352 N 
ATOM      9  HN  UNK N   1      37.919  13.440  13.158  1.00  0.00     0.163 HD
BRANCH   8  10
HETATM   10  C   UNK N   1      36.674  13.618  14.673  0.00  0.00     0.218 C 
BRANCH  10  11
HETATM   11  N   UNK N   1      35.449  13.173  15.246  0.00  0.00    -0.307 N 
HETATM   12  H   UNK N   1      34.641  13.705  15.060  0.00  0.00     0.171 HD
BRANCH  11  13
HETATM   13  C   UNK N   1      35.302  12.017  16.068  0.00  0.00     0.132 A 
HETATM   14  C   UNK N   1      35.400  12.049  17.446  0.00  0.00     0.077 A 
HETATM   15  C   UNK N   1      35.198  10.729  17.825  0.00  0.00     0.037 A 
HETATM   16  N   UNK N   1      35.015   9.963  16.730  0.00  0.00    -0.295 N 
HETATM   17  N   UNK N   1      35.081  10.736  15.657  0.00  0.00    -0.240 N 
ATOM     18  HN  UNK N   1      34.852   8.957  16.729  1.00  0.00     0.187 HD
BRANCH  15  19
HETATM   19  C   UNK N   1      35.161  10.206  19.239  0.00  0.00    -0.007 C 
HETATM   20  C   UNK N   1      36.468   9.513  19.576  0.00  0.00     0.021 C 
HETATM   21  C   UNK N   1      34.030   9.207  19.430  0.00  0.00     0.021 C 
HETATM   22  C   UNK N   1      34.948  11.356  20.203  0.00  0.00     0.021 C 
ENDBRANCH  15  19
BRANCH  17  23
HETATM   23  C   UNK N   1      34.950  10.178  14.330  0.00  0.00     0.060 A 
HETATM   24  C   UNK N   1      33.815  10.487  13.561  0.00  0.00     0.034 A 
HETATM   25  C   UNK N   1      33.679   9.994  12.260  0.00  0.00     0.040 A 
HETATM   26  C   UNK N   1      34.680   9.192  11.708  0.00  0.00     0.087 A 
HETATM   27  C   UNK N   1      35.808   8.863  12.470  0.00  0.00     0.069 A 
HETATM   28  C   UNK N   1      35.927   9.346  13.775  0.00  0.00     0.058 A 
HETATM   29 Cl   UNK N   1      37.094   7.875  11.803  0.00  0.00    -0.081 Cl
BRANCH  26  30
HETATM   30  O   UNK N   1      34.554   8.744  10.447  0.00  0.00    -0.359 OA
HETATM   31  H   UNK N   1      34.077   7.958  10.271  0.00  0.00     0.217 HD
ENDBRANCH  26  30
ENDBRANCH  17  23
ENDBRANCH  11  13
ENDBRANCH  10  11
BRANCH  10  32
HETATM   32  O   UNK N   1      37.541  14.303  15.445  0.00  0.00    -0.332 OA
HETATM   33  H   UNK N   1      38.111  14.017  16.131  0.00  0.00     0.220 HD
ENDBRANCH  10  32
ENDBRANCH   8  10
ENDBRANCH   7   8
ENDBRANCH   5   7
BRANCH   6  34
HETATM   34  S   UNK N   1      34.194  12.910   9.860  0.00  0.00    -0.089 SA
BRANCH  34  35
HETATM   35  C   UNK N   1      34.405  14.699   9.841  0.00  0.00     0.021 A 
HETATM   36  C   UNK N   1      35.281  15.424  10.681  0.00  0.00     0.024 A 
HETATM   37  C   UNK N   1      35.510  16.796  10.444  0.00  0.00     0.052 A 
HETATM   38  C   UNK N   1      34.894  17.363   9.328  0.00  0.00     0.127 A 
HETATM   39  N   UNK N   1      34.981  18.638   8.904  0.00  0.00    -0.283 N 
HETATM   40  N   UNK N   1      34.101  16.646   8.528  0.00  0.00    -0.290 N 
HETATM   41  N   UNK N   1      34.225  18.729   7.813  0.00  0.00    -0.283 N 
ATOM     42  HN  UNK N   1      35.521  19.386   9.336  1.00  0.00     0.188 HD
HETATM   43  C   UNK N   1      33.700  17.500   7.568  0.00  0.00     0.139 A 
ATOM     44  HN  UNK N   1      34.068  19.572   7.260  1.00  0.00     0.188 HD
HETATM   45  C   UNK N   1      33.817  15.351   8.764  0.00  0.00     0.119 A 
BRANCH  43  46
HETATM   46  C   UNK N   1      32.768  17.234   6.420  0.00  0.00     0.027 A 
HETATM   47  C   UNK N   1      33.354  17.302   5.145  0.00  0.00     0.017 A 
HETATM   48  C   UNK N   1      32.609  17.104   3.984  0.00  0.00     0.001 A 
HETATM   49  C   UNK N   1      31.252  16.816   4.069  0.00  0.00     0.001 A 
HETATM   50  C   UNK N   1      30.646  16.700   5.316  0.00  0.00     0.019 A 
HETATM   51  C   UNK N   1      31.368  16.904   6.497  0.00  0.00     0.014 A 
BRANCH  51  52
HETATM   52  S   UNK N   1      30.462  16.568   8.015  0.00  0.00    -0.127 SA
BRANCH  52  53
HETATM   53  C   UNK N   1      29.622  18.187   8.036  0.00  0.00     0.105 C 
BRANCH  53  54
HETATM   54  C   UNK N   1      28.851  18.364   9.331  0.00  0.00     0.174 C 
BRANCH  54  55
HETATM   55  O   UNK N   1      27.522  18.687   9.055  0.00  0.00    -0.400 OA
HETATM   56  H   UNK N   1      26.843  19.057   9.641  0.00  0.00     0.209 HD
ENDBRANCH  54  55
ENDBRANCH  53  54
ENDBRANCH  52  53
ENDBRANCH  51  52
ENDBRANCH  43  46
ENDBRANCH  34  35
ENDBRANCH   6  34
TORSDOF 16
ENDMDL
MODEL 9
REMARK VINA RESULT:      -8.1      2.009      2.960
REMARK  16 active torsions:
REMARK  status: ('A' for Active; 'I' for Inactive)
REMARK    1  A    between atoms: C_17  and  C_16 
REMARK    2  A    between atoms: O_48  and  C_16 
REMARK    3  A    between atoms: S_51  and  C_17 
REMARK    4  A    between atoms: C_22  and  C_20 
REMARK    5  A    between atoms: N_37  and  C_20 
REMARK    6  A    between atoms: N_47  and  C_23 
REMARK    7  A    between atoms: S_52  and  C_24 
REMARK    8  A    between atoms: C_33  and  C_25 
REMARK    9  A    between atoms: O_49  and  C_27 
REMARK   10  A    between atoms: S_52  and  C_28 
REMARK   11  A    between atoms: S_51  and  C_29 
REMARK   12  A    between atoms: C_35  and  C_30 
REMARK   13  A    between atoms: N_39  and  C_32 
REMARK   14  A    between atoms: N_37  and  C_34 
REMARK   15  A    between atoms: N_39  and  C_34 
REMARK   16  A    between atoms: O_50  and  C_34 
ROOT
HETATM    1  C   UNK N   1      33.859  12.251   6.987  0.00  0.00     0.001 A 
HETATM    2  C   UNK N   1      32.862  12.417   6.024  0.00  0.00     0.001 A 
HETATM    3  C   UNK N   1      34.460  13.368   7.567  0.00  0.00     0.010 A 
HETATM    4  C   UNK N   1      32.463  13.700   5.645  0.00  0.00     0.019 A 
HETATM    5  C   UNK N   1      34.074  14.659   7.189  0.00  0.00    -0.023 A 
HETATM    6  C   UNK N   1      33.061  14.828   6.218  0.00  0.00     0.013 A 
ENDROOT
BRANCH   5   7
HETATM    7  C   UNK N   1      34.701  15.824   7.917  0.00  0.00     0.163 C 
BRANCH   7   8
HETATM    8  N   UNK N   1      34.698  15.813   9.378  0.00  0.00    -0.352 N 
ATOM      9  HN  UNK N   1      33.963  15.264   9.821  1.00  0.00     0.163 HD
BRANCH   8  10
HETATM   10  C   UNK N   1      35.518  16.418  10.178  0.00  0.00     0.218 C 
BRANCH  10  11
HETATM   11  N   UNK N   1      36.358  15.659  11.041  0.00  0.00    -0.307 N 
HETATM   12  H   UNK N   1      36.601  16.060  11.907  0.00  0.00     0.171 HD
BRANCH  11  13
HETATM   13  C   UNK N   1      36.875  14.362  10.748  0.00  0.00     0.132 A 
HETATM   14  C   UNK N   1      37.494  14.045   9.555  0.00  0.00     0.077 A 
HETATM   15  C   UNK N   1      37.828  12.705   9.698  0.00  0.00     0.037 A 
HETATM   16  N   UNK N   1      37.408  12.257  10.899  0.00  0.00    -0.295 N 
HETATM   17  N   UNK N   1      36.823  13.255  11.542  0.00  0.00    -0.240 N 
ATOM     18  HN  UNK N   1      37.522  11.307  11.252  1.00  0.00     0.187 HD
BRANCH  15  19
HETATM   19  C   UNK N   1      38.568  11.860   8.692  0.00  0.00    -0.007 C 
HETATM   20  C   UNK N   1      39.663  12.673   8.029  0.00  0.00     0.021 C 
HETATM   21  C   UNK N   1      37.633  11.346   7.608  0.00  0.00     0.021 C 
HETATM   22  C   UNK N   1      39.191  10.666   9.388  0.00  0.00     0.021 C 
ENDBRANCH  15  19
BRANCH  17  23
HETATM   23  C   UNK N   1      36.245  13.058  12.852  0.00  0.00     0.060 A 
HETATM   24  C   UNK N   1      36.658  13.875  13.919  0.00  0.00     0.034 A 
HETATM   25  C   UNK N   1      36.089  13.734  15.188  0.00  0.00     0.040 A 
HETATM   26  C   UNK N   1      35.093  12.779  15.405  0.00  0.00     0.087 A 
HETATM   27  C   UNK N   1      34.685  11.948  14.355  0.00  0.00     0.069 A 
HETATM   28  C   UNK N   1      35.271  12.084  13.095  0.00  0.00     0.058 A 
HETATM   29 Cl   UNK N   1      33.423  10.752  14.586  0.00  0.00    -0.081 Cl
BRANCH  26  30
HETATM   30  O   UNK N   1      34.532  12.668  16.621  0.00  0.00    -0.359 OA
HETATM   31  H   UNK N   1      33.616  12.493  16.704  0.00  0.00     0.217 HD
ENDBRANCH  26  30
ENDBRANCH  17  23
ENDBRANCH  11  13
ENDBRANCH  10  11
BRANCH  10  32
HETATM   32  O   UNK N   1      35.599  17.763  10.209  0.00  0.00    -0.332 OA
HETATM   33  H   UNK N   1      36.343  18.332  10.219  0.00  0.00     0.220 HD
ENDBRANCH  10  32
ENDBRANCH   8  10
ENDBRANCH   7   8
ENDBRANCH   5   7
BRANCH   6  34
HETATM   34  S   UNK N   1      32.491  16.492   5.838  0.00  0.00    -0.089 SA
BRANCH  34  35
HETATM   35  C   UNK N   1      31.235  16.920   7.056  0.00  0.00     0.021 A 
HETATM   36  C   UNK N   1      31.423  16.908   8.458  0.00  0.00     0.024 A 
HETATM   37  C   UNK N   1      30.435  17.451   9.307  0.00  0.00     0.052 A 
HETATM   38  C   UNK N   1      29.327  18.042   8.700  0.00  0.00     0.127 A 
HETATM   39  N   UNK N   1      28.278  18.629   9.306  0.00  0.00    -0.283 N 
HETATM   40  N   UNK N   1      29.192  18.074   7.372  0.00  0.00    -0.290 N 
HETATM   41  N   UNK N   1      27.461  19.040   8.340  0.00  0.00    -0.283 N 
ATOM     42  HN  UNK N   1      28.138  18.737  10.309  1.00  0.00     0.188 HD
HETATM   43  C   UNK N   1      28.031  18.719   7.149  0.00  0.00     0.139 A 
ATOM     44  HN  UNK N   1      26.566  19.513   8.470  1.00  0.00     0.188 HD
HETATM   45  C   UNK N   1      30.089  17.512   6.540  0.00  0.00     0.119 A 
BRANCH  43  46
HETATM   46  C   UNK N   1      27.371  19.012   5.831  0.00  0.00     0.027 A 
HETATM   47  C   UNK N   1      27.450  20.348   5.406  0.00  0.00     0.017 A 
HETATM   48  C   UNK N   1      26.862  20.775   4.217  0.00  0.00     0.001 A 
HETATM   49  C   UNK N   1      26.187  19.867   3.409  0.00  0.00     0.001 A 
HETATM   50  C   UNK N   1      26.123  18.528   3.778  0.00  0.00     0.019 A 
HETATM   51  C   UNK N   1      26.697  18.074   4.971  0.00  0.00     0.014 A 
BRANCH  51  52
HETATM   52  S   UNK N   1      26.647  16.292   5.214  0.00  0.00    -0.127 SA
BRANCH  52  53
HETATM   53  C   UNK N   1      27.292  15.907   3.551  0.00  0.00     0.105 C 
BRANCH  53  54
HETATM   54  C   UNK N   1      28.808  15.865   3.570  0.00  0.00     0.174 C 
BRANCH  54  55
HETATM   55  O   UNK N   1      29.325  16.995   2.934  0.00  0.00    -0.400 OA
HETATM   56  H   UNK N   1      30.248  17.240   2.765  0.00  0.00     0.209 HD
ENDBRANCH  54  55
ENDBRANCH  53  54
ENDBRANCH  52  53
ENDBRANCH  51  52
ENDBRANCH  43  46
ENDBRANCH  34  35
ENDBRANCH   6  34
TORSDOF 16
ENDMDL
