REMARK  7 active torsions:
REMARK  status: ('A' for Active; 'I' for Inactive)
REMARK    1  A    between atoms: N_2  and  C_3 
REMARK    2  A    between atoms: N_2  and  C_22 
REMARK    3  A    between atoms: C_4  and  C_3 
REMARK    4  A    between atoms: C_9  and  O_20 
REMARK    5  A    between atoms: C_13  and  C_14 
REMARK    6  A    between atoms: C_22  and  C_23 
REMARK    7  A    between atoms: C_23  and  O_25 
ROOT
HETATM    1  C   UNK N   1       1.748  -2.898  -0.019  0.00  0.00     0.027 C 
HETATM    2  C   UNK N   1       1.609  -4.414  -0.094  0.00  0.00     0.012 C 
HETATM    3  C   UNK N   1       0.498  -4.838   0.849  0.00  0.00     0.040 C 
HETATM    4  C   UNK N   1      -0.795  -4.224   0.422  0.00  0.00    -0.049 A 
HETATM    5  C   UNK N   1      -1.975  -4.958   0.583  0.00  0.00     0.044 A 
HETATM    6  C   UNK N   1      -3.200  -4.444   0.148  0.00  0.00     0.068 A 
HETATM    7  C   UNK N   1      -3.237  -3.178  -0.454  0.00  0.00     0.037 A 
HETATM    8  C   UNK N   1      -2.062  -2.446  -0.630  0.00  0.00     0.011 A 
HETATM    9  C   UNK N   1      -0.828  -2.948  -0.190  0.00  0.00    -0.043 A 
HETATM   10  C   UNK N   1       0.459  -2.175  -0.498  0.00  0.00     0.058 C 
ENDROOT
BRANCH   1  11
HETATM   11  C   UNK N   1       2.951  -2.443  -0.846  0.00  0.00     0.278 C 
BRANCH  11  12
HETATM   12  N   UNK N   1       4.211  -2.668  -0.146  0.00  0.00     0.094 N 
HETATM   13  C   UNK N   1       4.631  -4.038  -0.407  0.00  0.00     0.310 C 
BRANCH  12  14
HETATM   14  C   UNK N   1       5.183  -1.784  -0.778  0.00  0.00     0.381 C 
BRANCH  14  15
HETATM   15  C   UNK N   1       6.399  -1.597   0.077  0.00  0.00     0.168 C 
HETATM   16  O   UNK N   1       6.689  -0.482   0.482  0.00  0.00    -0.649 OA
BRANCH  15  17
HETATM   17  O   UNK N   1       7.193  -2.643   0.371  0.00  0.00    -0.775 OA
HETATM   18  H   UNK N   1       6.838  -3.486   0.576  0.00  0.00     0.167 HD
ENDBRANCH  15  17
ENDBRANCH  14  15
ENDBRANCH  12  14
ENDBRANCH  11  12
ENDBRANCH   1  11
BRANCH  10  19
HETATM   19  C   UNK N   1       0.443  -0.691  -0.127  0.00  0.00    -0.049 A 
HETATM   20  C   UNK N   1      -0.641   0.119  -0.504  0.00  0.00     0.008 A 
HETATM   21  C   UNK N   1      -0.642   1.490  -0.229  0.00  0.00     0.001 A 
HETATM   22  C   UNK N   1       0.457   2.077   0.401  0.00  0.00     0.000 A 
HETATM   23  C   UNK N   1       1.550   1.291   0.769  0.00  0.00     0.001 A 
HETATM   24  C   UNK N   1       1.542  -0.084   0.513  0.00  0.00     0.008 A 
ENDBRANCH  10  19
BRANCH   6  25
HETATM   25  O   UNK N   1      -4.321  -5.189   0.305  0.00  0.00    -0.356 OA
HETATM   26  C   UNK N   1      -5.564  -4.780  -0.123  0.00  0.00     0.210 C 
ENDBRANCH   6  25
TORSDOF 7
