MODEL 1
REMARK VINA RESULT:      -8.7      0.000      0.000
REMARK  9 active torsions:
REMARK  status: ('A' for Active; 'I' for Inactive)
REMARK    1  A    between atoms: C_2  and  C_3 
REMARK    2  A    between atoms: C_4  and  O_34 
REMARK    3  A    between atoms: C_7  and  N_14 
REMARK    4  A    between atoms: C_8  and  C_11 
REMARK       I    between atoms: C_11  and  N_13 
REMARK    5  A    between atoms: N_14  and  C_15 
REMARK    6  A    between atoms: C_18  and  N_21 
REMARK    7  A    between atoms: C_24  and  N_27 
REMARK    8  A    between atoms: C_35  and  O_34 
REMARK       I    between atoms: N_38  and  C_40 
REMARK    9  A    between atoms: C_40  and  C_42 
ROOT
HETATM    1  C   UNK N   1      19.743  16.778   4.712  0.00  0.00     0.061 A 
HETATM    2  C   UNK N   1      20.771  17.209   5.598  0.00  0.00     0.167 A 
HETATM    3  N   UNK N   1      21.646  18.130   5.143  0.00  0.00    -0.319 N 
ATOM      4  HN  UNK N   1      22.392  18.438   5.769  1.00  0.00     0.169 HD
HETATM    5  C   UNK N   1      21.588  18.670   3.897  0.00  0.00     0.140 A 
HETATM    6  C   UNK N   1      20.577  18.245   3.021  0.00  0.00     0.145 A 
HETATM    7  N   UNK N   1      19.695  17.307   3.457  0.00  0.00    -0.349 N 
ATOM      8  HN  UNK N   1      18.966  16.987   2.819  1.00  0.00     0.166 HD
ENDROOT
BRANCH   5   9
HETATM    9  N   UNK N   1      22.552  19.643   3.531  0.00  0.00    -0.340 N 
HETATM   10  H   UNK N   1      22.279  20.551   3.267  0.00  0.00     0.167 HD
BRANCH   9  11
HETATM   11  C   UNK N   1      23.914  19.273   3.555  0.00  0.00     0.033 A 
HETATM   12  C   UNK N   1      24.904  20.251   3.669  0.00  0.00     0.032 A 
HETATM   13  C   UNK N   1      26.223  19.869   3.934  0.00  0.00     0.031 A 
HETATM   14  C   UNK N   1      26.556  18.509   4.041  0.00  0.00     0.030 A 
HETATM   15  C   UNK N   1      25.566  17.537   3.874  0.00  0.00     0.031 A 
HETATM   16  C   UNK N   1      24.249  17.918   3.665  0.00  0.00     0.032 A 
BRANCH  14  17
HETATM   17  N   UNK N   1      27.866  18.120   4.400  0.00  0.00    -0.381 N 
HETATM   18  C   UNK N   1      28.512  17.040   3.671  0.00  0.00     0.125 C 
HETATM   19  C   UNK N   1      29.973  16.942   4.094  0.00  0.00     0.055 C 
HETATM   20  C   UNK N   1      30.112  16.716   5.624  0.00  0.00     0.226 C 
HETATM   21  C   UNK N   1      28.853  17.145   6.390  0.00  0.00     0.055 C 
HETATM   22  C   UNK N   1      28.304  18.422   5.753  0.00  0.00     0.125 C 
BRANCH  20  23
HETATM   23  N   UNK N   1      31.274  17.379   6.235  0.00  0.00     0.096 N 
HETATM   24  C   UNK N   1      32.558  16.832   5.768  0.00  0.00     0.303 C 
HETATM   25  C   UNK N   1      33.712  17.443   6.555  0.00  0.00     0.302 C 
HETATM   26  N   UNK N   1      33.544  17.091   7.959  0.00  0.00     0.087 N 
HETATM   27  C   UNK N   1      32.328  17.735   8.441  0.00  0.00     0.302 C 
HETATM   28  C   UNK N   1      34.664  17.642   8.696  0.00  0.00     0.310 C 
HETATM   29  C   UNK N   1      31.130  17.171   7.681  0.00  0.00     0.303 C 
ENDBRANCH  20  23
ENDBRANCH  14  17
ENDBRANCH   9  11
ENDBRANCH   5   9
BRANCH   6  30
HETATM   30  C   UNK N   1      20.453  18.759   1.634  0.00  0.00     0.269 C 
HETATM   31  O   UNK N   1      20.660  19.932   1.376  0.00  0.00    -0.266 OA
HETATM   32  N   UNK N   1      20.119  17.913   0.637  0.00  0.00    -0.365 N 
HETATM   33  H   UNK N   1      20.164  18.196  -0.305  0.00  0.00     0.159 HD
HETATM   34  H   UNK N   1      19.827  16.999   0.855  0.00  0.00     0.159 HD
ENDBRANCH   6  30
BRANCH   2  35
HETATM   35  O   UNK N   1      20.949  16.777   6.881  0.00  0.00    -0.327 OA
BRANCH  35  36
HETATM   36  C   UNK N   1      21.656  15.682   7.316  0.00  0.00     0.150 C 
HETATM   37  C   UNK N   1      22.299  14.917   6.149  0.00  0.00     0.054 C 
HETATM   38  C   UNK N   1      22.458  13.489   6.682  0.00  0.00     0.129 C 
HETATM   39  N   UNK N   1      21.723  13.534   7.912  0.00  0.00    -0.346 N 
HETATM   40  C   UNK N   1      20.808  14.622   7.963  0.00  0.00     0.158 C 
HETATM   41  C   UNK N   1      22.147  12.899   9.039  0.00  0.00     0.242 C 
HETATM   42  O   UNK N   1      23.070  12.099   8.980  0.00  0.00    -0.268 OA
BRANCH  41  43
HETATM   43  C   UNK N   1      21.538  13.226  10.350  0.00  0.00     0.064 C 
HETATM   44  C   UNK N   1      20.842  12.331  11.047  0.00  0.00     0.017 C 
ENDBRANCH  41  43
ENDBRANCH  35  36
ENDBRANCH   2  35
BRANCH   1  45
HETATM   45  C   UNK N   1      18.732  15.741   5.063  0.00  0.00     0.057 C 
HETATM   46  C   UNK N   1      19.041  14.419   4.389  0.00  0.00     0.011 C 
ENDBRANCH   1  45
TORSDOF 9
ENDMDL
MODEL 2
REMARK VINA RESULT:      -8.6      1.902      3.177
REMARK  9 active torsions:
REMARK  status: ('A' for Active; 'I' for Inactive)
REMARK    1  A    between atoms: C_2  and  C_3 
REMARK    2  A    between atoms: C_4  and  O_34 
REMARK    3  A    between atoms: C_7  and  N_14 
REMARK    4  A    between atoms: C_8  and  C_11 
REMARK       I    between atoms: C_11  and  N_13 
REMARK    5  A    between atoms: N_14  and  C_15 
REMARK    6  A    between atoms: C_18  and  N_21 
REMARK    7  A    between atoms: C_24  and  N_27 
REMARK    8  A    between atoms: C_35  and  O_34 
REMARK       I    between atoms: N_38  and  C_40 
REMARK    9  A    between atoms: C_40  and  C_42 
ROOT
HETATM    1  C   UNK N   1      22.242  17.189   3.844  0.00  0.00     0.061 A 
HETATM    2  C   UNK N   1      22.992  16.721   4.961  0.00  0.00     0.167 A 
HETATM    3  N   UNK N   1      24.023  17.480   5.388  0.00  0.00    -0.319 N 
ATOM      4  HN  UNK N   1      24.571  17.146   6.181  1.00  0.00     0.169 HD
HETATM    5  C   UNK N   1      24.370  18.663   4.817  0.00  0.00     0.140 A 
HETATM    6  C   UNK N   1      23.635  19.127   3.715  0.00  0.00     0.145 A 
HETATM    7  N   UNK N   1      22.602  18.369   3.262  0.00  0.00    -0.349 N 
ATOM      8  HN  UNK N   1      22.073  18.696   2.453  1.00  0.00     0.166 HD
ENDROOT
BRANCH   5   9
HETATM    9  N   UNK N   1      25.464  19.385   5.359  0.00  0.00    -0.340 N 
HETATM   10  H   UNK N   1      25.363  20.323   5.637  0.00  0.00     0.167 HD
BRANCH   9  11
HETATM   11  C   UNK N   1      26.702  18.720   5.488  0.00  0.00     0.033 A 
HETATM   12  C   UNK N   1      27.403  18.315   4.350  0.00  0.00     0.032 A 
HETATM   13  C   UNK N   1      28.726  17.879   4.473  0.00  0.00     0.031 A 
HETATM   14  C   UNK N   1      29.331  17.808   5.739  0.00  0.00     0.030 A 
HETATM   15  C   UNK N   1      28.604  18.167   6.877  0.00  0.00     0.031 A 
HETATM   16  C   UNK N   1      27.309  18.650   6.748  0.00  0.00     0.032 A 
BRANCH  14  17
HETATM   17  N   UNK N   1      30.694  17.459   5.861  0.00  0.00    -0.381 N 
HETATM   18  C   UNK N   1      31.543  17.484   4.680  0.00  0.00     0.125 C 
HETATM   19  C   UNK N   1      32.995  17.275   5.092  0.00  0.00     0.055 C 
HETATM   20  C   UNK N   1      33.185  15.940   5.863  0.00  0.00     0.226 C 
HETATM   21  C   UNK N   1      31.869  15.424   6.460  0.00  0.00     0.055 C 
HETATM   22  C   UNK N   1      31.069  16.615   6.984  0.00  0.00     0.125 C 
BRANCH  20  23
HETATM   23  N   UNK N   1      34.192  15.993   6.935  0.00  0.00     0.096 N 
HETATM   24  C   UNK N   1      34.081  14.874   7.883  0.00  0.00     0.303 C 
HETATM   25  C   UNK N   1      35.037  15.074   9.053  0.00  0.00     0.302 C 
HETATM   26  N   UNK N   1      34.663  16.301   9.743  0.00  0.00     0.087 N 
HETATM   27  C   UNK N   1      34.887  17.417   8.831  0.00  0.00     0.302 C 
HETATM   28  C   UNK N   1      35.551  16.467  10.877  0.00  0.00     0.310 C 
HETATM   29  C   UNK N   1      33.962  17.269   7.626  0.00  0.00     0.303 C 
ENDBRANCH  20  23
ENDBRANCH  14  17
ENDBRANCH   9  11
ENDBRANCH   5   9
BRANCH   6  30
HETATM   30  C   UNK N   1      23.960  20.393   3.012  0.00  0.00     0.269 C 
HETATM   31  O   UNK N   1      23.165  21.316   2.979  0.00  0.00    -0.266 OA
HETATM   32  N   UNK N   1      25.159  20.533   2.409  0.00  0.00    -0.365 N 
HETATM   33  H   UNK N   1      25.451  21.405   2.057  0.00  0.00     0.159 HD
HETATM   34  H   UNK N   1      25.750  19.751   2.321  0.00  0.00     0.159 HD
ENDBRANCH   6  30
BRANCH   2  35
HETATM   35  O   UNK N   1      22.755  15.567   5.650  0.00  0.00    -0.327 OA
BRANCH  35  36
HETATM   36  C   UNK N   1      21.767  15.318   6.571  0.00  0.00     0.150 C 
HETATM   37  C   UNK N   1      20.951  16.580   6.890  0.00  0.00     0.054 C 
HETATM   38  C   UNK N   1      20.395  16.322   8.294  0.00  0.00     0.129 C 
HETATM   39  N   UNK N   1      21.098  15.137   8.692  0.00  0.00    -0.346 N 
HETATM   40  C   UNK N   1      22.278  14.919   7.928  0.00  0.00     0.158 C 
HETATM   41  C   UNK N   1      20.500  14.135   9.391  0.00  0.00     0.242 C 
HETATM   42  O   UNK N   1      19.392  14.306   9.880  0.00  0.00    -0.268 OA
BRANCH  41  43
HETATM   43  C   UNK N   1      21.159  12.812   9.504  0.00  0.00     0.064 C 
HETATM   44  C   UNK N   1      21.640  12.361  10.661  0.00  0.00     0.017 C 
ENDBRANCH  41  43
ENDBRANCH  35  36
ENDBRANCH   2  35
BRANCH   1  45
HETATM   45  C   UNK N   1      21.104  16.441   3.241  0.00  0.00     0.057 C 
HETATM   46  C   UNK N   1      20.235  17.348   2.393  0.00  0.00     0.011 C 
ENDBRANCH   1  45
TORSDOF 9
ENDMDL
MODEL 3
REMARK VINA RESULT:      -8.4      1.916      2.832
REMARK  9 active torsions:
REMARK  status: ('A' for Active; 'I' for Inactive)
REMARK    1  A    between atoms: C_2  and  C_3 
REMARK    2  A    between atoms: C_4  and  O_34 
REMARK    3  A    between atoms: C_7  and  N_14 
REMARK    4  A    between atoms: C_8  and  C_11 
REMARK       I    between atoms: C_11  and  N_13 
REMARK    5  A    between atoms: N_14  and  C_15 
REMARK    6  A    between atoms: C_18  and  N_21 
REMARK    7  A    between atoms: C_24  and  N_27 
REMARK    8  A    between atoms: C_35  and  O_34 
REMARK       I    between atoms: N_38  and  C_40 
REMARK    9  A    between atoms: C_40  and  C_42 
ROOT
HETATM    1  C   UNK N   1      20.896  17.467   4.519  0.00  0.00     0.061 A 
HETATM    2  C   UNK N   1      22.188  17.405   5.115  0.00  0.00     0.167 A 
HETATM    3  N   UNK N   1      23.115  18.293   4.699  0.00  0.00    -0.319 N 
ATOM      4  HN  UNK N   1      24.046  18.249   5.114  1.00  0.00     0.169 HD
HETATM    5  C   UNK N   1      22.874  19.241   3.756  0.00  0.00     0.140 A 
HETATM    6  C   UNK N   1      21.603  19.304   3.164  0.00  0.00     0.145 A 
HETATM    7  N   UNK N   1      20.661  18.408   3.561  0.00  0.00    -0.349 N 
ATOM      8  HN  UNK N   1      19.739  18.442   3.124  1.00  0.00     0.166 HD
ENDROOT
BRANCH   5   9
HETATM    9  N   UNK N   1      23.920  20.134   3.406  0.00  0.00    -0.340 N 
HETATM   10  H   UNK N   1      23.729  20.979   2.940  0.00  0.00     0.167 HD
BRANCH   9  11
HETATM   11  C   UNK N   1      25.242  19.775   3.746  0.00  0.00     0.033 A 
HETATM   12  C   UNK N   1      25.949  20.518   4.694  0.00  0.00     0.032 A 
HETATM   13  C   UNK N   1      27.155  20.022   5.199  0.00  0.00     0.031 A 
HETATM   14  C   UNK N   1      27.673  18.806   4.723  0.00  0.00     0.030 A 
HETATM   15  C   UNK N   1      26.983  18.096   3.737  0.00  0.00     0.031 A 
HETATM   16  C   UNK N   1      25.761  18.562   3.276  0.00  0.00     0.032 A 
BRANCH  14  17
HETATM   17  N   UNK N   1      28.841  18.254   5.295  0.00  0.00    -0.381 N 
HETATM   18  C   UNK N   1      29.741  17.473   4.460  0.00  0.00     0.125 C 
HETATM   19  C   UNK N   1      31.015  17.164   5.236  0.00  0.00     0.055 C 
HETATM   20  C   UNK N   1      30.712  16.404   6.557  0.00  0.00     0.226 C 
HETATM   21  C   UNK N   1      29.259  16.593   7.012  0.00  0.00     0.055 C 
HETATM   22  C   UNK N   1      28.842  18.037   6.733  0.00  0.00     0.125 C 
BRANCH  20  23
HETATM   23  N   UNK N   1      31.598  16.753   7.678  0.00  0.00     0.096 N 
HETATM   24  C   UNK N   1      32.752  17.568   7.266  0.00  0.00     0.303 C 
HETATM   25  C   UNK N   1      33.712  17.755   8.434  0.00  0.00     0.302 C 
HETATM   26  N   UNK N   1      34.198  16.443   8.841  0.00  0.00     0.087 N 
HETATM   27  C   UNK N   1      33.064  15.684   9.355  0.00  0.00     0.302 C 
HETATM   28  C   UNK N   1      35.140  16.629   9.926  0.00  0.00     0.310 C 
HETATM   29  C   UNK N   1      32.055  15.471   8.230  0.00  0.00     0.303 C 
ENDBRANCH  20  23
ENDBRANCH  14  17
ENDBRANCH   9  11
ENDBRANCH   5   9
BRANCH   6  30
HETATM   30  C   UNK N   1      21.260  20.288   2.108  0.00  0.00     0.269 C 
HETATM   31  O   UNK N   1      21.652  21.441   2.169  0.00  0.00    -0.266 OA
HETATM   32  N   UNK N   1      20.513  19.901   1.053  0.00  0.00    -0.365 N 
HETATM   33  H   UNK N   1      20.388  20.492   0.275  0.00  0.00     0.159 HD
HETATM   34  H   UNK N   1      20.088  19.013   1.061  0.00  0.00     0.159 HD
ENDBRANCH   6  30
BRANCH   2  35
HETATM   35  O   UNK N   1      22.575  16.525   6.085  0.00  0.00    -0.327 OA
BRANCH  35  36
HETATM   36  C   UNK N   1      23.325  15.384   5.942  0.00  0.00     0.150 C 
HETATM   37  C   UNK N   1      22.839  14.261   6.870  0.00  0.00     0.054 C 
HETATM   38  C   UNK N   1      24.076  13.378   7.068  0.00  0.00     0.129 C 
HETATM   39  N   UNK N   1      25.117  14.166   6.475  0.00  0.00    -0.346 N 
HETATM   40  C   UNK N   1      24.763  15.539   6.356  0.00  0.00     0.158 C 
HETATM   41  C   UNK N   1      26.116  13.615   5.733  0.00  0.00     0.242 C 
HETATM   42  O   UNK N   1      26.270  12.402   5.718  0.00  0.00    -0.268 OA
BRANCH  41  43
HETATM   43  C   UNK N   1      26.975  14.477   4.886  0.00  0.00     0.064 C 
HETATM   44  C   UNK N   1      26.981  14.379   3.559  0.00  0.00     0.017 C 
ENDBRANCH  41  43
ENDBRANCH  35  36
ENDBRANCH   2  35
BRANCH   1  45
HETATM   45  C   UNK N   1      19.787  16.528   4.851  0.00  0.00     0.057 C 
HETATM   46  C   UNK N   1      19.859  15.270   4.009  0.00  0.00     0.011 C 
ENDBRANCH   1  45
TORSDOF 9
ENDMDL
MODEL 4
REMARK VINA RESULT:      -8.4      3.122      5.504
REMARK  9 active torsions:
REMARK  status: ('A' for Active; 'I' for Inactive)
REMARK    1  A    between atoms: C_2  and  C_3 
REMARK    2  A    between atoms: C_4  and  O_34 
REMARK    3  A    between atoms: C_7  and  N_14 
REMARK    4  A    between atoms: C_8  and  C_11 
REMARK       I    between atoms: C_11  and  N_13 
REMARK    5  A    between atoms: N_14  and  C_15 
REMARK    6  A    between atoms: C_18  and  N_21 
REMARK    7  A    between atoms: C_24  and  N_27 
REMARK    8  A    between atoms: C_35  and  O_34 
REMARK       I    between atoms: N_38  and  C_40 
REMARK    9  A    between atoms: C_40  and  C_42 
ROOT
HETATM    1  C   UNK N   1      25.379  16.154   3.754  0.00  0.00     0.061 A 
HETATM    2  C   UNK N   1      25.573  15.734   5.101  0.00  0.00     0.167 A 
HETATM    3  N   UNK N   1      26.145  16.608   5.955  0.00  0.00    -0.319 N 
ATOM      4  HN  UNK N   1      26.297  16.312   6.920  1.00  0.00     0.169 HD
HETATM    5  C   UNK N   1      26.531  17.862   5.598  0.00  0.00     0.140 A 
HETATM    6  C   UNK N   1      26.343  18.278   4.271  0.00  0.00     0.145 A 
HETATM    7  N   UNK N   1      25.781  17.406   3.394  0.00  0.00    -0.349 N 
ATOM      8  HN  UNK N   1      25.654  17.699   2.425  1.00  0.00     0.166 HD
ENDROOT
BRANCH   5   9
HETATM    9  N   UNK N   1      27.108  18.702   6.584  0.00  0.00    -0.340 N 
HETATM   10  H   UNK N   1      26.610  19.467   6.951  0.00  0.00     0.167 HD
BRANCH   9  11
HETATM   11  C   UNK N   1      28.418  18.411   7.023  0.00  0.00     0.033 A 
HETATM   12  C   UNK N   1      28.799  18.704   8.335  0.00  0.00     0.032 A 
HETATM   13  C   UNK N   1      30.005  18.198   8.831  0.00  0.00     0.031 A 
HETATM   14  C   UNK N   1      30.847  17.439   8.002  0.00  0.00     0.030 A 
HETATM   15  C   UNK N   1      30.479  17.195   6.676  0.00  0.00     0.031 A 
HETATM   16  C   UNK N   1      29.258  17.651   6.201  0.00  0.00     0.032 A 
BRANCH  14  17
HETATM   17  N   UNK N   1      32.019  16.847   8.523  0.00  0.00    -0.381 N 
HETATM   18  C   UNK N   1      33.255  17.614   8.538  0.00  0.00     0.125 C 
HETATM   19  C   UNK N   1      34.316  16.854   9.326  0.00  0.00     0.055 C 
HETATM   20  C   UNK N   1      34.566  15.441   8.732  0.00  0.00     0.226 C 
HETATM   21  C   UNK N   1      33.392  14.958   7.870  0.00  0.00     0.055 C 
HETATM   22  C   UNK N   1      32.086  15.395   8.534  0.00  0.00     0.125 C 
BRANCH  20  23
HETATM   23  N   UNK N   1      34.865  14.404   9.732  0.00  0.00     0.096 N 
HETATM   24  C   UNK N   1      34.585  14.837  11.110  0.00  0.00     0.303 C 
HETATM   25  C   UNK N   1      35.067  13.787  12.103  0.00  0.00     0.302 C 
HETATM   26  N   UNK N   1      36.509  13.642  11.951  0.00  0.00     0.087 N 
HETATM   27  C   UNK N   1      36.768  13.102  10.621  0.00  0.00     0.302 C 
HETATM   28  C   UNK N   1      36.968  12.670  12.924  0.00  0.00     0.310 C 
HETATM   29  C   UNK N   1      36.295  14.107   9.574  0.00  0.00     0.303 C 
ENDBRANCH  20  23
ENDBRANCH  14  17
ENDBRANCH   9  11
ENDBRANCH   5   9
BRANCH   6  30
HETATM   30  C   UNK N   1      26.759  19.618   3.787  0.00  0.00     0.269 C 
HETATM   31  O   UNK N   1      27.863  20.066   4.045  0.00  0.00    -0.266 OA
HETATM   32  N   UNK N   1      25.909  20.349   3.036  0.00  0.00    -0.365 N 
HETATM   33  H   UNK N   1      26.207  21.175   2.590  0.00  0.00     0.159 HD
HETATM   34  H   UNK N   1      24.976  20.052   2.933  0.00  0.00     0.159 HD
ENDBRANCH   6  30
BRANCH   2  35
HETATM   35  O   UNK N   1      25.222  14.519   5.614  0.00  0.00    -0.327 OA
BRANCH  35  36
HETATM   36  C   UNK N   1      24.030  14.155   6.193  0.00  0.00     0.150 C 
HETATM   37  C   UNK N   1      22.975  15.265   6.072  0.00  0.00     0.054 C 
HETATM   38  C   UNK N   1      22.023  15.004   7.244  0.00  0.00     0.129 C 
HETATM   39  N   UNK N   1      22.720  13.998   7.991  0.00  0.00    -0.346 N 
HETATM   40  C   UNK N   1      24.107  13.950   7.680  0.00  0.00     0.158 C 
HETATM   41  C   UNK N   1      22.079  12.953   8.581  0.00  0.00     0.242 C 
HETATM   42  O   UNK N   1      20.859  12.950   8.663  0.00  0.00    -0.268 OA
BRANCH  41  43
HETATM   43  C   UNK N   1      22.853  11.784   9.064  0.00  0.00     0.064 C 
HETATM   44  C   UNK N   1      22.996  11.521  10.361  0.00  0.00     0.017 C 
ENDBRANCH  41  43
ENDBRANCH  35  36
ENDBRANCH   2  35
BRANCH   1  45
HETATM   45  C   UNK N   1      24.796  15.284   2.694  0.00  0.00     0.057 C 
HETATM   46  C   UNK N   1      25.873  14.511   1.961  0.00  0.00     0.011 C 
ENDBRANCH   1  45
TORSDOF 9
ENDMDL
MODEL 5
REMARK VINA RESULT:      -8.2      4.553      9.464
REMARK  9 active torsions:
REMARK  status: ('A' for Active; 'I' for Inactive)
REMARK    1  A    between atoms: C_2  and  C_3 
REMARK    2  A    between atoms: C_4  and  O_34 
REMARK    3  A    between atoms: C_7  and  N_14 
REMARK    4  A    between atoms: C_8  and  C_11 
REMARK       I    between atoms: C_11  and  N_13 
REMARK    5  A    between atoms: N_14  and  C_15 
REMARK    6  A    between atoms: C_18  and  N_21 
REMARK    7  A    between atoms: C_24  and  N_27 
REMARK    8  A    between atoms: C_35  and  O_34 
REMARK       I    between atoms: N_38  and  C_40 
REMARK    9  A    between atoms: C_40  and  C_42 
ROOT
HETATM    1  C   UNK N   1      28.792  15.811   3.360  0.00  0.00     0.061 A 
HETATM    2  C   UNK N   1      28.715  16.899   4.276  0.00  0.00     0.167 A 
HETATM    3  N   UNK N   1      29.873  17.409   4.745  0.00  0.00    -0.319 N 
ATOM      4  HN  UNK N   1      29.827  18.182   5.409  1.00  0.00     0.169 HD
HETATM    5  C   UNK N   1      31.098  16.946   4.381  0.00  0.00     0.140 A 
HETATM    6  C   UNK N   1      31.178  15.873   3.480  0.00  0.00     0.145 A 
HETATM    7  N   UNK N   1      30.021  15.337   3.008  0.00  0.00    -0.349 N 
ATOM      8  HN  UNK N   1      30.074  14.549   2.363  1.00  0.00     0.166 HD
ENDROOT
BRANCH   5   9
HETATM    9  N   UNK N   1      32.250  17.568   4.925  0.00  0.00    -0.340 N 
HETATM   10  H   UNK N   1      32.754  18.239   4.411  0.00  0.00     0.167 HD
BRANCH   9  11
HETATM   11  C   UNK N   1      32.655  17.198   6.226  0.00  0.00     0.033 A 
HETATM   12  C   UNK N   1      32.066  16.100   6.858  0.00  0.00     0.032 A 
HETATM   13  C   UNK N   1      32.632  15.596   8.033  0.00  0.00     0.031 A 
HETATM   14  C   UNK N   1      33.759  16.217   8.597  0.00  0.00     0.030 A 
HETATM   15  C   UNK N   1      34.309  17.346   7.984  0.00  0.00     0.031 A 
HETATM   16  C   UNK N   1      33.780  17.813   6.790  0.00  0.00     0.032 A 
BRANCH  14  17
HETATM   17  N   UNK N   1      34.391  15.658   9.730  0.00  0.00    -0.381 N 
HETATM   18  C   UNK N   1      35.363  16.451  10.466  0.00  0.00     0.125 C 
HETATM   19  C   UNK N   1      35.747  15.725  11.749  0.00  0.00     0.055 C 
HETATM   20  C   UNK N   1      36.318  14.310  11.456  0.00  0.00     0.226 C 
HETATM   21  C   UNK N   1      35.899  13.791  10.074  0.00  0.00     0.055 C 
HETATM   22  C   UNK N   1      34.452  14.208   9.813  0.00  0.00     0.125 C 
BRANCH  20  23
HETATM   23  N   UNK N   1      35.967  13.293  12.460  0.00  0.00     0.096 N 
HETATM   24  C   UNK N   1      35.771  13.856  13.805  0.00  0.00     0.303 C 
HETATM   25  C   UNK N   1      35.574  12.739  14.823  0.00  0.00     0.302 C 
HETATM   26  N   UNK N   1      36.778  11.919  14.839  0.00  0.00     0.087 N 
HETATM   27  C   UNK N   1      36.900  11.274  13.537  0.00  0.00     0.302 C 
HETATM   28  C   UNK N   1      36.601  10.882  15.836  0.00  0.00     0.310 C 
HETATM   29  C   UNK N   1      37.089  12.345  12.466  0.00  0.00     0.303 C 
ENDBRANCH  20  23
ENDBRANCH  14  17
ENDBRANCH   9  11
ENDBRANCH   5   9
BRANCH   6  30
HETATM   30  C   UNK N   1      32.471  15.285   3.048  0.00  0.00     0.269 C 
HETATM   31  O   UNK N   1      33.309  15.960   2.476  0.00  0.00    -0.266 OA
HETATM   32  N   UNK N   1      32.731  13.986   3.303  0.00  0.00    -0.365 N 
HETATM   33  H   UNK N   1      33.628  13.609   3.151  0.00  0.00     0.159 HD
HETATM   34  H   UNK N   1      32.013  13.407   3.646  0.00  0.00     0.159 HD
ENDBRANCH   6  30
BRANCH   2  35
HETATM   35  O   UNK N   1      27.565  17.485   4.721  0.00  0.00    -0.327 OA
BRANCH  35  36
HETATM   36  C   UNK N   1      26.744  18.357   4.048  0.00  0.00     0.150 C 
HETATM   37  C   UNK N   1      27.442  19.696   3.766  0.00  0.00     0.054 C 
HETATM   38  C   UNK N   1      26.289  20.698   3.635  0.00  0.00     0.129 C 
HETATM   39  N   UNK N   1      25.159  19.927   4.065  0.00  0.00    -0.346 N 
HETATM   40  C   UNK N   1      25.534  18.787   4.830  0.00  0.00     0.158 C 
HETATM   41  C   UNK N   1      23.942  20.020   3.464  0.00  0.00     0.242 C 
HETATM   42  O   UNK N   1      23.721  20.918   2.664  0.00  0.00    -0.268 OA
BRANCH  41  43
HETATM   43  C   UNK N   1      22.904  18.994   3.725  0.00  0.00     0.064 C 
HETATM   44  C   UNK N   1      21.652  19.133   3.296  0.00  0.00     0.017 C 
ENDBRANCH  41  43
ENDBRANCH  35  36
ENDBRANCH   2  35
BRANCH   1  45
HETATM   45  C   UNK N   1      27.598  15.125   2.790  0.00  0.00     0.057 C 
HETATM   46  C   UNK N   1      28.000  13.935   1.942  0.00  0.00     0.011 C 
ENDBRANCH   1  45
TORSDOF 9
ENDMDL
MODEL 6
REMARK VINA RESULT:      -8.1      2.736      4.926
REMARK  9 active torsions:
REMARK  status: ('A' for Active; 'I' for Inactive)
REMARK    1  A    between atoms: C_2  and  C_3 
REMARK    2  A    between atoms: C_4  and  O_34 
REMARK    3  A    between atoms: C_7  and  N_14 
REMARK    4  A    between atoms: C_8  and  C_11 
REMARK       I    between atoms: C_11  and  N_13 
REMARK    5  A    between atoms: N_14  and  C_15 
REMARK    6  A    between atoms: C_18  and  N_21 
REMARK    7  A    between atoms: C_24  and  N_27 
REMARK    8  A    between atoms: C_35  and  O_34 
REMARK       I    between atoms: N_38  and  C_40 
REMARK    9  A    between atoms: C_40  and  C_42 
ROOT
HETATM    1  C   UNK N   1      23.800  17.558   5.299  0.00  0.00     0.061 A 
HETATM    2  C   UNK N   1      24.518  16.328   5.265  0.00  0.00     0.167 A 
HETATM    3  N   UNK N   1      25.780  16.351   4.787  0.00  0.00    -0.319 N 
ATOM      4  HN  UNK N   1      26.298  15.473   4.750  1.00  0.00     0.169 HD
HETATM    5  C   UNK N   1      26.397  17.482   4.351  0.00  0.00     0.140 A 
HETATM    6  C   UNK N   1      25.691  18.694   4.382  0.00  0.00     0.145 A 
HETATM    7  N   UNK N   1      24.414  18.688   4.847  0.00  0.00    -0.349 N 
ATOM      8  HN  UNK N   1      23.893  19.565   4.858  1.00  0.00     0.166 HD
ENDROOT
BRANCH   5   9
HETATM    9  N   UNK N   1      27.733  17.391   3.884  0.00  0.00    -0.340 N 
HETATM   10  H   UNK N   1      27.926  17.268   2.927  0.00  0.00     0.167 HD
BRANCH   9  11
HETATM   11  C   UNK N   1      28.777  17.481   4.829  0.00  0.00     0.033 A 
HETATM   12  C   UNK N   1      28.499  17.372   6.194  0.00  0.00     0.032 A 
HETATM   13  C   UNK N   1      29.551  17.221   7.101  0.00  0.00     0.031 A 
HETATM   14  C   UNK N   1      30.881  17.223   6.648  0.00  0.00     0.030 A 
HETATM   15  C   UNK N   1      31.150  17.385   5.286  0.00  0.00     0.031 A 
HETATM   16  C   UNK N   1      30.103  17.480   4.381  0.00  0.00     0.032 A 
BRANCH  14  17
HETATM   17  N   UNK N   1      31.943  16.978   7.547  0.00  0.00    -0.381 N 
HETATM   18  C   UNK N   1      33.151  17.782   7.455  0.00  0.00     0.125 C 
HETATM   19  C   UNK N   1      34.056  17.479   8.644  0.00  0.00     0.055 C 
HETATM   20  C   UNK N   1      34.418  15.970   8.716  0.00  0.00     0.226 C 
HETATM   21  C   UNK N   1      33.422  15.097   7.941  0.00  0.00     0.055 C 
HETATM   22  C   UNK N   1      32.015  15.657   8.150  0.00  0.00     0.125 C 
BRANCH  20  23
HETATM   23  N   UNK N   1      34.537  15.437  10.083  0.00  0.00     0.096 N 
HETATM   24  C   UNK N   1      35.599  16.090  10.863  0.00  0.00     0.303 C 
HETATM   25  C   UNK N   1      35.780  15.386  12.203  0.00  0.00     0.302 C 
HETATM   26  N   UNK N   1      36.178  14.008  11.945  0.00  0.00     0.087 N 
HETATM   27  C   UNK N   1      35.071  13.339  11.273  0.00  0.00     0.302 C 
HETATM   28  C   UNK N   1      36.386  13.355  13.222  0.00  0.00     0.310 C 
HETATM   29  C   UNK N   1      34.830  14.007   9.922  0.00  0.00     0.303 C 
ENDBRANCH  20  23
ENDBRANCH  14  17
ENDBRANCH   9  11
ENDBRANCH   5   9
BRANCH   6  30
HETATM   30  C   UNK N   1      26.275  19.972   3.901  0.00  0.00     0.269 C 
HETATM   31  O   UNK N   1      27.180  20.518   4.508  0.00  0.00    -0.266 OA
HETATM   32  N   UNK N   1      25.808  20.533   2.766  0.00  0.00    -0.365 N 
HETATM   33  H   UNK N   1      26.266  21.302   2.355  0.00  0.00     0.159 HD
HETATM   34  H   UNK N   1      24.997  20.169   2.344  0.00  0.00     0.159 HD
ENDBRANCH   6  30
BRANCH   2  35
HETATM   35  O   UNK N   1      24.045  15.118   5.683  0.00  0.00    -0.327 OA
BRANCH  35  36
HETATM   36  C   UNK N   1      24.010  14.619   6.962  0.00  0.00     0.150 C 
HETATM   37  C   UNK N   1      25.126  13.593   7.206  0.00  0.00     0.054 C 
HETATM   38  C   UNK N   1      24.585  12.715   8.340  0.00  0.00     0.129 C 
HETATM   39  N   UNK N   1      23.224  13.150   8.446  0.00  0.00    -0.346 N 
HETATM   40  C   UNK N   1      22.773  13.824   7.277  0.00  0.00     0.158 C 
HETATM   41  C   UNK N   1      22.595  13.291   9.645  0.00  0.00     0.242 C 
HETATM   42  O   UNK N   1      23.113  12.854  10.663  0.00  0.00    -0.268 OA
BRANCH  41  43
HETATM   43  C   UNK N   1      21.316  14.036   9.729  0.00  0.00     0.064 C 
HETATM   44  C   UNK N   1      20.211  13.483  10.226  0.00  0.00     0.017 C 
ENDBRANCH  41  43
ENDBRANCH  35  36
ENDBRANCH   2  35
BRANCH   1  45
HETATM   45  C   UNK N   1      22.389  17.677   5.764  0.00  0.00     0.057 C 
HETATM   46  C   UNK N   1      21.414  17.304   4.666  0.00  0.00     0.011 C 
ENDBRANCH   1  45
TORSDOF 9
ENDMDL
MODEL 7
REMARK VINA RESULT:      -8.1      3.143      4.140
REMARK  9 active torsions:
REMARK  status: ('A' for Active; 'I' for Inactive)
REMARK    1  A    between atoms: C_2  and  C_3 
REMARK    2  A    between atoms: C_4  and  O_34 
REMARK    3  A    between atoms: C_7  and  N_14 
REMARK    4  A    between atoms: C_8  and  C_11 
REMARK       I    between atoms: C_11  and  N_13 
REMARK    5  A    between atoms: N_14  and  C_15 
REMARK    6  A    between atoms: C_18  and  N_21 
REMARK    7  A    between atoms: C_24  and  N_27 
REMARK    8  A    between atoms: C_35  and  O_34 
REMARK       I    between atoms: N_38  and  C_40 
REMARK    9  A    between atoms: C_40  and  C_42 
ROOT
HETATM    1  C   UNK N   1      19.852  16.772   0.908  0.00  0.00     0.061 A 
HETATM    2  C   UNK N   1      20.667  15.916   1.703  0.00  0.00     0.167 A 
HETATM    3  N   UNK N   1      21.340  16.469   2.733  0.00  0.00    -0.319 N 
ATOM      4  HN  UNK N   1      21.934  15.864   3.302  1.00  0.00     0.169 HD
HETATM    5  C   UNK N   1      21.270  17.788   3.054  0.00  0.00     0.140 A 
HETATM    6  C   UNK N   1      20.469  18.634   2.272  0.00  0.00     0.145 A 
HETATM    7  N   UNK N   1      19.795  18.097   1.221  0.00  0.00    -0.349 N 
ATOM      8  HN  UNK N   1      19.222  18.712   0.642  1.00  0.00     0.166 HD
ENDROOT
BRANCH   5   9
HETATM    9  N   UNK N   1      22.009  18.257   4.170  0.00  0.00    -0.340 N 
HETATM   10  H   UNK N   1      21.583  18.814   4.860  0.00  0.00     0.167 HD
BRANCH   9  11
HETATM   11  C   UNK N   1      23.372  17.904   4.261  0.00  0.00     0.033 A 
HETATM   12  C   UNK N   1      24.357  18.783   3.805  0.00  0.00     0.032 A 
HETATM   13  C   UNK N   1      25.698  18.537   4.115  0.00  0.00     0.031 A 
HETATM   14  C   UNK N   1      26.056  17.391   4.843  0.00  0.00     0.030 A 
HETATM   15  C   UNK N   1      25.067  16.491   5.251  0.00  0.00     0.031 A 
HETATM   16  C   UNK N   1      23.732  16.763   4.989  0.00  0.00     0.032 A 
BRANCH  14  17
HETATM   17  N   UNK N   1      27.396  17.185   5.240  0.00  0.00    -0.381 N 
HETATM   18  C   UNK N   1      27.982  15.860   5.104  0.00  0.00     0.125 C 
HETATM   19  C   UNK N   1      29.476  15.933   5.396  0.00  0.00     0.055 C 
HETATM   20  C   UNK N   1      29.756  16.502   6.813  0.00  0.00     0.226 C 
HETATM   21  C   UNK N   1      28.568  17.307   7.359  0.00  0.00     0.055 C 
HETATM   22  C   UNK N   1      27.953  18.110   6.213  0.00  0.00     0.125 C 
BRANCH  20  23
HETATM   23  N   UNK N   1      30.963  17.337   6.907  0.00  0.00     0.096 N 
HETATM   24  C   UNK N   1      32.146  16.706   6.300  0.00  0.00     0.303 C 
HETATM   25  C   UNK N   1      33.391  17.542   6.574  0.00  0.00     0.302 C 
HETATM   26  N   UNK N   1      33.591  17.604   8.016  0.00  0.00     0.087 N 
HETATM   27  C   UNK N   1      32.469  18.333   8.594  0.00  0.00     0.302 C 
HETATM   28  C   UNK N   1      34.798  18.367   8.269  0.00  0.00     0.310 C 
HETATM   29  C   UNK N   1      31.183  17.550   8.343  0.00  0.00     0.303 C 
ENDBRANCH  20  23
ENDBRANCH  14  17
ENDBRANCH   9  11
ENDBRANCH   5   9
BRANCH   6  30
HETATM   30  C   UNK N   1      20.354  20.091   2.531  0.00  0.00     0.269 C 
HETATM   31  O   UNK N   1      20.291  20.525   3.669  0.00  0.00    -0.266 OA
HETATM   32  N   UNK N   1      20.332  20.954   1.494  0.00  0.00    -0.365 N 
HETATM   33  H   UNK N   1      20.395  21.926   1.640  0.00  0.00     0.159 HD
HETATM   34  H   UNK N   1      20.253  20.606   0.577  0.00  0.00     0.159 HD
ENDBRANCH   6  30
BRANCH   2  35
HETATM   35  O   UNK N   1      20.825  14.572   1.519  0.00  0.00    -0.327 OA
BRANCH  35  36
HETATM   36  C   UNK N   1      21.972  13.891   1.193  0.00  0.00     0.150 C 
HETATM   37  C   UNK N   1      21.666  12.567   0.478  0.00  0.00     0.054 C 
HETATM   38  C   UNK N   1      22.894  11.695   0.765  0.00  0.00     0.129 C 
HETATM   39  N   UNK N   1      23.602  12.470   1.740  0.00  0.00    -0.346 N 
HETATM   40  C   UNK N   1      22.774  13.434   2.380  0.00  0.00     0.158 C 
HETATM   41  C   UNK N   1      24.959  12.574   1.743  0.00  0.00     0.242 C 
HETATM   42  O   UNK N   1      25.631  11.842   1.031  0.00  0.00    -0.268 OA
BRANCH  41  43
HETATM   43  C   UNK N   1      25.622  13.622   2.556  0.00  0.00     0.064 C 
HETATM   44  C   UNK N   1      26.117  14.731   2.009  0.00  0.00     0.017 C 
ENDBRANCH  41  43
ENDBRANCH  35  36
ENDBRANCH   2  35
BRANCH   1  45
HETATM   45  C   UNK N   1      19.083  16.309  -0.282  0.00  0.00     0.057 C 
HETATM   46  C   UNK N   1      18.312  15.040   0.019  0.00  0.00     0.011 C 
ENDBRANCH   1  45
TORSDOF 9
ENDMDL
MODEL 8
REMARK VINA RESULT:      -8.0      2.006      3.252
REMARK  9 active torsions:
REMARK  status: ('A' for Active; 'I' for Inactive)
REMARK    1  A    between atoms: C_2  and  C_3 
REMARK    2  A    between atoms: C_4  and  O_34 
REMARK    3  A    between atoms: C_7  and  N_14 
REMARK    4  A    between atoms: C_8  and  C_11 
REMARK       I    between atoms: C_11  and  N_13 
REMARK    5  A    between atoms: N_14  and  C_15 
REMARK    6  A    between atoms: C_18  and  N_21 
REMARK    7  A    between atoms: C_24  and  N_27 
REMARK    8  A    between atoms: C_35  and  O_34 
REMARK       I    between atoms: N_38  and  C_40 
REMARK    9  A    between atoms: C_40  and  C_42 
ROOT
HETATM    1  C   UNK N   1      21.981  17.038   5.107  0.00  0.00     0.061 A 
HETATM    2  C   UNK N   1      23.108  16.169   5.046  0.00  0.00     0.167 A 
HETATM    3  N   UNK N   1      24.215  16.619   4.421  0.00  0.00    -0.319 N 
ATOM      4  HN  UNK N   1      25.024  15.999   4.365  1.00  0.00     0.169 HD
HETATM    5  C   UNK N   1      24.311  17.854   3.861  0.00  0.00     0.140 A 
HETATM    6  C   UNK N   1      23.202  18.712   3.917  0.00  0.00     0.145 A 
HETATM    7  N   UNK N   1      22.073  18.270   4.530  0.00  0.00    -0.349 N 
ATOM      8  HN  UNK N   1      21.260  18.886   4.562  1.00  0.00     0.166 HD
ENDROOT
BRANCH   5   9
HETATM    9  N   UNK N   1      25.531  18.228   3.242  0.00  0.00    -0.340 N 
HETATM   10  H   UNK N   1      25.546  18.570   2.319  0.00  0.00     0.167 HD
BRANCH   9  11
HETATM   11  C   UNK N   1      26.723  18.094   3.986  0.00  0.00     0.033 A 
HETATM   12  C   UNK N   1      26.850  18.722   5.227  0.00  0.00     0.032 A 
HETATM   13  C   UNK N   1      27.924  18.393   6.059  0.00  0.00     0.031 A 
HETATM   14  C   UNK N   1      28.893  17.470   5.631  0.00  0.00     0.030 A 
HETATM   15  C   UNK N   1      28.784  16.886   4.366  0.00  0.00     0.031 A 
HETATM   16  C   UNK N   1      27.689  17.172   3.563  0.00  0.00     0.032 A 
BRANCH  14  17
HETATM   17  N   UNK N   1      29.928  17.064   6.503  0.00  0.00    -0.381 N 
HETATM   18  C   UNK N   1      30.010  17.651   7.831  0.00  0.00     0.125 C 
HETATM   19  C   UNK N   1      31.064  16.914   8.648  0.00  0.00     0.055 C 
HETATM   20  C   UNK N   1      32.454  16.953   7.956  0.00  0.00     0.226 C 
HETATM   21  C   UNK N   1      32.345  17.244   6.453  0.00  0.00     0.055 C 
HETATM   22  C   UNK N   1      31.127  16.506   5.900  0.00  0.00     0.125 C 
BRANCH  20  23
HETATM   23  N   UNK N   1      33.259  15.735   8.136  0.00  0.00     0.096 N 
HETATM   24  C   UNK N   1      33.581  15.462   9.546  0.00  0.00     0.303 C 
HETATM   25  C   UNK N   1      34.547  14.288   9.650  0.00  0.00     0.302 C 
HETATM   26  N   UNK N   1      35.778  14.646   8.958  0.00  0.00     0.087 N 
HETATM   27  C   UNK N   1      35.468  14.801   7.541  0.00  0.00     0.302 C 
HETATM   28  C   UNK N   1      36.707  13.541   9.094  0.00  0.00     0.310 C 
HETATM   29  C   UNK N   1      34.490  15.960   7.369  0.00  0.00     0.303 C 
ENDBRANCH  20  23
ENDBRANCH  14  17
ENDBRANCH   9  11
ENDBRANCH   5   9
BRANCH   6  30
HETATM   30  C   UNK N   1      23.207  20.066   3.308  0.00  0.00     0.269 C 
HETATM   31  O   UNK N   1      24.142  20.829   3.478  0.00  0.00    -0.266 OA
HETATM   32  N   UNK N   1      22.167  20.457   2.543  0.00  0.00    -0.365 N 
HETATM   33  H   UNK N   1      22.207  21.291   2.019  0.00  0.00     0.159 HD
HETATM   34  H   UNK N   1      21.356  19.901   2.507  0.00  0.00     0.159 HD
ENDBRANCH   6  30
BRANCH   2  35
HETATM   35  O   UNK N   1      23.172  14.913   5.576  0.00  0.00    -0.327 OA
BRANCH  35  36
HETATM   36  C   UNK N   1      23.420  14.555   6.879  0.00  0.00     0.150 C 
HETATM   37  C   UNK N   1      24.925  14.507   7.183  0.00  0.00     0.054 C 
HETATM   38  C   UNK N   1      25.039  13.528   8.357  0.00  0.00     0.129 C 
HETATM   39  N   UNK N   1      23.716  12.980   8.432  0.00  0.00    -0.346 N 
HETATM   40  C   UNK N   1      22.981  13.160   7.227  0.00  0.00     0.158 C 
HETATM   41  C   UNK N   1      23.100  12.722   9.617  0.00  0.00     0.242 C 
HETATM   42  O   UNK N   1      23.738  12.761  10.660  0.00  0.00    -0.268 OA
BRANCH  41  43
HETATM   43  C   UNK N   1      21.641  12.461   9.655  0.00  0.00     0.064 C 
HETATM   44  C   UNK N   1      20.792  13.295  10.251  0.00  0.00     0.017 C 
ENDBRANCH  41  43
ENDBRANCH  35  36
ENDBRANCH   2  35
BRANCH   1  45
HETATM   45  C   UNK N   1      20.681  16.663   5.731  0.00  0.00     0.057 C 
HETATM   46  C   UNK N   1      20.650  17.027   7.201  0.00  0.00     0.011 C 
ENDBRANCH   1  45
TORSDOF 9
ENDMDL
MODEL 9
REMARK VINA RESULT:      -7.9      4.569     11.935
REMARK  9 active torsions:
REMARK  status: ('A' for Active; 'I' for Inactive)
REMARK    1  A    between atoms: C_2  and  C_3 
REMARK    2  A    between atoms: C_4  and  O_34 
REMARK    3  A    between atoms: C_7  and  N_14 
REMARK    4  A    between atoms: C_8  and  C_11 
REMARK       I    between atoms: C_11  and  N_13 
REMARK    5  A    between atoms: N_14  and  C_15 
REMARK    6  A    between atoms: C_18  and  N_21 
REMARK    7  A    between atoms: C_24  and  N_27 
REMARK    8  A    between atoms: C_35  and  O_34 
REMARK       I    between atoms: N_38  and  C_40 
REMARK    9  A    between atoms: C_40  and  C_42 
ROOT
HETATM    1  C   UNK N   1      34.642  13.146   8.728  0.00  0.00     0.061 A 
HETATM    2  C   UNK N   1      33.471  13.591   8.049  0.00  0.00     0.167 A 
HETATM    3  N   UNK N   1      33.077  14.866   8.248  0.00  0.00    -0.319 N 
ATOM      4  HN  UNK N   1      32.234  15.190   7.773  1.00  0.00     0.169 HD
HETATM    5  C   UNK N   1      33.741  15.741   9.048  0.00  0.00     0.140 A 
HETATM    6  C   UNK N   1      34.894  15.305   9.721  0.00  0.00     0.145 A 
HETATM    7  N   UNK N   1      35.298  14.020   9.543  0.00  0.00    -0.349 N 
ATOM      8  HN  UNK N   1      36.128  13.695  10.040  1.00  0.00     0.166 HD
ENDROOT
BRANCH   5   9
HETATM    9  N   UNK N   1      33.244  17.063   9.172  0.00  0.00    -0.340 N 
HETATM   10  H   UNK N   1      33.645  17.698   9.808  0.00  0.00     0.167 HD
BRANCH   9  11
HETATM   11  C   UNK N   1      32.156  17.444   8.357  0.00  0.00     0.033 A 
HETATM   12  C   UNK N   1      32.184  17.186   6.984  0.00  0.00     0.032 A 
HETATM   13  C   UNK N   1      31.017  17.343   6.230  0.00  0.00     0.031 A 
HETATM   14  C   UNK N   1      29.837  17.799   6.840  0.00  0.00     0.030 A 
HETATM   15  C   UNK N   1      29.834  18.103   8.204  0.00  0.00     0.031 A 
HETATM   16  C   UNK N   1      30.977  17.896   8.962  0.00  0.00     0.032 A 
BRANCH  14  17
HETATM   17  N   UNK N   1      28.633  17.871   6.104  0.00  0.00    -0.381 N 
HETATM   18  C   UNK N   1      28.502  17.097   4.880  0.00  0.00     0.125 C 
HETATM   19  C   UNK N   1      27.063  17.172   4.383  0.00  0.00     0.055 C 
HETATM   20  C   UNK N   1      26.617  18.640   4.141  0.00  0.00     0.226 C 
HETATM   21  C   UNK N   1      27.485  19.643   4.912  0.00  0.00     0.055 C 
HETATM   22  C   UNK N   1      27.810  19.056   6.285  0.00  0.00     0.125 C 
BRANCH  20  23
HETATM   23  N   UNK N   1      25.206  18.908   4.459  0.00  0.00     0.096 N 
HETATM   24  C   UNK N   1      24.452  17.691   4.797  0.00  0.00     0.303 C 
HETATM   25  C   UNK N   1      22.970  18.012   4.954  0.00  0.00     0.302 C 
HETATM   26  N   UNK N   1      22.476  18.520   3.681  0.00  0.00     0.087 N 
HETATM   27  C   UNK N   1      23.147  19.786   3.411  0.00  0.00     0.302 C 
HETATM   28  C   UNK N   1      21.059  18.787   3.824  0.00  0.00     0.310 C 
HETATM   29  C   UNK N   1      24.644  19.534   3.254  0.00  0.00     0.303 C 
ENDBRANCH  20  23
ENDBRANCH  14  17
ENDBRANCH   9  11
ENDBRANCH   5   9
BRANCH   6  30
HETATM   30  C   UNK N   1      35.666  16.182  10.635  0.00  0.00     0.269 C 
HETATM   31  O   UNK N   1      35.679  17.392  10.486  0.00  0.00    -0.266 OA
HETATM   32  N   UNK N   1      36.356  15.636  11.658  0.00  0.00    -0.365 N 
HETATM   33  H   UNK N   1      36.761  16.202  12.356  0.00  0.00     0.159 HD
HETATM   34  H   UNK N   1      36.455  14.659  11.708  0.00  0.00     0.159 HD
ENDBRANCH   6  30
BRANCH   2  35
HETATM   35  O   UNK N   1      32.710  12.840   7.201  0.00  0.00    -0.327 OA
BRANCH  35  36
HETATM   36  C   UNK N   1      32.621  12.936   5.833  0.00  0.00     0.150 C 
HETATM   37  C   UNK N   1      32.678  11.558   5.159  0.00  0.00     0.054 C 
HETATM   38  C   UNK N   1      33.204  11.853   3.750  0.00  0.00     0.129 C 
HETATM   39  N   UNK N   1      33.590  13.231   3.846  0.00  0.00    -0.346 N 
HETATM   40  C   UNK N   1      33.776  13.654   5.192  0.00  0.00     0.158 C 
HETATM   41  C   UNK N   1      33.381  14.119   2.836  0.00  0.00     0.242 C 
HETATM   42  O   UNK N   1      33.039  13.721   1.732  0.00  0.00    -0.268 OA
BRANCH  41  43
HETATM   43  C   UNK N   1      33.500  15.575   3.091  0.00  0.00     0.064 C 
HETATM   44  C   UNK N   1      32.451  16.391   3.013  0.00  0.00     0.017 C 
ENDBRANCH  41  43
ENDBRANCH  35  36
ENDBRANCH   2  35
BRANCH   1  45
HETATM   45  C   UNK N   1      35.173  11.757   8.634  0.00  0.00     0.057 C 
HETATM   46  C   UNK N   1      35.375  11.150  10.008  0.00  0.00     0.011 C 
ENDBRANCH   1  45
TORSDOF 9
ENDMDL
