MODEL 1
REMARK VINA RESULT:      -7.1      0.000      0.000
REMARK  4 active torsions:
REMARK  status: ('A' for Active; 'I' for Inactive)
REMARK    1  A    between atoms: C_13  and  C_2 
REMARK    2  A    between atoms: C_16  and  C_9 
REMARK    3  A    between atoms: C_16  and  C_15 
REMARK    4  A    between atoms: O_21  and  C_17 
ROOT
HETATM    1  C   UNK N   1      29.342  16.695   6.281  0.00  0.00     0.195 C 
HETATM    2  O   UNK N   1      28.700  15.688   6.013  0.00  0.00    -0.287 OA
ENDROOT
BRANCH   1   3
HETATM    3  C   UNK N   1      30.822  16.613   6.105  0.00  0.00     0.018 A 
HETATM    4  C   UNK N   1      31.666  17.282   7.009  0.00  0.00     0.037 A 
HETATM    5  C   UNK N   1      33.057  17.189   6.891  0.00  0.00     0.046 A 
HETATM    6  C   UNK N   1      33.621  16.426   5.858  0.00  0.00     0.100 A 
HETATM    7 Br   UNK N   1      34.169  18.091   8.158  0.00  0.00    -0.048 Br
HETATM    8  C   UNK N   1      32.784  15.773   4.947  0.00  0.00     0.046 A 
HETATM    9  C   UNK N   1      31.404  15.875   5.082  0.00  0.00     0.037 A 
HETATM   10 Br   UNK N   1      33.492  14.723   3.518  0.00  0.00    -0.048 Br
BRANCH   6  11
HETATM   11  O   UNK N   1      34.957  16.320   5.743  0.00  0.00    -0.358 OA
HETATM   12  H   UNK N   1      35.473  17.081   5.561  0.00  0.00     0.217 HD
ENDBRANCH   6  11
ENDBRANCH   1   3
BRANCH   1  13
HETATM   13  C   UNK N   1      28.562  17.915   6.726  0.00  0.00     0.058 A 
HETATM   14  C   UNK N   1      27.975  18.794   5.826  0.00  0.00     0.014 A 
HETATM   15  C   UNK N   1      27.938  18.799   4.429  0.00  0.00     0.015 A 
HETATM   16  C   UNK N   1      27.380  19.789   6.550  0.00  0.00     0.087 A 
HETATM   17  C   UNK N   1      27.270  19.858   3.789  0.00  0.00     0.001 A 
HETATM   18  C   UNK N   1      26.658  20.880   4.547  0.00  0.00     0.003 A 
HETATM   19  C   UNK N   1      26.712  20.850   5.952  0.00  0.00     0.038 A 
HETATM   20  O   UNK N   1      27.558  19.587   7.828  0.00  0.00    -0.313 OA
HETATM   21  C   UNK N   1      28.260  18.482   7.993  0.00  0.00     0.068 A 
BRANCH  21  22
HETATM   22  C   UNK N   1      28.644  18.038   9.361  0.00  0.00     0.061 C 
HETATM   23  C   UNK N   1      29.878  18.779   9.840  0.00  0.00     0.012 C 
ENDBRANCH  21  22
ENDBRANCH   1  13
TORSDOF 4
ENDMDL
MODEL 2
REMARK VINA RESULT:      -7.1      0.068      2.022
REMARK  4 active torsions:
REMARK  status: ('A' for Active; 'I' for Inactive)
REMARK    1  A    between atoms: C_13  and  C_2 
REMARK    2  A    between atoms: C_16  and  C_9 
REMARK    3  A    between atoms: C_16  and  C_15 
REMARK    4  A    between atoms: O_21  and  C_17 
ROOT
HETATM    1  C   UNK N   1      29.292  16.677   6.298  0.00  0.00     0.195 C 
HETATM    2  O   UNK N   1      28.636  15.687   5.999  0.00  0.00    -0.287 OA
ENDROOT
BRANCH   1   3
HETATM    3  C   UNK N   1      30.774  16.563   6.165  0.00  0.00     0.018 A 
HETATM    4  C   UNK N   1      31.319  15.790   5.125  0.00  0.00     0.037 A 
HETATM    5  C   UNK N   1      32.705  15.699   4.952  0.00  0.00     0.046 A 
HETATM    6  C   UNK N   1      33.564  16.379   5.828  0.00  0.00     0.100 A 
HETATM    7 Br   UNK N   1      33.404  14.661   3.507  0.00  0.00    -0.048 Br
HETATM    8  C   UNK N   1      33.025  17.134   6.874  0.00  0.00     0.046 A 
HETATM    9  C   UNK N   1      31.645  17.216   7.028  0.00  0.00     0.037 A 
HETATM   10 Br   UNK N   1      34.142  18.080   8.101  0.00  0.00    -0.048 Br
BRANCH   6  11
HETATM   11  O   UNK N   1      34.897  16.308   5.663  0.00  0.00    -0.358 OA
HETATM   12  H   UNK N   1      35.459  16.882   6.147  0.00  0.00     0.217 HD
ENDBRANCH   6  11
ENDBRANCH   1   3
BRANCH   1  13
HETATM   13  C   UNK N   1      28.526  17.909   6.734  0.00  0.00     0.058 A 
HETATM   14  C   UNK N   1      27.962  18.796   5.827  0.00  0.00     0.014 A 
HETATM   15  C   UNK N   1      27.940  18.800   4.429  0.00  0.00     0.015 A 
HETATM   16  C   UNK N   1      27.375  19.800   6.544  0.00  0.00     0.087 A 
HETATM   17  C   UNK N   1      27.295  19.869   3.781  0.00  0.00     0.001 A 
HETATM   18  C   UNK N   1      26.691  20.901   4.532  0.00  0.00     0.003 A 
HETATM   19  C   UNK N   1      26.729  20.871   5.938  0.00  0.00     0.038 A 
HETATM   20  O   UNK N   1      27.536  19.597   7.824  0.00  0.00    -0.313 OA
HETATM   21  C   UNK N   1      28.219  18.482   7.997  0.00  0.00     0.068 A 
BRANCH  21  22
HETATM   22  C   UNK N   1      28.582  18.032   9.370  0.00  0.00     0.061 C 
HETATM   23  C   UNK N   1      29.840  18.732   9.849  0.00  0.00     0.012 C 
ENDBRANCH  21  22
ENDBRANCH   1  13
TORSDOF 4
ENDMDL
MODEL 3
REMARK VINA RESULT:      -6.9      8.869     11.603
REMARK  4 active torsions:
REMARK  status: ('A' for Active; 'I' for Inactive)
REMARK    1  A    between atoms: C_13  and  C_2 
REMARK    2  A    between atoms: C_16  and  C_9 
REMARK    3  A    between atoms: C_16  and  C_15 
REMARK    4  A    between atoms: O_21  and  C_17 
ROOT
HETATM    1  C   UNK N   1      36.835  12.318  13.752  0.00  0.00     0.195 C 
HETATM    2  O   UNK N   1      37.830  11.608  13.802  0.00  0.00    -0.287 OA
ENDROOT
BRANCH   1   3
HETATM    3  C   UNK N   1      36.443  12.830  12.407  0.00  0.00     0.018 A 
HETATM    4  C   UNK N   1      36.321  11.931  11.332  0.00  0.00     0.037 A 
HETATM    5  C   UNK N   1      35.916  12.377  10.069  0.00  0.00     0.046 A 
HETATM    6  C   UNK N   1      35.634  13.736   9.866  0.00  0.00     0.100 A 
HETATM    7 Br   UNK N   1      35.737  11.118   8.642  0.00  0.00    -0.048 Br
HETATM    8  C   UNK N   1      35.771  14.635  10.928  0.00  0.00     0.046 A 
HETATM    9  C   UNK N   1      36.171  14.173  12.177  0.00  0.00     0.037 A 
HETATM   10 Br   UNK N   1      35.404  16.496  10.714  0.00  0.00    -0.048 Br
BRANCH   6  11
HETATM   11  O   UNK N   1      35.232  14.173   8.659  0.00  0.00    -0.358 OA
HETATM   12  H   UNK N   1      35.111  15.091   8.510  0.00  0.00     0.217 HD
ENDBRANCH   6  11
ENDBRANCH   1   3
BRANCH   1  13
HETATM   13  C   UNK N   1      36.097  12.565  15.052  0.00  0.00     0.058 A 
HETATM   14  C   UNK N   1      36.336  13.679  15.846  0.00  0.00     0.014 A 
HETATM   15  C   UNK N   1      37.212  14.757  15.686  0.00  0.00     0.015 A 
HETATM   16  C   UNK N   1      35.532  13.581  16.946  0.00  0.00     0.087 A 
HETATM   17  C   UNK N   1      37.242  15.738  16.693  0.00  0.00     0.001 A 
HETATM   18  C   UNK N   1      36.406  15.627  17.825  0.00  0.00     0.003 A 
HETATM   19  C   UNK N   1      35.535  14.532  17.959  0.00  0.00     0.038 A 
HETATM   20  O   UNK N   1      34.816  12.490  16.889  0.00  0.00    -0.313 OA
HETATM   21  C   UNK N   1      35.114  11.841  15.779  0.00  0.00     0.068 A 
BRANCH  21  22
HETATM   22  C   UNK N   1      34.469  10.532  15.482  0.00  0.00     0.061 C 
HETATM   23  C   UNK N   1      33.647  10.615  14.210  0.00  0.00     0.012 C 
ENDBRANCH  21  22
ENDBRANCH   1  13
TORSDOF 4
ENDMDL
MODEL 4
REMARK VINA RESULT:      -6.5      1.681      3.153
REMARK  4 active torsions:
REMARK  status: ('A' for Active; 'I' for Inactive)
REMARK    1  A    between atoms: C_13  and  C_2 
REMARK    2  A    between atoms: C_16  and  C_9 
REMARK    3  A    between atoms: C_16  and  C_15 
REMARK    4  A    between atoms: O_21  and  C_17 
ROOT
HETATM    1  C   UNK N   1      29.118  17.321   7.431  0.00  0.00     0.195 C 
HETATM    2  O   UNK N   1      28.862  17.242   8.625  0.00  0.00    -0.287 OA
ENDROOT
BRANCH   1   3
HETATM    3  C   UNK N   1      30.560  17.256   7.050  0.00  0.00     0.018 A 
HETATM    4  C   UNK N   1      30.915  17.170   5.692  0.00  0.00     0.037 A 
HETATM    5  C   UNK N   1      32.259  17.149   5.304  0.00  0.00     0.046 A 
HETATM    6  C   UNK N   1      33.267  17.206   6.277  0.00  0.00     0.100 A 
HETATM    7 Br   UNK N   1      32.698  17.060   3.445  0.00  0.00    -0.048 Br
HETATM    8  C   UNK N   1      32.918  17.274   7.629  0.00  0.00     0.046 A 
HETATM    9  C   UNK N   1      31.576  17.298   7.996  0.00  0.00     0.037 A 
HETATM   10 Br   UNK N   1      34.244  17.352   9.000  0.00  0.00    -0.048 Br
BRANCH   6  11
HETATM   11  O   UNK N   1      34.563  17.199   5.914  0.00  0.00    -0.358 OA
HETATM   12  H   UNK N   1      34.808  16.902   5.059  0.00  0.00     0.217 HD
ENDBRANCH   6  11
ENDBRANCH   1   3
BRANCH   1  13
HETATM   13  C   UNK N   1      27.947  17.439   6.478  0.00  0.00     0.058 A 
HETATM   14  C   UNK N   1      27.446  18.665   6.060  0.00  0.00     0.014 A 
HETATM   15  C   UNK N   1      27.837  19.973   6.358  0.00  0.00     0.015 A 
HETATM   16  C   UNK N   1      26.384  18.416   5.237  0.00  0.00     0.087 A 
HETATM   17  C   UNK N   1      27.104  21.029   5.785  0.00  0.00     0.001 A 
HETATM   18  C   UNK N   1      26.009  20.760   4.936  0.00  0.00     0.003 A 
HETATM   19  C   UNK N   1      25.638  19.434   4.654  0.00  0.00     0.038 A 
HETATM   20  O   UNK N   1      26.193  17.130   5.118  0.00  0.00    -0.313 OA
HETATM   21  C   UNK N   1      27.097  16.496   5.840  0.00  0.00     0.068 A 
BRANCH  21  22
HETATM   22  C   UNK N   1      27.083  15.009   5.919  0.00  0.00     0.061 C 
HETATM   23  C   UNK N   1      28.114  14.411   4.980  0.00  0.00     0.012 C 
ENDBRANCH  21  22
ENDBRANCH   1  13
TORSDOF 4
ENDMDL
MODEL 5
REMARK VINA RESULT:      -6.5      8.072     10.563
REMARK  4 active torsions:
REMARK  status: ('A' for Active; 'I' for Inactive)
REMARK    1  A    between atoms: C_13  and  C_2 
REMARK    2  A    between atoms: C_16  and  C_9 
REMARK    3  A    between atoms: C_16  and  C_15 
REMARK    4  A    between atoms: O_21  and  C_17 
ROOT
HETATM    1  C   UNK N   1      21.549  17.482   5.985  0.00  0.00     0.195 C 
HETATM    2  O   UNK N   1      21.438  18.484   6.678  0.00  0.00    -0.287 OA
ENDROOT
BRANCH   1   3
HETATM    3  C   UNK N   1      21.175  17.618   4.547  0.00  0.00     0.018 A 
HETATM    4  C   UNK N   1      20.787  16.478   3.821  0.00  0.00     0.037 A 
HETATM    5  C   UNK N   1      20.392  16.582   2.482  0.00  0.00     0.046 A 
HETATM    6  C   UNK N   1      20.388  17.835   1.852  0.00  0.00     0.100 A 
HETATM    7 Br   UNK N   1      19.846  15.011   1.540  0.00  0.00    -0.048 Br
HETATM    8  C   UNK N   1      20.789  18.968   2.566  0.00  0.00     0.046 A 
HETATM    9  C   UNK N   1      21.175  18.845   3.896  0.00  0.00     0.037 A 
HETATM   10 Br   UNK N   1      20.807  20.700   1.762  0.00  0.00    -0.048 Br
BRANCH   6  11
HETATM   11  O   UNK N   1      19.998  17.948   0.569  0.00  0.00    -0.358 OA
HETATM   12  H   UNK N   1      20.628  18.151  -0.095  0.00  0.00     0.217 HD
ENDBRANCH   6  11
ENDBRANCH   1   3
BRANCH   1  13
HETATM   13  C   UNK N   1      22.085  16.233   6.655  0.00  0.00     0.058 A 
HETATM   14  C   UNK N   1      21.412  15.593   7.687  0.00  0.00     0.014 A 
HETATM   15  C   UNK N   1      20.198  15.880   8.317  0.00  0.00     0.015 A 
HETATM   16  C   UNK N   1      22.175  14.529   8.078  0.00  0.00     0.087 A 
HETATM   17  C   UNK N   1      19.783  15.041   9.367  0.00  0.00     0.001 A 
HETATM   18  C   UNK N   1      20.580  13.944   9.763  0.00  0.00     0.003 A 
HETATM   19  C   UNK N   1      21.797  13.680   9.111  0.00  0.00     0.038 A 
HETATM   20  O   UNK N   1      23.267  14.468   7.365  0.00  0.00    -0.313 OA
HETATM   21  C   UNK N   1      23.269  15.464   6.499  0.00  0.00     0.068 A 
BRANCH  21  22
HETATM   22  C   UNK N   1      24.427  15.656   5.583  0.00  0.00     0.061 C 
HETATM   23  C   UNK N   1      24.185  14.959   4.258  0.00  0.00     0.012 C 
ENDBRANCH  21  22
ENDBRANCH   1  13
TORSDOF 4
ENDMDL
MODEL 6
REMARK VINA RESULT:      -6.5      1.679      2.552
REMARK  4 active torsions:
REMARK  status: ('A' for Active; 'I' for Inactive)
REMARK    1  A    between atoms: C_13  and  C_2 
REMARK    2  A    between atoms: C_16  and  C_9 
REMARK    3  A    between atoms: C_16  and  C_15 
REMARK    4  A    between atoms: O_21  and  C_17 
ROOT
HETATM    1  C   UNK N   1      29.121  17.305   7.364  0.00  0.00     0.195 C 
HETATM    2  O   UNK N   1      28.872  17.249   8.561  0.00  0.00    -0.287 OA
ENDROOT
BRANCH   1   3
HETATM    3  C   UNK N   1      30.560  17.242   6.975  0.00  0.00     0.018 A 
HETATM    4  C   UNK N   1      31.549  17.245   7.975  0.00  0.00     0.037 A 
HETATM    5  C   UNK N   1      32.905  17.145   7.642  0.00  0.00     0.046 A 
HETATM    6  C   UNK N   1      33.287  17.048   6.296  0.00  0.00     0.100 A 
HETATM    7 Br   UNK N   1      34.214  17.125   9.034  0.00  0.00    -0.048 Br
HETATM    8  C   UNK N   1      32.307  17.062   5.298  0.00  0.00     0.046 A 
HETATM    9  C   UNK N   1      30.965  17.158   5.649  0.00  0.00     0.037 A 
HETATM   10 Br   UNK N   1      32.765  16.935   3.449  0.00  0.00    -0.048 Br
BRANCH   6  11
HETATM   11  O   UNK N   1      34.586  16.939   5.965  0.00  0.00    -0.358 OA
HETATM   12  H   UNK N   1      34.923  16.121   5.654  0.00  0.00     0.217 HD
ENDBRANCH   6  11
ENDBRANCH   1   3
BRANCH   1  13
HETATM   13  C   UNK N   1      27.943  17.397   6.416  0.00  0.00     0.058 A 
HETATM   14  C   UNK N   1      27.426  18.610   5.982  0.00  0.00     0.014 A 
HETATM   15  C   UNK N   1      27.805  19.927   6.258  0.00  0.00     0.015 A 
HETATM   16  C   UNK N   1      26.363  18.337   5.169  0.00  0.00     0.087 A 
HETATM   17  C   UNK N   1      27.057  20.966   5.674  0.00  0.00     0.001 A 
HETATM   18  C   UNK N   1      25.960  20.672   4.835  0.00  0.00     0.003 A 
HETATM   19  C   UNK N   1      25.602  19.338   4.575  0.00  0.00     0.038 A 
HETATM   20  O   UNK N   1      26.186  17.048   5.070  0.00  0.00    -0.313 OA
HETATM   21  C   UNK N   1      27.100  16.434   5.797  0.00  0.00     0.068 A 
BRANCH  21  22
HETATM   22  C   UNK N   1      27.103  14.948   5.898  0.00  0.00     0.061 C 
HETATM   23  C   UNK N   1      28.193  14.353   5.028  0.00  0.00     0.012 C 
ENDBRANCH  21  22
ENDBRANCH   1  13
TORSDOF 4
ENDMDL
MODEL 7
REMARK VINA RESULT:      -6.5     11.611     13.254
REMARK  4 active torsions:
REMARK  status: ('A' for Active; 'I' for Inactive)
REMARK    1  A    between atoms: C_13  and  C_2 
REMARK    2  A    between atoms: C_16  and  C_9 
REMARK    3  A    between atoms: C_16  and  C_15 
REMARK    4  A    between atoms: O_21  and  C_17 
ROOT
HETATM    1  C   UNK N   1      27.826  23.907  -3.707  0.00  0.00     0.195 C 
HETATM    2  O   UNK N   1      27.452  23.569  -2.591  0.00  0.00    -0.287 OA
ENDROOT
BRANCH   1   3
HETATM    3  C   UNK N   1      29.254  23.638  -4.044  0.00  0.00     0.018 A 
HETATM    4  C   UNK N   1      30.123  24.715  -4.293  0.00  0.00     0.037 A 
HETATM    5  C   UNK N   1      31.476  24.494  -4.571  0.00  0.00     0.046 A 
HETATM    6  C   UNK N   1      31.976  23.184  -4.609  0.00  0.00     0.100 A 
HETATM    7 Br   UNK N   1      32.628  25.989  -4.877  0.00  0.00    -0.048 Br
HETATM    8  C   UNK N   1      31.112  22.109  -4.378  0.00  0.00     0.046 A 
HETATM    9  C   UNK N   1      29.770  22.349  -4.100  0.00  0.00     0.037 A 
HETATM   10 Br   UNK N   1      31.732  20.303  -4.418  0.00  0.00    -0.048 Br
BRANCH   6  11
HETATM   11  O   UNK N   1      33.278  22.960  -4.863  0.00  0.00    -0.358 OA
HETATM   12  H   UNK N   1      33.919  23.599  -4.618  0.00  0.00     0.217 HD
ENDBRANCH   6  11
ENDBRANCH   1   3
BRANCH   1  13
HETATM   13  C   UNK N   1      26.792  24.523  -4.626  0.00  0.00     0.058 A 
HETATM   14  C   UNK N   1      26.348  25.830  -4.480  0.00  0.00     0.014 A 
HETATM   15  C   UNK N   1      26.693  26.826  -3.562  0.00  0.00     0.015 A 
HETATM   16  C   UNK N   1      25.406  26.055  -5.444  0.00  0.00     0.087 A 
HETATM   17  C   UNK N   1      26.040  28.068  -3.658  0.00  0.00     0.001 A 
HETATM   18  C   UNK N   1      25.069  28.290  -4.659  0.00  0.00     0.003 A 
HETATM   19  C   UNK N   1      24.742  27.270  -5.569  0.00  0.00     0.038 A 
HETATM   20  O   UNK N   1      25.237  24.985  -6.172  0.00  0.00    -0.313 OA
HETATM   21  C   UNK N   1      26.037  24.035  -5.727  0.00  0.00     0.068 A 
BRANCH  21  22
HETATM   22  C   UNK N   1      26.017  22.684  -6.354  0.00  0.00     0.061 C 
HETATM   23  C   UNK N   1      27.240  22.479  -7.228  0.00  0.00     0.012 C 
ENDBRANCH  21  22
ENDBRANCH   1  13
TORSDOF 4
ENDMDL
MODEL 8
REMARK VINA RESULT:      -6.4     11.541     13.307
REMARK  4 active torsions:
REMARK  status: ('A' for Active; 'I' for Inactive)
REMARK    1  A    between atoms: C_13  and  C_2 
REMARK    2  A    between atoms: C_16  and  C_9 
REMARK    3  A    between atoms: C_16  and  C_15 
REMARK    4  A    between atoms: O_21  and  C_17 
ROOT
HETATM    1  C   UNK N   1      27.843  23.977  -3.588  0.00  0.00     0.195 C 
HETATM    2  O   UNK N   1      27.450  23.566  -2.503  0.00  0.00    -0.287 OA
ENDROOT
BRANCH   1   3
HETATM    3  C   UNK N   1      29.288  23.773  -3.897  0.00  0.00     0.018 A 
HETATM    4  C   UNK N   1      29.812  22.469  -3.935  0.00  0.00     0.037 A 
HETATM    5  C   UNK N   1      31.154  22.246  -4.262  0.00  0.00     0.046 A 
HETATM    6  C   UNK N   1      31.992  23.333  -4.549  0.00  0.00     0.100 A 
HETATM    7 Br   UNK N   1      31.818  20.455  -4.330  0.00  0.00    -0.048 Br
HETATM    8  C   UNK N   1      31.479  24.633  -4.495  0.00  0.00     0.046 A 
HETATM    9  C   UNK N   1      30.142  24.835  -4.172  0.00  0.00     0.037 A 
HETATM   10 Br   UNK N   1      32.571  26.154  -4.873  0.00  0.00    -0.048 Br
BRANCH   6  11
HETATM   11  O   UNK N   1      33.281  23.130  -4.877  0.00  0.00    -0.358 OA
HETATM   12  H   UNK N   1      33.877  22.784  -4.241  0.00  0.00     0.217 HD
ENDBRANCH   6  11
ENDBRANCH   1   3
BRANCH   1  13
HETATM   13  C   UNK N   1      26.814  24.610  -4.502  0.00  0.00     0.058 A 
HETATM   14  C   UNK N   1      26.415  25.934  -4.372  0.00  0.00     0.014 A 
HETATM   15  C   UNK N   1      26.806  26.934  -3.478  0.00  0.00     0.015 A 
HETATM   16  C   UNK N   1      25.465  26.172  -5.325  0.00  0.00     0.087 A 
HETATM   17  C   UNK N   1      26.193  28.195  -3.587  0.00  0.00     0.001 A 
HETATM   18  C   UNK N   1      25.212  28.430  -4.576  0.00  0.00     0.003 A 
HETATM   19  C   UNK N   1      24.838  27.405  -5.462  0.00  0.00     0.038 A 
HETATM   20  O   UNK N   1      25.249  25.094  -6.030  0.00  0.00    -0.313 OA
HETATM   21  C   UNK N   1      26.026  24.127  -5.581  0.00  0.00     0.068 A 
BRANCH  21  22
HETATM   22  C   UNK N   1      25.952  22.767  -6.183  0.00  0.00     0.061 C 
HETATM   23  C   UNK N   1      27.074  22.560  -7.183  0.00  0.00     0.012 C 
ENDBRANCH  21  22
ENDBRANCH   1  13
TORSDOF 4
ENDMDL
MODEL 9
REMARK VINA RESULT:      -6.4      3.098      7.656
REMARK  4 active torsions:
REMARK  status: ('A' for Active; 'I' for Inactive)
REMARK    1  A    between atoms: C_13  and  C_2 
REMARK    2  A    between atoms: C_16  and  C_9 
REMARK    3  A    between atoms: C_16  and  C_15 
REMARK    4  A    between atoms: O_21  and  C_17 
ROOT
HETATM    1  C   UNK N   1      33.669  17.117   6.784  0.00  0.00     0.195 C 
HETATM    2  O   UNK N   1      34.294  18.002   6.214  0.00  0.00    -0.287 OA
ENDROOT
BRANCH   1   3
HETATM    3  C   UNK N   1      32.185  17.268   6.828  0.00  0.00     0.018 A 
HETATM    4  C   UNK N   1      31.433  17.081   5.655  0.00  0.00     0.037 A 
HETATM    5  C   UNK N   1      30.037  17.176   5.677  0.00  0.00     0.046 A 
HETATM    6  C   UNK N   1      29.376  17.467   6.879  0.00  0.00     0.100 A 
HETATM    7 Br   UNK N   1      29.052  16.887   4.064  0.00  0.00    -0.048 Br
HETATM    8  C   UNK N   1      30.121  17.670   8.044  0.00  0.00     0.046 A 
HETATM    9  C   UNK N   1      31.508  17.568   8.004  0.00  0.00     0.037 A 
HETATM   10 Br   UNK N   1      29.279  18.071   9.710  0.00  0.00    -0.048 Br
BRANCH   6  11
HETATM   11  O   UNK N   1      28.034  17.548   6.913  0.00  0.00    -0.358 OA
HETATM   12  H   UNK N   1      27.552  17.682   6.120  0.00  0.00     0.217 HD
ENDBRANCH   6  11
ENDBRANCH   1   3
BRANCH   1  13
HETATM   13  C   UNK N   1      34.467  15.958   7.344  0.00  0.00     0.058 A 
HETATM   14  C   UNK N   1      34.916  15.928   8.658  0.00  0.00     0.014 A 
HETATM   15  C   UNK N   1      34.771  16.841   9.705  0.00  0.00     0.015 A 
HETATM   16  C   UNK N   1      35.619  14.768   8.825  0.00  0.00     0.087 A 
HETATM   17  C   UNK N   1      35.371  16.532  10.940  0.00  0.00     0.001 A 
HETATM   18  C   UNK N   1      36.095  15.330  11.102  0.00  0.00     0.003 A 
HETATM   19  C   UNK N   1      36.225  14.430  10.029  0.00  0.00     0.038 A 
HETATM   20  O   UNK N   1      35.637  14.084   7.713  0.00  0.00    -0.313 OA
HETATM   21  C   UNK N   1      34.966  14.748   6.791  0.00  0.00     0.068 A 
BRANCH  21  22
HETATM   22  C   UNK N   1      34.864  14.210   5.407  0.00  0.00     0.061 C 
HETATM   23  C   UNK N   1      33.437  13.802   5.093  0.00  0.00     0.012 C 
ENDBRANCH  21  22
ENDBRANCH   1  13
TORSDOF 4
ENDMDL
