MODEL 1
REMARK VINA RESULT:      -4.3      0.000      0.000
REMARK  2 active torsions:
REMARK  status: ('A' for Active; 'I' for Inactive)
REMARK    1  A    between atoms: C_3  and  O_4 
REMARK    2  A    between atoms: C_5  and  O_4 
ROOT
HETATM    1  C   UNK N   1      28.136  18.813   8.118  0.00  0.00     0.014 C 
HETATM    2  C   UNK N   1      29.126  18.242   8.506  0.00  0.00    -0.091 C 
HETATM    3  C   UNK N   1      30.317  17.539   8.980  0.00  0.00     0.261 C 
ENDROOT
BRANCH   3   4
HETATM    4  O   UNK N   1      31.474  18.188   8.535  0.00  0.00    -0.372 OA
BRANCH   4   5
HETATM    5  C   UNK N   1      32.178  17.228   7.795  0.00  0.00     0.155 C 
HETATM    6  C   UNK N   1      32.621  16.070   8.719  0.00  0.00     0.304 C 
HETATM    7  N   UNK N   1      34.084  15.876   8.675  0.00  0.00     0.090 N 
HETATM    8  C   UNK N   1      34.748  17.110   9.126  0.00  0.00     0.273 C 
HETATM    9  C   UNK N   1      34.496  15.588   7.287  0.00  0.00     0.273 C 
HETATM   10  C   UNK N   1      34.380  18.312   8.229  0.00  0.00     0.037 C 
HETATM   11  C   UNK N   1      33.415  17.852   7.127  0.00  0.00     0.020 C 
HETATM   12  C   UNK N   1      34.116  16.744   6.335  0.00  0.00     0.037 C 
ENDBRANCH   4   5
ENDBRANCH   3   4
TORSDOF 2
ENDMDL
MODEL 2
REMARK VINA RESULT:      -4.2     16.606     17.683
REMARK  2 active torsions:
REMARK  status: ('A' for Active; 'I' for Inactive)
REMARK    1  A    between atoms: C_3  and  O_4 
REMARK    2  A    between atoms: C_5  and  O_4 
ROOT
HETATM    1  C   UNK N   1      25.913  28.177  -3.599  0.00  0.00     0.014 C 
HETATM    2  C   UNK N   1      25.395  27.656  -4.556  0.00  0.00    -0.091 C 
HETATM    3  C   UNK N   1      24.766  27.039  -5.723  0.00  0.00     0.261 C 
ENDROOT
BRANCH   3   4
HETATM    4  O   UNK N   1      24.843  25.644  -5.635  0.00  0.00    -0.372 OA
BRANCH   4   5
HETATM    5  C   UNK N   1      26.159  25.322  -5.994  0.00  0.00     0.155 C 
HETATM    6  C   UNK N   1      26.336  25.454  -7.524  0.00  0.00     0.304 C 
HETATM    7  N   UNK N   1      26.813  24.190  -8.122  0.00  0.00     0.090 N 
HETATM    8  C   UNK N   1      25.825  23.130  -7.860  0.00  0.00     0.273 C 
HETATM    9  C   UNK N   1      28.098  23.814  -7.505  0.00  0.00     0.273 C 
HETATM   10  C   UNK N   1      25.616  22.914  -6.344  0.00  0.00     0.037 C 
HETATM   11  C   UNK N   1      26.507  23.888  -5.561  0.00  0.00     0.020 C 
HETATM   12  C   UNK N   1      27.957  23.622  -5.978  0.00  0.00     0.037 C 
ENDBRANCH   4   5
ENDBRANCH   3   4
TORSDOF 2
ENDMDL
MODEL 3
REMARK VINA RESULT:      -4.1     10.002     11.467
REMARK  2 active torsions:
REMARK  status: ('A' for Active; 'I' for Inactive)
REMARK    1  A    between atoms: C_3  and  O_4 
REMARK    2  A    between atoms: C_5  and  O_4 
ROOT
HETATM    1  C   UNK N   1      23.162  11.872  12.829  0.00  0.00     0.014 C 
HETATM    2  C   UNK N   1      23.617  11.976  11.716  0.00  0.00    -0.091 C 
HETATM    3  C   UNK N   1      24.170  12.089  10.367  0.00  0.00     0.261 C 
ENDROOT
BRANCH   3   4
HETATM    4  O   UNK N   1      23.808  13.313   9.794  0.00  0.00    -0.372 OA
BRANCH   4   5
HETATM    5  C   UNK N   1      23.276  12.992   8.538  0.00  0.00     0.155 C 
HETATM    6  C   UNK N   1      23.406  14.203   7.585  0.00  0.00     0.304 C 
HETATM    7  N   UNK N   1      22.091  14.606   7.044  0.00  0.00     0.090 N 
HETATM    8  C   UNK N   1      21.208  14.986   8.159  0.00  0.00     0.273 C 
HETATM    9  C   UNK N   1      21.492  13.468   6.322  0.00  0.00     0.273 C 
HETATM   10  C   UNK N   1      21.001  13.813   9.143  0.00  0.00     0.037 C 
HETATM   11  C   UNK N   1      21.796  12.592   8.658  0.00  0.00     0.020 C 
HETATM   12  C   UNK N   1      21.298  12.249   7.250  0.00  0.00     0.037 C 
ENDBRANCH   4   5
ENDBRANCH   3   4
TORSDOF 2
ENDMDL
MODEL 4
REMARK VINA RESULT:      -4.1      2.486      3.031
REMARK  2 active torsions:
REMARK  status: ('A' for Active; 'I' for Inactive)
REMARK    1  A    between atoms: C_3  and  O_4 
REMARK    2  A    between atoms: C_5  and  O_4 
ROOT
HETATM    1  C   UNK N   1      30.069  18.610   9.218  0.00  0.00     0.014 C 
HETATM    2  C   UNK N   1      30.027  17.939   8.215  0.00  0.00    -0.091 C 
HETATM    3  C   UNK N   1      29.966  17.136   6.995  0.00  0.00     0.261 C 
ENDROOT
BRANCH   3   4
HETATM    4  O   UNK N   1      31.087  16.303   6.904  0.00  0.00    -0.372 OA
BRANCH   4   5
HETATM    5  C   UNK N   1      31.381  16.224   5.537  0.00  0.00     0.155 C 
HETATM    6  C   UNK N   1      32.150  14.917   5.237  0.00  0.00     0.304 C 
HETATM    7  N   UNK N   1      33.448  15.193   4.587  0.00  0.00     0.090 N 
HETATM    8  C   UNK N   1      34.271  16.020   5.485  0.00  0.00     0.273 C 
HETATM    9  C   UNK N   1      33.216  15.930   3.331  0.00  0.00     0.273 C 
HETATM   10  C   UNK N   1      33.581  17.365   5.807  0.00  0.00     0.037 C 
HETATM   11  C   UNK N   1      32.225  17.429   5.089  0.00  0.00     0.020 C 
HETATM   12  C   UNK N   1      32.491  17.270   3.588  0.00  0.00     0.037 C 
ENDBRANCH   4   5
ENDBRANCH   3   4
TORSDOF 2
ENDMDL
MODEL 5
REMARK VINA RESULT:      -4.1     16.627     18.083
REMARK  2 active torsions:
REMARK  status: ('A' for Active; 'I' for Inactive)
REMARK    1  A    between atoms: C_3  and  O_4 
REMARK    2  A    between atoms: C_5  and  O_4 
ROOT
HETATM    1  C   UNK N   1      25.743  25.592  -9.563  0.00  0.00     0.014 C 
HETATM    2  C   UNK N   1      25.749  25.047  -8.486  0.00  0.00    -0.091 C 
HETATM    3  C   UNK N   1      25.765  24.374  -7.188  0.00  0.00     0.261 C 
ENDROOT
BRANCH   3   4
HETATM    4  O   UNK N   1      25.409  25.269  -6.173  0.00  0.00    -0.372 OA
BRANCH   4   5
HETATM    5  C   UNK N   1      26.497  26.143  -6.050  0.00  0.00     0.155 C 
HETATM    6  C   UNK N   1      27.366  25.737  -4.837  0.00  0.00     0.304 C 
HETATM    7  N   UNK N   1      27.509  26.852  -3.879  0.00  0.00     0.090 N 
HETATM    8  C   UNK N   1      26.176  27.239  -3.386  0.00  0.00     0.273 C 
HETATM    9  C   UNK N   1      28.122  28.006  -4.563  0.00  0.00     0.273 C 
HETATM   10  C   UNK N   1      25.255  27.691  -4.541  0.00  0.00     0.037 C 
HETATM   11  C   UNK N   1      26.016  27.593  -5.871  0.00  0.00     0.020 C 
HETATM   12  C   UNK N   1      27.261  28.479  -5.755  0.00  0.00     0.037 C 
ENDBRANCH   4   5
ENDBRANCH   3   4
TORSDOF 2
ENDMDL
MODEL 6
REMARK VINA RESULT:      -4.0     15.535     17.125
REMARK  2 active torsions:
REMARK  status: ('A' for Active; 'I' for Inactive)
REMARK    1  A    between atoms: C_3  and  O_4 
REMARK    2  A    between atoms: C_5  and  O_4 
ROOT
HETATM    1  C   UNK N   1      30.424  24.043  -3.516  0.00  0.00     0.014 C 
HETATM    2  C   UNK N   1      29.225  24.167  -3.584  0.00  0.00    -0.091 C 
HETATM    3  C   UNK N   1      27.772  24.315  -3.651  0.00  0.00     0.261 C 
ENDROOT
BRANCH   3   4
HETATM    4  O   UNK N   1      27.402  24.942  -4.845  0.00  0.00    -0.372 OA
BRANCH   4   5
HETATM    5  C   UNK N   1      27.452  26.316  -4.574  0.00  0.00     0.155 C 
HETATM    6  C   UNK N   1      26.326  26.701  -3.587  0.00  0.00     0.304 C 
HETATM    7  N   UNK N   1      25.455  27.753  -4.149  0.00  0.00     0.090 N 
HETATM    8  C   UNK N   1      24.835  27.255  -5.388  0.00  0.00     0.273 C 
HETATM    9  C   UNK N   1      26.268  28.944  -4.462  0.00  0.00     0.273 C 
HETATM   10  C   UNK N   1      25.900  26.879  -6.442  0.00  0.00     0.037 C 
HETATM   11  C   UNK N   1      27.301  27.134  -5.868  0.00  0.00     0.020 C 
HETATM   12  C   UNK N   1      27.378  28.616  -5.485  0.00  0.00     0.037 C 
ENDBRANCH   4   5
ENDBRANCH   3   4
TORSDOF 2
ENDMDL
MODEL 7
REMARK VINA RESULT:      -4.0      1.980      3.891
REMARK  2 active torsions:
REMARK  status: ('A' for Active; 'I' for Inactive)
REMARK    1  A    between atoms: C_3  and  O_4 
REMARK    2  A    between atoms: C_5  and  O_4 
ROOT
HETATM    1  C   UNK N   1      33.337  15.528   2.717  0.00  0.00     0.014 C 
HETATM    2  C   UNK N   1      33.063  16.471   3.419  0.00  0.00    -0.091 C 
HETATM    3  C   UNK N   1      32.733  17.622   4.257  0.00  0.00     0.261 C 
ENDROOT
BRANCH   3   4
HETATM    4  O   UNK N   1      32.228  17.197   5.490  0.00  0.00    -0.372 OA
BRANCH   4   5
HETATM    5  C   UNK N   1      33.344  17.085   6.330  0.00  0.00     0.155 C 
HETATM    6  C   UNK N   1      33.489  15.627   6.825  0.00  0.00     0.304 C 
HETATM    7  N   UNK N   1      33.490  15.556   8.300  0.00  0.00     0.090 N 
HETATM    8  C   UNK N   1      32.218  16.095   8.810  0.00  0.00     0.273 C 
HETATM    9  C   UNK N   1      34.602  16.371   8.826  0.00  0.00     0.273 C 
HETATM   10  C   UNK N   1      32.014  17.566   8.384  0.00  0.00     0.037 C 
HETATM   11  C   UNK N   1      33.212  18.025   7.541  0.00  0.00     0.020 C 
HETATM   12  C   UNK N   1      34.471  17.849   8.397  0.00  0.00     0.037 C 
ENDBRANCH   4   5
ENDBRANCH   3   4
TORSDOF 2
ENDMDL
MODEL 8
REMARK VINA RESULT:      -4.0     14.756     16.292
REMARK  2 active torsions:
REMARK  status: ('A' for Active; 'I' for Inactive)
REMARK    1  A    between atoms: C_3  and  O_4 
REMARK    2  A    between atoms: C_5  and  O_4 
ROOT
HETATM    1  C   UNK N   1      29.902  23.039  -2.163  0.00  0.00     0.014 C 
HETATM    2  C   UNK N   1      29.009  23.443  -2.867  0.00  0.00    -0.091 C 
HETATM    3  C   UNK N   1      27.930  23.923  -3.730  0.00  0.00     0.261 C 
ENDROOT
BRANCH   3   4
HETATM    4  O   UNK N   1      27.059  24.745  -3.007  0.00  0.00    -0.372 OA
BRANCH   4   5
HETATM    5  C   UNK N   1      26.340  25.463  -3.972  0.00  0.00     0.155 C 
HETATM    6  C   UNK N   1      27.070  25.395  -5.333  0.00  0.00     0.304 C 
HETATM    7  N   UNK N   1      27.374  26.746  -5.849  0.00  0.00     0.090 N 
HETATM    8  C   UNK N   1      28.245  27.444  -4.888  0.00  0.00     0.273 C 
HETATM    9  C   UNK N   1      26.117  27.504  -5.997  0.00  0.00     0.273 C 
HETATM   10  C   UNK N   1      27.569  27.581  -3.506  0.00  0.00     0.037 C 
HETATM   11  C   UNK N   1      26.178  26.933  -3.550  0.00  0.00     0.020 C 
HETATM   12  C   UNK N   1      25.376  27.639  -4.648  0.00  0.00     0.037 C 
ENDBRANCH   4   5
ENDBRANCH   3   4
TORSDOF 2
ENDMDL
MODEL 9
REMARK VINA RESULT:      -4.0     14.108     15.556
REMARK  2 active torsions:
REMARK  status: ('A' for Active; 'I' for Inactive)
REMARK    1  A    between atoms: C_3  and  O_4 
REMARK    2  A    between atoms: C_5  and  O_4 
ROOT
HETATM    1  C   UNK N   1      30.746  21.300  -3.670  0.00  0.00     0.014 C 
HETATM    2  C   UNK N   1      30.050  22.139  -3.152  0.00  0.00    -0.091 C 
HETATM    3  C   UNK N   1      29.206  23.148  -2.512  0.00  0.00     0.261 C 
ENDROOT
BRANCH   3   4
HETATM    4  O   UNK N   1      29.175  24.315  -3.283  0.00  0.00    -0.372 OA
BRANCH   4   5
HETATM    5  C   UNK N   1      28.270  24.050  -4.320  0.00  0.00     0.155 C 
HETATM    6  C   UNK N   1      28.589  24.945  -5.540  0.00  0.00     0.304 C 
HETATM    7  N   UNK N   1      27.419  25.758  -5.932  0.00  0.00     0.090 N 
HETATM    8  C   UNK N   1      27.037  26.626  -4.806  0.00  0.00     0.273 C 
HETATM    9  C   UNK N   1      26.291  24.863  -6.254  0.00  0.00     0.273 C 
HETATM   10  C   UNK N   1      26.670  25.801  -3.553  0.00  0.00     0.037 C 
HETATM   11  C   UNK N   1      26.824  24.305  -3.862  0.00  0.00     0.020 C 
HETATM   12  C   UNK N   1      25.905  23.983  -5.045  0.00  0.00     0.037 C 
ENDBRANCH   4   5
ENDBRANCH   3   4
TORSDOF 2
ENDMDL
