REMARK  3 active torsions:
REMARK  status: ('A' for Active; 'I' for Inactive)
REMARK    1  A    between atoms: C_3  and  C_8 
REMARK    2  A    between atoms: C_5  and  C_19 
REMARK    3  A    between atoms: C_11  and  N_17 
ROOT
HETATM    1  C   UNK N   1       5.252  -0.302   0.000  0.00  0.00     0.210 A 
HETATM    2  O   UNK N   1       4.840   0.412   0.000  0.00  0.00    -0.353 OA
HETATM    3  C   UNK N   1       4.014   0.412   0.000  0.00  0.00     0.102 A 
HETATM    4  C   UNK N   1       3.602   1.127   0.000  0.00  0.00     0.047 A 
HETATM    5  C   UNK N   1       2.777   1.127   0.000  0.00  0.00    -0.045 A 
HETATM    6  C   UNK N   1       2.365   0.412   0.000  0.00  0.00    -0.026 A 
HETATM    7  C   UNK N   1       2.777  -0.302   0.000  0.00  0.00     0.049 A 
HETATM    8  C   UNK N   1       3.602  -0.302   0.000  0.00  0.00     0.102 A 
HETATM    9  O   UNK N   1       4.014  -1.016   0.000  0.00  0.00    -0.353 OA
HETATM   10  C   UNK N   1       4.840  -1.016   0.000  0.00  0.00     0.210 A 
HETATM   11  C   UNK N   1       1.540   0.412   0.000  0.00  0.00     0.120 A 
HETATM   12  C   UNK N   1       1.127  -0.302   0.000  0.00  0.00     0.108 A 
HETATM   13  C   UNK N   1       0.302  -0.302   0.000  0.00  0.00     0.135 A 
HETATM   14  O   UNK N   1      -0.111  -1.016   0.000  0.00  0.00    -0.297 OA
HETATM   15  C   UNK N   1      -0.111   0.412   0.000  0.00  0.00     0.073 A 
HETATM   16  C   UNK N   1       0.302   1.127   0.000  0.00  0.00     0.129 A 
HETATM   17  N   UNK N   1       1.127   1.127   0.000  0.00  0.00    -0.403 N 
HETATM   18  C   UNK N   1       1.540   1.841   0.000  0.00  0.00     0.122 A 
HETATM   19  C   UNK N   1       2.365   1.841   0.000  0.00  0.00     0.058 A 
HETATM   20  C   UNK N   1      -0.935   0.412   0.000  0.00  0.00     0.017 A 
HETATM   21  C   UNK N   1      -1.348   1.127   0.000  0.00  0.00    -0.022 A 
HETATM   22  C   UNK N   1      -2.173   1.127   0.000  0.00  0.00     0.009 A 
HETATM   23  C   UNK N   1      -0.935   1.841   0.000  0.00  0.00     0.009 A 
ENDROOT
TORSDOF 3
