MODEL 1
REMARK VINA RESULT:      -8.1      0.000      0.000
REMARK  11 active torsions:
REMARK  status: ('A' for Active; 'I' for Inactive)
REMARK    1  A    between atoms: O_3  and  C_32 
REMARK    2  A    between atoms: O_5  and  C_33 
REMARK    3  A    between atoms: N_9  and  C_17 
REMARK    4  A    between atoms: N_9  and  C_20 
REMARK    5  A    between atoms: C_23  and  N_13 
REMARK       I    between atoms: N_13  and  C_31 
REMARK       I    between atoms: N_14  and  C_22 
REMARK    6  A    between atoms: C_15  and  C_17 
REMARK    7  A    between atoms: C_23  and  C_24 
REMARK    8  A    between atoms: C_23  and  C_32 
REMARK    9  A    between atoms: C_24  and  C_30 
REMARK   10  A    between atoms: C_27  and  C_31 
REMARK   11  A    between atoms: C_30  and  C_33 
ROOT
HETATM    1  C   UNK N   1      26.909  19.117   3.676  0.00  0.00     0.028 A 
HETATM    2  C   UNK N   1      26.711  20.396   3.137  0.00  0.00     0.030 A 
HETATM    3  C   UNK N   1      25.818  18.274   3.887  0.00  0.00     0.030 A 
HETATM    4  C   UNK N   1      24.322  20.013   3.112  0.00  0.00     0.032 A 
HETATM    5  C   UNK N   1      25.421  20.848   2.873  0.00  0.00     0.019 A 
HETATM    6  C   UNK N   1      24.528  18.716   3.601  0.00  0.00     0.019 A 
ENDROOT
BRANCH   1   7
HETATM    7  N   UNK N   1      28.203  18.670   4.021  0.00  0.00    -0.388 N 
HETATM    8  H   UNK N   1      28.875  18.557   3.309  0.00  0.00     0.159 HD
BRANCH   7   9
HETATM    9  C   UNK N   1      28.571  18.374   5.383  0.00  0.00     0.146 C 
BRANCH   9  10
HETATM   10  C   UNK N   1      28.896  16.884   5.493  0.00  0.00     0.117 C 
HETATM   11  N   UNK N   1      29.316  16.587   6.849  0.00  0.00    -0.375 N 
HETATM   12  C   UNK N   1      30.600  16.993   7.280  0.00  0.00     0.142 A 
HETATM   13  H   UNK N   1      28.713  16.110   7.462  0.00  0.00     0.160 HD
HETATM   14  C   UNK N   1      31.585  17.252   6.327  0.00  0.00     0.149 A 
HETATM   15  C   UNK N   1      30.904  17.159   8.630  0.00  0.00     0.289 A 
HETATM   16  N   UNK N   1      31.292  17.077   4.949  0.00  0.00    -0.372 N 
HETATM   17  N   UNK N   1      32.819  17.658   6.722  0.00  0.00    -0.175 N 
HETATM   18  C   UNK N   1      30.019  16.525   4.513  0.00  0.00     0.148 C 
HETATM   19  H   UNK N   1      31.963  17.332   4.275  0.00  0.00     0.161 HD
HETATM   20  C   UNK N   1      33.109  17.817   8.042  0.00  0.00     0.680 A 
HETATM   21  H   UNK N   1      33.511  17.840   6.046  0.00  0.00     0.186 HD
HETATM   22  N   UNK N   1      32.163  17.571   8.988  0.00  0.00    -0.154 N 
HETATM   23  N   UNK N   1      34.397  18.233   8.430  0.00  0.00    -0.234 N 
ATOM     24  HN  UNK N   1      32.391  17.694   9.975  1.00  0.00     0.187 HD
HETATM   25  H   UNK N   1      34.636  18.430   9.365  0.00  0.00     0.174 HD
HETATM   26  H   UNK N   1      35.088  18.332   7.737  0.00  0.00     0.174 HD
HETATM   27  O   UNK N   1      30.064  16.958   9.488  0.00  0.00    -0.265 OA
ENDBRANCH   9  10
ENDBRANCH   7   9
ENDBRANCH   1   7
BRANCH   4  28
HETATM   28  C   UNK N   1      22.960  20.558   3.058  0.00  0.00     0.252 C 
HETATM   29  O   UNK N   1      22.798  21.760   2.918  0.00  0.00    -0.268 OA
HETATM   30  N   UNK N   1      21.913  19.698   2.974  0.00  0.00    -0.343 N 
HETATM   31  H   UNK N   1      22.055  18.771   3.272  0.00  0.00     0.163 HD
BRANCH  30  32
HETATM   32  C   UNK N   1      20.600  20.053   2.473  0.00  0.00     0.183 C 
BRANCH  32  33
HETATM   33  C   UNK N   1      19.530  19.010   2.770  0.00  0.00     0.046 C 
BRANCH  33  34
HETATM   34  C   UNK N   1      20.218  17.825   3.433  0.00  0.00     0.112 C 
BRANCH  34  35
HETATM   35  C   UNK N   1      20.107  16.601   2.590  0.00  0.00     0.139 C 
HETATM   36  O   UNK N   1      20.712  16.535   1.533  0.00  0.00    -0.650 OA
BRANCH  35  37
HETATM   37  O   UNK N   1      19.362  15.561   3.004  0.00  0.00    -0.776 OA
HETATM   38  H   UNK N   1      18.491  15.286   2.797  0.00  0.00     0.167 HD
ENDBRANCH  35  37
ENDBRANCH  34  35
ENDBRANCH  33  34
ENDBRANCH  32  33
BRANCH  32  39
HETATM   39  C   UNK N   1      20.698  20.432   1.025  0.00  0.00     0.163 C 
HETATM   40  O   UNK N   1      20.731  19.556   0.174  0.00  0.00    -0.648 OA
BRANCH  39  41
HETATM   41  O   UNK N   1      20.777  21.723   0.651  0.00  0.00    -0.775 OA
HETATM   42  H   UNK N   1      20.776  22.513   1.155  0.00  0.00     0.167 HD
ENDBRANCH  39  41
ENDBRANCH  32  39
ENDBRANCH  30  32
ENDBRANCH   4  28
TORSDOF 11
ENDMDL
MODEL 2
REMARK VINA RESULT:      -7.8      1.427      1.771
REMARK  11 active torsions:
REMARK  status: ('A' for Active; 'I' for Inactive)
REMARK    1  A    between atoms: O_3  and  C_32 
REMARK    2  A    between atoms: O_5  and  C_33 
REMARK    3  A    between atoms: N_9  and  C_17 
REMARK    4  A    between atoms: N_9  and  C_20 
REMARK    5  A    between atoms: C_23  and  N_13 
REMARK       I    between atoms: N_13  and  C_31 
REMARK       I    between atoms: N_14  and  C_22 
REMARK    6  A    between atoms: C_15  and  C_17 
REMARK    7  A    between atoms: C_23  and  C_24 
REMARK    8  A    between atoms: C_23  and  C_32 
REMARK    9  A    between atoms: C_24  and  C_30 
REMARK   10  A    between atoms: C_27  and  C_31 
REMARK   11  A    between atoms: C_30  and  C_33 
ROOT
HETATM    1  C   UNK N   1      27.097  18.046   3.846  0.00  0.00     0.028 A 
HETATM    2  C   UNK N   1      26.407  19.263   3.751  0.00  0.00     0.030 A 
HETATM    3  C   UNK N   1      26.387  16.851   3.964  0.00  0.00     0.030 A 
HETATM    4  C   UNK N   1      24.305  18.087   3.987  0.00  0.00     0.032 A 
HETATM    5  C   UNK N   1      25.018  19.284   3.839  0.00  0.00     0.019 A 
HETATM    6  C   UNK N   1      24.995  16.869   4.029  0.00  0.00     0.019 A 
ENDROOT
BRANCH   1   7
HETATM    7  N   UNK N   1      28.508  18.012   3.835  0.00  0.00    -0.388 N 
HETATM    8  H   UNK N   1      28.981  18.066   2.972  0.00  0.00     0.159 HD
BRANCH   7   9
HETATM    9  C   UNK N   1      29.279  17.899   5.048  0.00  0.00     0.146 C 
BRANCH   9  10
HETATM   10  C   UNK N   1      29.845  16.482   5.143  0.00  0.00     0.117 C 
HETATM   11  N   UNK N   1      30.222  16.211   6.517  0.00  0.00    -0.375 N 
HETATM   12  C   UNK N   1      31.389  16.811   7.045  0.00  0.00     0.142 A 
HETATM   13  H   UNK N   1      29.671  15.616   7.075  0.00  0.00     0.160 HD
HETATM   14  C   UNK N   1      32.374  17.266   6.168  0.00  0.00     0.149 A 
HETATM   15  C   UNK N   1      31.574  16.976   8.417  0.00  0.00     0.289 A 
HETATM   16  N   UNK N   1      32.202  17.094   4.769  0.00  0.00    -0.372 N 
HETATM   17  N   UNK N   1      33.493  17.859   6.657  0.00  0.00    -0.175 N 
HETATM   18  C   UNK N   1      31.072  16.353   4.233  0.00  0.00     0.148 C 
HETATM   19  H   UNK N   1      32.862  17.483   4.150  0.00  0.00     0.161 HD
HETATM   20  C   UNK N   1      33.668  18.016   7.997  0.00  0.00     0.680 A 
HETATM   21  H   UNK N   1      34.185  18.179   6.035  0.00  0.00     0.186 HD
HETATM   22  N   UNK N   1      32.719  17.580   8.870  0.00  0.00    -0.154 N 
HETATM   23  N   UNK N   1      34.838  18.629   8.484  0.00  0.00    -0.234 N 
ATOM     24  HN  UNK N   1      32.860  17.704   9.873  1.00  0.00     0.187 HD
HETATM   25  H   UNK N   1      34.981  18.829   9.437  0.00  0.00     0.174 HD
HETATM   26  H   UNK N   1      35.546  18.868   7.842  0.00  0.00     0.174 HD
HETATM   27  O   UNK N   1      30.727  16.606   9.209  0.00  0.00    -0.265 OA
ENDBRANCH   9  10
ENDBRANCH   7   9
ENDBRANCH   1   7
BRANCH   4  28
HETATM   28  C   UNK N   1      22.875  18.120   4.312  0.00  0.00     0.252 C 
HETATM   29  O   UNK N   1      22.524  18.292   5.469  0.00  0.00    -0.268 OA
HETATM   30  N   UNK N   1      21.972  18.150   3.297  0.00  0.00    -0.343 N 
HETATM   31  H   UNK N   1      22.263  17.827   2.415  0.00  0.00     0.163 HD
BRANCH  30  32
HETATM   32  C   UNK N   1      20.609  18.625   3.427  0.00  0.00     0.183 C 
BRANCH  32  33
HETATM   33  C   UNK N   1      19.565  17.627   2.945  0.00  0.00     0.046 C 
BRANCH  33  34
HETATM   34  C   UNK N   1      20.269  16.634   2.031  0.00  0.00     0.112 C 
BRANCH  34  35
HETATM   35  C   UNK N   1      19.807  16.781   0.623  0.00  0.00     0.139 C 
HETATM   36  O   UNK N   1      20.430  17.491  -0.150  0.00  0.00    -0.650 OA
BRANCH  35  37
HETATM   37  O   UNK N   1      18.719  16.115   0.196  0.00  0.00    -0.776 OA
HETATM   38  H   UNK N   1      17.962  15.789   0.641  0.00  0.00     0.167 HD
ENDBRANCH  35  37
ENDBRANCH  34  35
ENDBRANCH  33  34
ENDBRANCH  32  33
BRANCH  32  39
HETATM   39  C   UNK N   1      20.488  19.985   2.804  0.00  0.00     0.163 C 
HETATM   40  O   UNK N   1      20.632  20.979   3.499  0.00  0.00    -0.648 OA
BRANCH  39  41
HETATM   41  O   UNK N   1      20.195  20.125   1.498  0.00  0.00    -0.775 OA
HETATM   42  H   UNK N   1      19.379  20.266   1.060  0.00  0.00     0.167 HD
ENDBRANCH  39  41
ENDBRANCH  32  39
ENDBRANCH  30  32
ENDBRANCH   4  28
TORSDOF 11
ENDMDL
MODEL 3
REMARK VINA RESULT:      -7.8      8.488     13.941
REMARK  11 active torsions:
REMARK  status: ('A' for Active; 'I' for Inactive)
REMARK    1  A    between atoms: O_3  and  C_32 
REMARK    2  A    between atoms: O_5  and  C_33 
REMARK    3  A    between atoms: N_9  and  C_17 
REMARK    4  A    between atoms: N_9  and  C_20 
REMARK    5  A    between atoms: C_23  and  N_13 
REMARK       I    between atoms: N_13  and  C_31 
REMARK       I    between atoms: N_14  and  C_22 
REMARK    6  A    between atoms: C_15  and  C_17 
REMARK    7  A    between atoms: C_23  and  C_24 
REMARK    8  A    between atoms: C_23  and  C_32 
REMARK    9  A    between atoms: C_24  and  C_30 
REMARK   10  A    between atoms: C_27  and  C_31 
REMARK   11  A    between atoms: C_30  and  C_33 
ROOT
HETATM    1  C   UNK N   1      36.590  13.602  13.243  0.00  0.00     0.028 A 
HETATM    2  C   UNK N   1      36.381  12.905  12.045  0.00  0.00     0.030 A 
HETATM    3  C   UNK N   1      36.208  14.940  13.346  0.00  0.00     0.030 A 
HETATM    4  C   UNK N   1      35.494  14.916  11.032  0.00  0.00     0.032 A 
HETATM    5  C   UNK N   1      35.852  13.564  10.939  0.00  0.00     0.019 A 
HETATM    6  C   UNK N   1      35.657  15.595  12.247  0.00  0.00     0.019 A 
ENDROOT
BRANCH   1   7
HETATM    7  N   UNK N   1      37.196  12.971  14.351  0.00  0.00    -0.388 N 
HETATM    8  H   UNK N   1      38.032  13.344  14.715  0.00  0.00     0.159 HD
BRANCH   7   9
HETATM    9  C   UNK N   1      36.628  11.797  14.966  0.00  0.00     0.146 C 
BRANCH   9  10
HETATM   10  C   UNK N   1      35.127  12.017  15.156  0.00  0.00     0.117 C 
HETATM   11  N   UNK N   1      34.912  12.868  16.310  0.00  0.00    -0.375 N 
HETATM   12  C   UNK N   1      35.090  12.333  17.607  0.00  0.00     0.142 A 
HETATM   13  H   UNK N   1      34.645  13.807  16.191  0.00  0.00     0.160 HD
HETATM   14  C   UNK N   1      35.025  10.951  17.785  0.00  0.00     0.149 A 
HETATM   15  C   UNK N   1      35.348  13.146  18.709  0.00  0.00     0.289 A 
HETATM   16  N   UNK N   1      34.753  10.111  16.673  0.00  0.00    -0.372 N 
HETATM   17  N   UNK N   1      35.209  10.418  19.020  0.00  0.00    -0.175 N 
HETATM   18  C   UNK N   1      34.430  10.668  15.369  0.00  0.00     0.148 C 
HETATM   19  H   UNK N   1      34.781   9.133  16.786  0.00  0.00     0.161 HD
HETATM   20  C   UNK N   1      35.459  11.218  20.092  0.00  0.00     0.680 A 
HETATM   21  H   UNK N   1      35.163   9.443  19.142  0.00  0.00     0.186 HD
HETATM   22  N   UNK N   1      35.528  12.569  19.940  0.00  0.00    -0.154 N 
HETATM   23  N   UNK N   1      35.642  10.646  21.365  0.00  0.00    -0.234 N 
ATOM     24  HN  UNK N   1      35.717  13.159  20.751  1.00  0.00     0.187 HD
HETATM   25  H   UNK N   1      35.894  11.174  22.157  0.00  0.00     0.174 HD
HETATM   26  H   UNK N   1      35.513   9.675  21.468  0.00  0.00     0.174 HD
HETATM   27  O   UNK N   1      35.428  14.354  18.586  0.00  0.00    -0.265 OA
ENDBRANCH   9  10
ENDBRANCH   7   9
ENDBRANCH   1   7
BRANCH   4  28
HETATM   28  C   UNK N   1      35.159  15.672   9.820  0.00  0.00     0.252 C 
HETATM   29  O   UNK N   1      35.410  15.195   8.724  0.00  0.00    -0.268 OA
HETATM   30  N   UNK N   1      34.406  16.796   9.936  0.00  0.00    -0.343 N 
HETATM   31  H   UNK N   1      34.382  17.245  10.811  0.00  0.00     0.163 HD
BRANCH  30  32
HETATM   32  C   UNK N   1      33.633  17.379   8.857  0.00  0.00     0.183 C 
BRANCH  32  33
HETATM   33  C   UNK N   1      32.827  16.360   8.062  0.00  0.00     0.046 C 
BRANCH  33  34
HETATM   34  C   UNK N   1      31.483  16.198   8.758  0.00  0.00     0.112 C 
BRANCH  34  35
HETATM   35  C   UNK N   1      30.645  17.419   8.596  0.00  0.00     0.139 C 
HETATM   36  O   UNK N   1      30.154  17.678   7.510  0.00  0.00    -0.650 OA
BRANCH  35  37
HETATM   37  O   UNK N   1      30.409  18.222   9.649  0.00  0.00    -0.776 OA
HETATM   38  H   UNK N   1      30.439  19.152   9.754  0.00  0.00     0.167 HD
ENDBRANCH  35  37
ENDBRANCH  34  35
ENDBRANCH  33  34
ENDBRANCH  32  33
BRANCH  32  39
HETATM   39  C   UNK N   1      34.520  18.248   8.014  0.00  0.00     0.163 C 
HETATM   40  O   UNK N   1      34.554  18.079   6.805  0.00  0.00    -0.648 OA
BRANCH  39  41
HETATM   41  O   UNK N   1      35.298  19.193   8.574  0.00  0.00    -0.775 OA
HETATM   42  H   UNK N   1      35.377  20.110   8.399  0.00  0.00     0.167 HD
ENDBRANCH  39  41
ENDBRANCH  32  39
ENDBRANCH  30  32
ENDBRANCH   4  28
TORSDOF 11
ENDMDL
MODEL 4
REMARK VINA RESULT:      -7.6      4.069      7.016
REMARK  11 active torsions:
REMARK  status: ('A' for Active; 'I' for Inactive)
REMARK    1  A    between atoms: O_3  and  C_32 
REMARK    2  A    between atoms: O_5  and  C_33 
REMARK    3  A    between atoms: N_9  and  C_17 
REMARK    4  A    between atoms: N_9  and  C_20 
REMARK    5  A    between atoms: C_23  and  N_13 
REMARK       I    between atoms: N_13  and  C_31 
REMARK       I    between atoms: N_14  and  C_22 
REMARK    6  A    between atoms: C_15  and  C_17 
REMARK    7  A    between atoms: C_23  and  C_24 
REMARK    8  A    between atoms: C_23  and  C_32 
REMARK    9  A    between atoms: C_24  and  C_30 
REMARK   10  A    between atoms: C_27  and  C_31 
REMARK   11  A    between atoms: C_30  and  C_33 
ROOT
HETATM    1  C   UNK N   1      31.953  17.477   8.307  0.00  0.00     0.028 A 
HETATM    2  C   UNK N   1      31.765  17.014   6.998  0.00  0.00     0.030 A 
HETATM    3  C   UNK N   1      30.869  17.967   9.035  0.00  0.00     0.030 A 
HETATM    4  C   UNK N   1      29.426  17.623   7.122  0.00  0.00     0.032 A 
HETATM    5  C   UNK N   1      30.510  17.104   6.402  0.00  0.00     0.019 A 
HETATM    6  C   UNK N   1      29.607  18.036   8.448  0.00  0.00     0.019 A 
ENDROOT
BRANCH   1   7
HETATM    7  N   UNK N   1      33.234  17.464   8.902  0.00  0.00    -0.388 N 
HETATM    8  H   UNK N   1      33.601  18.304   9.263  0.00  0.00     0.159 HD
BRANCH   7   9
HETATM    9  C   UNK N   1      34.021  16.260   8.996  0.00  0.00     0.146 C 
BRANCH   9  10
HETATM   10  C   UNK N   1      33.263  15.241   9.849  0.00  0.00     0.117 C 
HETATM   11  N   UNK N   1      34.018  14.978  11.059  0.00  0.00    -0.375 N 
HETATM   12  C   UNK N   1      35.187  14.186  10.986  0.00  0.00     0.142 A 
HETATM   13  H   UNK N   1      33.720  15.348  11.920  0.00  0.00     0.160 HD
HETATM   14  C   UNK N   1      35.355  13.323   9.903  0.00  0.00     0.149 A 
HETATM   15  C   UNK N   1      36.185  14.256  11.957  0.00  0.00     0.289 A 
HETATM   16  N   UNK N   1      34.342  13.233   8.912  0.00  0.00    -0.372 N 
HETATM   17  N   UNK N   1      36.478  12.566   9.809  0.00  0.00    -0.175 N 
HETATM   18  C   UNK N   1      33.080  13.941   9.058  0.00  0.00     0.148 C 
HETATM   19  H   UNK N   1      34.495  12.681   8.111  0.00  0.00     0.161 HD
HETATM   20  C   UNK N   1      37.448  12.638  10.761  0.00  0.00     0.680 A 
HETATM   21  H   UNK N   1      36.594  11.959   9.042  0.00  0.00     0.186 HD
HETATM   22  N   UNK N   1      37.304  13.474  11.825  0.00  0.00    -0.154 N 
HETATM   23  N   UNK N   1      38.602  11.841  10.646  0.00  0.00    -0.234 N 
ATOM     24  HN  UNK N   1      38.038  13.521  12.532  1.00  0.00     0.187 HD
HETATM   25  H   UNK N   1      39.362  11.908  11.269  0.00  0.00     0.174 HD
HETATM   26  H   UNK N   1      38.653  11.188   9.911  0.00  0.00     0.174 HD
HETATM   27  O   UNK N   1      36.078  15.010  12.906  0.00  0.00    -0.265 OA
ENDBRANCH   9  10
ENDBRANCH   7   9
ENDBRANCH   1   7
BRANCH   4  28
HETATM   28  C   UNK N   1      28.169  17.935   6.432  0.00  0.00     0.252 C 
HETATM   29  O   UNK N   1      27.289  17.090   6.373  0.00  0.00    -0.268 OA
HETATM   30  N   UNK N   1      27.935  19.215   6.042  0.00  0.00    -0.343 N 
HETATM   31  H   UNK N   1      28.711  19.810   5.934  0.00  0.00     0.163 HD
BRANCH  30  32
HETATM   32  C   UNK N   1      26.620  19.763   5.776  0.00  0.00     0.183 C 
BRANCH  32  33
HETATM   33  C   UNK N   1      26.319  19.937   4.294  0.00  0.00     0.046 C 
BRANCH  33  34
HETATM   34  C   UNK N   1      24.814  19.795   4.114  0.00  0.00     0.112 C 
BRANCH  34  35
HETATM   35  C   UNK N   1      24.332  20.610   2.964  0.00  0.00     0.139 C 
HETATM   36  O   UNK N   1      23.182  21.017   2.948  0.00  0.00    -0.650 OA
BRANCH  35  37
HETATM   37  O   UNK N   1      25.169  20.917   1.956  0.00  0.00    -0.776 OA
HETATM   38  H   UNK N   1      25.027  21.073   1.043  0.00  0.00     0.167 HD
ENDBRANCH  35  37
ENDBRANCH  34  35
ENDBRANCH  33  34
ENDBRANCH  32  33
BRANCH  32  39
HETATM   39  C   UNK N   1      26.418  21.007   6.591  0.00  0.00     0.163 C 
HETATM   40  O   UNK N   1      26.705  22.093   6.111  0.00  0.00    -0.648 OA
BRANCH  39  41
HETATM   41  O   UNK N   1      25.952  20.942   7.852  0.00  0.00    -0.775 OA
HETATM   42  H   UNK N   1      26.341  20.611   8.637  0.00  0.00     0.167 HD
ENDBRANCH  39  41
ENDBRANCH  32  39
ENDBRANCH  30  32
ENDBRANCH   4  28
TORSDOF 11
ENDMDL
MODEL 5
REMARK VINA RESULT:      -7.5     11.229     17.852
REMARK  11 active torsions:
REMARK  status: ('A' for Active; 'I' for Inactive)
REMARK    1  A    between atoms: O_3  and  C_32 
REMARK    2  A    between atoms: O_5  and  C_33 
REMARK    3  A    between atoms: N_9  and  C_17 
REMARK    4  A    between atoms: N_9  and  C_20 
REMARK    5  A    between atoms: C_23  and  N_13 
REMARK       I    between atoms: N_13  and  C_31 
REMARK       I    between atoms: N_14  and  C_22 
REMARK    6  A    between atoms: C_15  and  C_17 
REMARK    7  A    between atoms: C_23  and  C_24 
REMARK    8  A    between atoms: C_23  and  C_32 
REMARK    9  A    between atoms: C_24  and  C_30 
REMARK   10  A    between atoms: C_27  and  C_31 
REMARK   11  A    between atoms: C_30  and  C_33 
ROOT
HETATM    1  C   UNK N   1      35.877  13.096  16.239  0.00  0.00     0.028 A 
HETATM    2  C   UNK N   1      35.470  13.680  17.446  0.00  0.00     0.030 A 
HETATM    3  C   UNK N   1      36.006  11.709  16.145  0.00  0.00     0.030 A 
HETATM    4  C   UNK N   1      35.416  11.494  18.484  0.00  0.00     0.032 A 
HETATM    5  C   UNK N   1      35.258  12.884  18.568  0.00  0.00     0.019 A 
HETATM    6  C   UNK N   1      35.772  10.909  17.262  0.00  0.00     0.019 A 
ENDROOT
BRANCH   1   7
HETATM    7  N   UNK N   1      36.170  13.893  15.112  0.00  0.00    -0.388 N 
HETATM    8  H   UNK N   1      36.911  14.540  15.164  0.00  0.00     0.159 HD
BRANCH   7   9
HETATM    9  C   UNK N   1      35.418  13.789  13.886  0.00  0.00     0.146 C 
BRANCH   9  10
HETATM   10  C   UNK N   1      36.387  13.517  12.735  0.00  0.00     0.117 C 
HETATM   11  N   UNK N   1      36.443  14.683  11.874  0.00  0.00    -0.375 N 
HETATM   12  C   UNK N   1      35.355  14.960  11.014  0.00  0.00     0.142 A 
HETATM   13  H   UNK N   1      37.229  15.274  11.888  0.00  0.00     0.160 HD
HETATM   14  C   UNK N   1      34.480  13.929  10.671  0.00  0.00     0.149 A 
HETATM   15  C   UNK N   1      35.120  16.240  10.514  0.00  0.00     0.289 A 
HETATM   16  N   UNK N   1      34.714  12.618  11.165  0.00  0.00    -0.372 N 
HETATM   17  N   UNK N   1      33.422  14.180   9.860  0.00  0.00    -0.175 N 
HETATM   18  C   UNK N   1      35.908  12.302  11.932  0.00  0.00     0.148 C 
HETATM   19  H   UNK N   1      34.055  11.908  10.984  0.00  0.00     0.161 HD
HETATM   20  C   UNK N   1      33.200  15.432   9.374  0.00  0.00     0.680 A 
HETATM   21  H   UNK N   1      32.807  13.450   9.621  0.00  0.00     0.186 HD
HETATM   22  N   UNK N   1      34.040  16.453   9.697  0.00  0.00    -0.154 N 
HETATM   23  N   UNK N   1      32.099  15.670   8.530  0.00  0.00    -0.234 N 
ATOM     24  HN  UNK N   1      33.863  17.387   9.328  1.00  0.00     0.187 HD
HETATM   25  H   UNK N   1      31.855  16.569   8.210  0.00  0.00     0.174 HD
HETATM   26  H   UNK N   1      31.548  14.905   8.248  0.00  0.00     0.174 HD
HETATM   27  O   UNK N   1      35.854  17.167  10.806  0.00  0.00    -0.265 OA
ENDBRANCH   9  10
ENDBRANCH   7   9
ENDBRANCH   1   7
BRANCH   4  28
HETATM   28  C   UNK N   1      35.423  10.680  19.705  0.00  0.00     0.252 C 
HETATM   29  O   UNK N   1      36.336  10.804  20.506  0.00  0.00    -0.268 OA
HETATM   30  N   UNK N   1      34.320   9.948  20.011  0.00  0.00    -0.343 N 
HETATM   31  H   UNK N   1      33.701   9.724  19.280  0.00  0.00     0.163 HD
BRANCH  30  32
HETATM   32  C   UNK N   1      33.995   9.475  21.341  0.00  0.00     0.183 C 
BRANCH  32  33
HETATM   33  C   UNK N   1      33.537   8.023  21.379  0.00  0.00     0.046 C 
BRANCH  33  34
HETATM   34  C   UNK N   1      32.999   7.678  19.998  0.00  0.00     0.112 C 
BRANCH  34  35
HETATM   35  C   UNK N   1      31.509   7.668  19.990  0.00  0.00     0.139 C 
HETATM   36  O   UNK N   1      30.908   6.615  20.119  0.00  0.00    -0.650 OA
BRANCH  35  37
HETATM   37  O   UNK N   1      30.827   8.821  19.864  0.00  0.00    -0.776 OA
HETATM   38  H   UNK N   1      31.043   9.709  20.070  0.00  0.00     0.167 HD
ENDBRANCH  35  37
ENDBRANCH  34  35
ENDBRANCH  33  34
ENDBRANCH  32  33
BRANCH  32  39
HETATM   39  C   UNK N   1      33.044  10.433  21.999  0.00  0.00     0.163 C 
HETATM   40  O   UNK N   1      31.988  10.017  22.449  0.00  0.00    -0.648 OA
BRANCH  39  41
HETATM   41  O   UNK N   1      33.327  11.747  22.075  0.00  0.00    -0.775 OA
HETATM   42  H   UNK N   1      33.776  12.244  22.730  0.00  0.00     0.167 HD
ENDBRANCH  39  41
ENDBRANCH  32  39
ENDBRANCH  30  32
ENDBRANCH   4  28
TORSDOF 11
ENDMDL
MODEL 6
REMARK VINA RESULT:      -7.5      3.582      6.271
REMARK  11 active torsions:
REMARK  status: ('A' for Active; 'I' for Inactive)
REMARK    1  A    between atoms: O_3  and  C_32 
REMARK    2  A    between atoms: O_5  and  C_33 
REMARK    3  A    between atoms: N_9  and  C_17 
REMARK    4  A    between atoms: N_9  and  C_20 
REMARK    5  A    between atoms: C_23  and  N_13 
REMARK       I    between atoms: N_13  and  C_31 
REMARK       I    between atoms: N_14  and  C_22 
REMARK    6  A    between atoms: C_15  and  C_17 
REMARK    7  A    between atoms: C_23  and  C_24 
REMARK    8  A    between atoms: C_23  and  C_32 
REMARK    9  A    between atoms: C_24  and  C_30 
REMARK   10  A    between atoms: C_27  and  C_31 
REMARK   11  A    between atoms: C_30  and  C_33 
ROOT
HETATM    1  C   UNK N   1      30.848  17.486   8.320  0.00  0.00     0.028 A 
HETATM    2  C   UNK N   1      30.679  16.934   7.043  0.00  0.00     0.030 A 
HETATM    3  C   UNK N   1      29.884  18.352   8.837  0.00  0.00     0.030 A 
HETATM    4  C   UNK N   1      28.628  18.190   6.773  0.00  0.00     0.032 A 
HETATM    5  C   UNK N   1      29.583  17.298   6.266  0.00  0.00     0.019 A 
HETATM    6  C   UNK N   1      28.774  18.700   8.070  0.00  0.00     0.019 A 
ENDROOT
BRANCH   1   7
HETATM    7  N   UNK N   1      31.992  17.188   9.092  0.00  0.00    -0.388 N 
HETATM    8  H   UNK N   1      32.293  17.835   9.770  0.00  0.00     0.159 HD
BRANCH   7   9
HETATM    9  C   UNK N   1      32.733  15.964   8.918  0.00  0.00     0.146 C 
BRANCH   9  10
HETATM   10  C   UNK N   1      34.118  16.300   8.362  0.00  0.00     0.117 C 
HETATM   11  N   UNK N   1      34.991  15.155   8.534  0.00  0.00    -0.375 N 
HETATM   12  C   UNK N   1      35.482  14.847   9.824  0.00  0.00     0.142 A 
HETATM   13  H   UNK N   1      35.238  14.598   7.762  0.00  0.00     0.160 HD
HETATM   14  C   UNK N   1      35.506  15.847  10.797  0.00  0.00     0.149 A 
HETATM   15  C   UNK N   1      35.926  13.569  10.157  0.00  0.00     0.289 A 
HETATM   16  N   UNK N   1      35.066  17.157  10.469  0.00  0.00    -0.372 N 
HETATM   17  N   UNK N   1      35.960  15.566  12.045  0.00  0.00    -0.175 N 
HETATM   18  C   UNK N   1      34.694  17.509   9.108  0.00  0.00     0.148 C 
HETATM   19  H   UNK N   1      35.013  17.841  11.176  0.00  0.00     0.161 HD
HETATM   20  C   UNK N   1      36.394  14.316  12.362  0.00  0.00     0.680 A 
HETATM   21  H   UNK N   1      35.974  16.274  12.729  0.00  0.00     0.186 HD
HETATM   22  N   UNK N   1      36.377  13.325  11.429  0.00  0.00    -0.154 N 
HETATM   23  N   UNK N   1      36.865  14.046  13.661  0.00  0.00    -0.234 N 
ATOM     24  HN  UNK N   1      36.704  12.392  11.678  1.00  0.00     0.187 HD
HETATM   25  H   UNK N   1      37.122  13.145  13.960  0.00  0.00     0.174 HD
HETATM   26  H   UNK N   1      36.940  14.793  14.299  0.00  0.00     0.174 HD
HETATM   27  O   UNK N   1      35.904  12.669   9.337  0.00  0.00    -0.265 OA
ENDBRANCH   9  10
ENDBRANCH   7   9
ENDBRANCH   1   7
BRANCH   4  28
HETATM   28  C   UNK N   1      27.606  18.755   5.885  0.00  0.00     0.252 C 
HETATM   29  O   UNK N   1      27.874  19.733   5.204  0.00  0.00    -0.268 OA
HETATM   30  N   UNK N   1      26.451  18.067   5.694  0.00  0.00    -0.343 N 
HETATM   31  H   UNK N   1      26.192  17.407   6.377  0.00  0.00     0.163 HD
BRANCH  30  32
HETATM   32  C   UNK N   1      25.573  18.239   4.554  0.00  0.00     0.183 C 
BRANCH  32  33
HETATM   33  C   UNK N   1      24.423  19.204   4.807  0.00  0.00     0.046 C 
BRANCH  33  34
HETATM   34  C   UNK N   1      23.626  19.315   3.516  0.00  0.00     0.112 C 
BRANCH  34  35
HETATM   35  C   UNK N   1      23.843  20.637   2.863  0.00  0.00     0.139 C 
HETATM   36  O   UNK N   1      22.998  21.511   2.966  0.00  0.00    -0.650 OA
BRANCH  35  37
HETATM   37  O   UNK N   1      24.978  20.875   2.182  0.00  0.00    -0.776 OA
HETATM   38  H   UNK N   1      25.374  20.453   1.445  0.00  0.00     0.167 HD
ENDBRANCH  35  37
ENDBRANCH  34  35
ENDBRANCH  33  34
ENDBRANCH  32  33
BRANCH  32  39
HETATM   39  C   UNK N   1      25.142  16.896   4.042  0.00  0.00     0.163 C 
HETATM   40  O   UNK N   1      24.418  16.194   4.730  0.00  0.00    -0.648 OA
BRANCH  39  41
HETATM   41  O   UNK N   1      25.564  16.442   2.847  0.00  0.00    -0.775 OA
HETATM   42  H   UNK N   1      25.526  15.589   2.462  0.00  0.00     0.167 HD
ENDBRANCH  39  41
ENDBRANCH  32  39
ENDBRANCH  30  32
ENDBRANCH   4  28
TORSDOF 11
ENDMDL
MODEL 7
REMARK VINA RESULT:      -7.5      3.405      6.265
REMARK  11 active torsions:
REMARK  status: ('A' for Active; 'I' for Inactive)
REMARK    1  A    between atoms: O_3  and  C_32 
REMARK    2  A    between atoms: O_5  and  C_33 
REMARK    3  A    between atoms: N_9  and  C_17 
REMARK    4  A    between atoms: N_9  and  C_20 
REMARK    5  A    between atoms: C_23  and  N_13 
REMARK       I    between atoms: N_13  and  C_31 
REMARK       I    between atoms: N_14  and  C_22 
REMARK    6  A    between atoms: C_15  and  C_17 
REMARK    7  A    between atoms: C_23  and  C_24 
REMARK    8  A    between atoms: C_23  and  C_32 
REMARK    9  A    between atoms: C_24  and  C_30 
REMARK   10  A    between atoms: C_27  and  C_31 
REMARK   11  A    between atoms: C_30  and  C_33 
ROOT
HETATM    1  C   UNK N   1      31.598  15.586   5.579  0.00  0.00     0.028 A 
HETATM    2  C   UNK N   1      31.699  16.882   5.057  0.00  0.00     0.030 A 
HETATM    3  C   UNK N   1      30.370  14.923   5.564  0.00  0.00     0.030 A 
HETATM    4  C   UNK N   1      29.324  16.879   4.593  0.00  0.00     0.032 A 
HETATM    5  C   UNK N   1      30.563  17.533   4.582  0.00  0.00     0.019 A 
HETATM    6  C   UNK N   1      29.237  15.564   5.068  0.00  0.00     0.019 A 
ENDROOT
BRANCH   1   7
HETATM    7  N   UNK N   1      32.723  14.939   6.135  0.00  0.00    -0.388 N 
HETATM    8  H   UNK N   1      32.939  14.023   5.844  0.00  0.00     0.159 HD
BRANCH   7   9
HETATM    9  C   UNK N   1      33.565  15.578   7.114  0.00  0.00     0.146 C 
BRANCH   9  10
HETATM   10  C   UNK N   1      32.732  15.875   8.362  0.00  0.00     0.117 C 
HETATM   11  N   UNK N   1      33.566  16.544   9.343  0.00  0.00    -0.375 N 
HETATM   12  C   UNK N   1      34.533  15.796  10.054  0.00  0.00     0.142 A 
HETATM   13  H   UNK N   1      33.460  17.507   9.510  0.00  0.00     0.160 HD
HETATM   14  C   UNK N   1      34.386  14.412  10.148  0.00  0.00     0.149 A 
HETATM   15  C   UNK N   1      35.639  16.400  10.648  0.00  0.00     0.289 A 
HETATM   16  N   UNK N   1      33.258  13.784   9.556  0.00  0.00    -0.372 N 
HETATM   17  N   UNK N   1      35.312  13.676  10.813  0.00  0.00    -0.175 N 
HETATM   18  C   UNK N   1      32.193  14.565   8.948  0.00  0.00     0.148 C 
HETATM   19  H   UNK N   1      33.194  12.801   9.558  0.00  0.00     0.161 HD
HETATM   20  C   UNK N   1      36.389  14.273  11.392  0.00  0.00     0.680 A 
HETATM   21  H   UNK N   1      35.205  12.700  10.876  0.00  0.00     0.186 HD
HETATM   22  N   UNK N   1      36.553  15.622  11.312  0.00  0.00    -0.154 N 
HETATM   23  N   UNK N   1      37.336  13.492  12.082  0.00  0.00    -0.234 N 
ATOM     24  HN  UNK N   1      37.365  16.058  11.749  1.00  0.00     0.187 HD
HETATM   25  H   UNK N   1      38.166  13.866  12.456  0.00  0.00     0.174 HD
HETATM   26  H   UNK N   1      37.160  12.530  12.194  0.00  0.00     0.174 HD
HETATM   27  O   UNK N   1      35.808  17.603  10.572  0.00  0.00    -0.265 OA
ENDBRANCH   9  10
ENDBRANCH   7   9
ENDBRANCH   1   7
BRANCH   4  28
HETATM   28  C   UNK N   1      28.095  17.632   4.316  0.00  0.00     0.252 C 
HETATM   29  O   UNK N   1      27.051  17.029   4.119  0.00  0.00    -0.268 OA
HETATM   30  N   UNK N   1      28.103  18.981   4.473  0.00  0.00    -0.343 N 
HETATM   31  H   UNK N   1      28.973  19.441   4.445  0.00  0.00     0.163 HD
BRANCH  30  32
HETATM   32  C   UNK N   1      26.918  19.789   4.679  0.00  0.00     0.183 C 
BRANCH  32  33
HETATM   33  C   UNK N   1      26.566  20.672   3.490  0.00  0.00     0.046 C 
BRANCH  33  34
HETATM   34  C   UNK N   1      25.494  19.950   2.686  0.00  0.00     0.112 C 
BRANCH  34  35
HETATM   35  C   UNK N   1      24.146  20.150   3.289  0.00  0.00     0.139 C 
HETATM   36  O   UNK N   1      23.722  19.350   4.107  0.00  0.00    -0.650 OA
BRANCH  35  37
HETATM   37  O   UNK N   1      23.406  21.222   2.950  0.00  0.00    -0.776 OA
HETATM   38  H   UNK N   1      22.733  21.692   3.401  0.00  0.00     0.167 HD
ENDBRANCH  35  37
ENDBRANCH  34  35
ENDBRANCH  33  34
ENDBRANCH  32  33
BRANCH  32  39
HETATM   39  C   UNK N   1      27.033  20.531   5.978  0.00  0.00     0.163 C 
HETATM   40  O   UNK N   1      27.097  21.751   5.970  0.00  0.00    -0.648 OA
BRANCH  39  41
HETATM   41  O   UNK N   1      27.094  19.871   7.150  0.00  0.00    -0.775 OA
HETATM   42  H   UNK N   1      26.680  19.081   7.435  0.00  0.00     0.167 HD
ENDBRANCH  39  41
ENDBRANCH  32  39
ENDBRANCH  30  32
ENDBRANCH   4  28
TORSDOF 11
ENDMDL
MODEL 8
REMARK VINA RESULT:      -7.4      4.773      8.329
REMARK  11 active torsions:
REMARK  status: ('A' for Active; 'I' for Inactive)
REMARK    1  A    between atoms: O_3  and  C_32 
REMARK    2  A    between atoms: O_5  and  C_33 
REMARK    3  A    between atoms: N_9  and  C_17 
REMARK    4  A    between atoms: N_9  and  C_20 
REMARK    5  A    between atoms: C_23  and  N_13 
REMARK       I    between atoms: N_13  and  C_31 
REMARK       I    between atoms: N_14  and  C_22 
REMARK    6  A    between atoms: C_15  and  C_17 
REMARK    7  A    between atoms: C_23  and  C_24 
REMARK    8  A    between atoms: C_23  and  C_32 
REMARK    9  A    between atoms: C_24  and  C_30 
REMARK   10  A    between atoms: C_27  and  C_31 
REMARK   11  A    between atoms: C_30  and  C_33 
ROOT
HETATM    1  C   UNK N   1      33.007  16.561   8.468  0.00  0.00     0.028 A 
HETATM    2  C   UNK N   1      31.788  17.225   8.658  0.00  0.00     0.030 A 
HETATM    3  C   UNK N   1      33.407  16.194   7.183  0.00  0.00     0.030 A 
HETATM    4  C   UNK N   1      31.333  17.065   6.287  0.00  0.00     0.032 A 
HETATM    5  C   UNK N   1      30.946  17.460   7.575  0.00  0.00     0.019 A 
HETATM    6  C   UNK N   1      32.576  16.449   6.094  0.00  0.00     0.019 A 
ENDROOT
BRANCH   1   7
HETATM    7  N   UNK N   1      33.839  16.246   9.565  0.00  0.00    -0.388 N 
HETATM    8  H   UNK N   1      34.619  16.817   9.752  0.00  0.00     0.159 HD
BRANCH   7   9
HETATM    9  C   UNK N   1      33.580  15.114  10.419  0.00  0.00     0.146 C 
BRANCH   9  10
HETATM   10  C   UNK N   1      34.615  14.027  10.125  0.00  0.00     0.117 C 
HETATM   11  N   UNK N   1      34.666  13.103  11.242  0.00  0.00    -0.375 N 
HETATM   12  C   UNK N   1      35.294  13.505  12.443  0.00  0.00     0.142 A 
HETATM   13  H   UNK N   1      34.268  12.208  11.163  0.00  0.00     0.160 HD
HETATM   14  C   UNK N   1      36.217  14.551  12.410  0.00  0.00     0.149 A 
HETATM   15  C   UNK N   1      35.004  12.897  13.664  0.00  0.00     0.289 A 
HETATM   16  N   UNK N   1      36.531  15.171  11.172  0.00  0.00    -0.372 N 
HETATM   17  N   UNK N   1      36.819  14.959  13.556  0.00  0.00    -0.175 N 
HETATM   18  C   UNK N   1      35.993  14.668   9.918  0.00  0.00     0.148 C 
HETATM   19  H   UNK N   1      37.124  15.957  11.161  0.00  0.00     0.161 HD
HETATM   20  C   UNK N   1      36.531  14.361  14.744  0.00  0.00     0.680 A 
HETATM   21  H   UNK N   1      37.469  15.698  13.529  0.00  0.00     0.186 HD
HETATM   22  N   UNK N   1      35.633  13.340  14.799  0.00  0.00    -0.154 N 
HETATM   23  N   UNK N   1      37.169  14.797  15.921  0.00  0.00    -0.234 N 
ATOM     24  HN  UNK N   1      35.425  12.899  15.695  1.00  0.00     0.187 HD
HETATM   25  H   UNK N   1      36.945  14.445  16.812  0.00  0.00     0.174 HD
HETATM   26  H   UNK N   1      37.871  15.484  15.848  0.00  0.00     0.174 HD
HETATM   27  O   UNK N   1      34.192  11.993  13.732  0.00  0.00    -0.265 OA
ENDBRANCH   9  10
ENDBRANCH   7   9
ENDBRANCH   1   7
BRANCH   4  28
HETATM   28  C   UNK N   1      30.363  17.097   5.187  0.00  0.00     0.252 C 
HETATM   29  O   UNK N   1      30.531  16.379   4.214  0.00  0.00    -0.268 OA
HETATM   30  N   UNK N   1      29.201  17.780   5.357  0.00  0.00    -0.343 N 
HETATM   31  H   UNK N   1      29.178  18.481   6.048  0.00  0.00     0.163 HD
BRANCH  30  32
HETATM   32  C   UNK N   1      27.993  17.546   4.591  0.00  0.00     0.183 C 
BRANCH  32  33
HETATM   33  C   UNK N   1      27.353  18.820   4.055  0.00  0.00     0.046 C 
BRANCH  33  34
HETATM   34  C   UNK N   1      27.984  19.993   4.791  0.00  0.00     0.112 C 
BRANCH  34  35
HETATM   35  C   UNK N   1      26.998  20.654   5.691  0.00  0.00     0.139 C 
HETATM   36  O   UNK N   1      27.190  21.799   6.066  0.00  0.00    -0.650 OA
BRANCH  35  37
HETATM   37  O   UNK N   1      25.886  19.999   6.073  0.00  0.00    -0.776 OA
HETATM   38  H   UNK N   1      25.514  19.180   5.812  0.00  0.00     0.167 HD
ENDBRANCH  35  37
ENDBRANCH  34  35
ENDBRANCH  33  34
ENDBRANCH  32  33
BRANCH  32  39
HETATM   39  C   UNK N   1      27.057  16.676   5.378  0.00  0.00     0.163 C 
HETATM   40  O   UNK N   1      27.322  15.493   5.532  0.00  0.00    -0.648 OA
BRANCH  39  41
HETATM   41  O   UNK N   1      25.918  17.174   5.894  0.00  0.00    -0.775 OA
HETATM   42  H   UNK N   1      25.686  18.044   6.151  0.00  0.00     0.167 HD
ENDBRANCH  39  41
ENDBRANCH  32  39
ENDBRANCH  30  32
ENDBRANCH   4  28
TORSDOF 11
ENDMDL
MODEL 9
REMARK VINA RESULT:      -7.3      2.792     10.010
REMARK  11 active torsions:
REMARK  status: ('A' for Active; 'I' for Inactive)
REMARK    1  A    between atoms: O_3  and  C_32 
REMARK    2  A    between atoms: O_5  and  C_33 
REMARK    3  A    between atoms: N_9  and  C_17 
REMARK    4  A    between atoms: N_9  and  C_20 
REMARK    5  A    between atoms: C_23  and  N_13 
REMARK       I    between atoms: N_13  and  C_31 
REMARK       I    between atoms: N_14  and  C_22 
REMARK    6  A    between atoms: C_15  and  C_17 
REMARK    7  A    between atoms: C_23  and  C_24 
REMARK    8  A    between atoms: C_23  and  C_32 
REMARK    9  A    between atoms: C_24  and  C_30 
REMARK   10  A    between atoms: C_27  and  C_31 
REMARK   11  A    between atoms: C_30  and  C_33 
ROOT
HETATM    1  C   UNK N   1      24.890  19.963   3.795  0.00  0.00     0.028 A 
HETATM    2  C   UNK N   1      26.216  20.365   4.003  0.00  0.00     0.030 A 
HETATM    3  C   UNK N   1      24.433  18.762   4.338  0.00  0.00     0.030 A 
HETATM    4  C   UNK N   1      26.644  18.316   5.218  0.00  0.00     0.032 A 
HETATM    5  C   UNK N   1      27.094  19.536   4.696  0.00  0.00     0.019 A 
HETATM    6  C   UNK N   1      25.304  17.942   5.052  0.00  0.00     0.019 A 
ENDROOT
BRANCH   1   7
HETATM    7  N   UNK N   1      24.006  20.754   3.030  0.00  0.00    -0.388 N 
HETATM    8  H   UNK N   1      24.082  21.735   3.074  0.00  0.00     0.159 HD
BRANCH   7   9
HETATM    9  C   UNK N   1      22.994  20.170   2.186  0.00  0.00     0.146 C 
BRANCH   9  10
HETATM   10  C   UNK N   1      21.621  20.662   2.648  0.00  0.00     0.117 C 
HETATM   11  N   UNK N   1      21.144  19.806   3.717  0.00  0.00    -0.375 N 
HETATM   12  C   UNK N   1      20.676  18.508   3.406  0.00  0.00     0.142 A 
HETATM   13  H   UNK N   1      21.146  20.125   4.647  0.00  0.00     0.160 HD
HETATM   14  C   UNK N   1      20.262  18.230   2.103  0.00  0.00     0.149 A 
HETATM   15  C   UNK N   1      20.633  17.493   4.361  0.00  0.00     0.289 A 
HETATM   16  N   UNK N   1      20.290  19.257   1.123  0.00  0.00    -0.372 N 
HETATM   17  N   UNK N   1      19.824  16.985   1.783  0.00  0.00    -0.175 N 
HETATM   18  C   UNK N   1      20.636  20.625   1.474  0.00  0.00     0.148 C 
HETATM   19  H   UNK N   1      20.069  19.040   0.188  0.00  0.00     0.161 HD
HETATM   20  C   UNK N   1      19.784  16.000   2.721  0.00  0.00     0.680 A 
HETATM   21  H   UNK N   1      19.534  16.793   0.863  0.00  0.00     0.186 HD
HETATM   22  N   UNK N   1      20.185  16.249   3.998  0.00  0.00    -0.154 N 
HETATM   23  N   UNK N   1      19.322  14.717   2.369  0.00  0.00    -0.234 N 
ATOM     24  HN  UNK N   1      20.151  15.503   4.692  1.00  0.00     0.187 HD
HETATM   25  H   UNK N   1      19.340  13.954   2.991  0.00  0.00     0.174 HD
HETATM   26  H   UNK N   1      18.966  14.578   1.462  0.00  0.00     0.174 HD
HETATM   27  O   UNK N   1      21.002  17.697   5.503  0.00  0.00    -0.265 OA
ENDBRANCH   9  10
ENDBRANCH   7   9
ENDBRANCH   1   7
BRANCH   4  28
HETATM   28  C   UNK N   1      27.608  17.341   5.740  0.00  0.00     0.252 C 
HETATM   29  O   UNK N   1      27.437  16.151   5.526  0.00  0.00    -0.268 OA
HETATM   30  N   UNK N   1      28.768  17.792   6.284  0.00  0.00    -0.343 N 
HETATM   31  H   UNK N   1      28.792  18.721   6.607  0.00  0.00     0.163 HD
BRANCH  30  32
HETATM   32  C   UNK N   1      29.972  16.998   6.422  0.00  0.00     0.183 C 
BRANCH  32  33
HETATM   33  C   UNK N   1      30.538  16.984   7.836  0.00  0.00     0.046 C 
BRANCH  33  34
HETATM   34  C   UNK N   1      29.902  18.141   8.593  0.00  0.00     0.112 C 
BRANCH  34  35
HETATM   35  C   UNK N   1      28.839  17.657   9.517  0.00  0.00     0.139 C 
HETATM   36  O   UNK N   1      29.128  16.912  10.439  0.00  0.00    -0.650 OA
BRANCH  35  37
HETATM   37  O   UNK N   1      27.565  18.059   9.352  0.00  0.00    -0.776 OA
HETATM   38  H   UNK N   1      27.014  18.114   8.597  0.00  0.00     0.167 HD
ENDBRANCH  35  37
ENDBRANCH  34  35
ENDBRANCH  33  34
ENDBRANCH  32  33
BRANCH  32  39
HETATM   39  C   UNK N   1      30.964  17.401   5.371  0.00  0.00     0.163 C 
HETATM   40  O   UNK N   1      32.158  17.252   5.583  0.00  0.00    -0.648 OA
BRANCH  39  41
HETATM   41  O   UNK N   1      30.560  17.948   4.209  0.00  0.00    -0.775 OA
HETATM   42  H   UNK N   1      30.671  18.811   3.862  0.00  0.00     0.167 HD
ENDBRANCH  39  41
ENDBRANCH  32  39
ENDBRANCH  30  32
ENDBRANCH   4  28
TORSDOF 11
ENDMDL
