MODEL 1
REMARK VINA RESULT:      -5.0      0.000      0.000
REMARK  5 active torsions:
REMARK  status: ('A' for Active; 'I' for Inactive)
REMARK    1  A    between atoms: O_1  and  C_10 
REMARK    2  A    between atoms: C_8  and  N_4 
REMARK    3  A    between atoms: C_7  and  C_8 
REMARK    4  A    between atoms: C_7  and  C_9 
REMARK    5  A    between atoms: C_8  and  C_10 
ROOT
HETATM    1  C   UNK N   1      32.841  16.356   8.667  0.00  0.00     0.093 C 
ENDROOT
BRANCH   1   2
HETATM    2  C   UNK N   1      34.059  17.219   9.016  0.00  0.00     0.178 C 
BRANCH   2   3
HETATM    3  N   UNK N   1      34.758  17.083  10.286  0.00  0.00    -0.417 N 
HETATM    4  H   UNK N   1      35.288  17.868  10.663  0.00  0.00     0.150 HD
HETATM    5  H   UNK N   1      34.717  16.201  10.798  0.00  0.00     0.150 HD
ENDBRANCH   2   3
BRANCH   2   6
HETATM    6  C   UNK N   1      34.564  18.236   8.045  0.00  0.00     0.163 C 
HETATM    7  O   UNK N   1      35.119  19.245   8.452  0.00  0.00    -0.648 OA
BRANCH   6   8
HETATM    8  O   UNK N   1      34.410  18.047   6.721  0.00  0.00    -0.775 OA
HETATM    9  H   UNK N   1      35.093  17.644   6.223  0.00  0.00     0.167 HD
ENDBRANCH   6   8
ENDBRANCH   2   6
ENDBRANCH   1   2
BRANCH   1  10
HETATM   10  C   UNK N   1      31.535  17.039   8.393  0.00  0.00     0.028 A 
HETATM   11  N   UNK N   1      30.975  17.890   9.266  0.00  0.00    -0.354 N 
HETATM   12  C   UNK N   1      29.830  18.293   8.679  0.00  0.00     0.180 A 
HETATM   13  H   UNK N   1      31.325  18.162  10.145  0.00  0.00     0.166 HD
HETATM   14  N   UNK N   1      29.660  17.720   7.470  0.00  0.00    -0.360 N 
HETATM   15  C   UNK N   1      30.731  16.928   7.283  0.00  0.00     0.114 A 
ATOM     16  HN  UNK N   1      28.879  17.859   6.830  1.00  0.00     0.166 HD
ENDBRANCH   1  10
TORSDOF 5
ENDMDL
MODEL 2
REMARK VINA RESULT:      -4.9      4.972      6.891
REMARK  5 active torsions:
REMARK  status: ('A' for Active; 'I' for Inactive)
REMARK    1  A    between atoms: O_1  and  C_10 
REMARK    2  A    between atoms: C_8  and  N_4 
REMARK    3  A    between atoms: C_7  and  C_8 
REMARK    4  A    between atoms: C_7  and  C_9 
REMARK    5  A    between atoms: C_8  and  C_10 
ROOT
HETATM    1  C   UNK N   1      35.434  13.766  11.892  0.00  0.00     0.093 C 
ENDROOT
BRANCH   1   2
HETATM    2  C   UNK N   1      34.828  15.014  11.243  0.00  0.00     0.178 C 
BRANCH   2   3
HETATM    3  N   UNK N   1      33.411  15.100  10.919  0.00  0.00    -0.417 N 
HETATM    4  H   UNK N   1      32.776  15.602  11.540  0.00  0.00     0.150 HD
HETATM    5  H   UNK N   1      33.054  14.659  10.071  0.00  0.00     0.150 HD
ENDBRANCH   2   3
BRANCH   2   6
HETATM    6  C   UNK N   1      35.692  16.191  10.921  0.00  0.00     0.163 C 
HETATM    7  O   UNK N   1      35.181  17.271  10.669  0.00  0.00    -0.648 OA
BRANCH   6   8
HETATM    8  O   UNK N   1      37.032  16.066  10.908  0.00  0.00    -0.775 OA
HETATM    9  H   UNK N   1      37.475  15.696  11.646  0.00  0.00     0.167 HD
ENDBRANCH   6   8
ENDBRANCH   2   6
ENDBRANCH   1   2
BRANCH   1  10
HETATM   10  C   UNK N   1      35.814  13.825  13.341  0.00  0.00     0.028 A 
HETATM   11  N   UNK N   1      36.777  14.642  13.796  0.00  0.00    -0.354 N 
HETATM   12  C   UNK N   1      36.830  14.417  15.124  0.00  0.00     0.180 A 
HETATM   13  H   UNK N   1      37.326  15.269  13.273  0.00  0.00     0.166 HD
HETATM   14  N   UNK N   1      35.932  13.488  15.509  0.00  0.00    -0.360 N 
HETATM   15  C   UNK N   1      35.288  13.110  14.391  0.00  0.00     0.114 A 
ATOM     16  HN  UNK N   1      35.774  13.143  16.456  1.00  0.00     0.166 HD
ENDBRANCH   1  10
TORSDOF 5
ENDMDL
MODEL 3
REMARK VINA RESULT:      -4.6     13.492     14.247
REMARK  5 active torsions:
REMARK  status: ('A' for Active; 'I' for Inactive)
REMARK    1  A    between atoms: O_1  and  C_10 
REMARK    2  A    between atoms: C_8  and  N_4 
REMARK    3  A    between atoms: C_7  and  C_8 
REMARK    4  A    between atoms: C_7  and  C_9 
REMARK    5  A    between atoms: C_8  and  C_10 
ROOT
HETATM    1  C   UNK N   1      19.953  19.205   2.639  0.00  0.00     0.093 C 
ENDROOT
BRANCH   1   2
HETATM    2  C   UNK N   1      21.009  20.213   2.175  0.00  0.00     0.178 C 
BRANCH   2   3
HETATM    3  N   UNK N   1      22.239  20.434   2.921  0.00  0.00    -0.417 N 
HETATM    4  H   UNK N   1      23.050  19.838   2.756  0.00  0.00     0.150 HD
HETATM    5  H   UNK N   1      22.290  21.186   3.609  0.00  0.00     0.150 HD
ENDBRANCH   2   3
BRANCH   2   6
HETATM    6  C   UNK N   1      20.796  21.005   0.925  0.00  0.00     0.163 C 
HETATM    7  O   UNK N   1      20.889  20.461  -0.163  0.00  0.00    -0.648 OA
BRANCH   6   8
HETATM    8  O   UNK N   1      20.502  22.316   0.994  0.00  0.00    -0.775 OA
HETATM    9  H   UNK N   1      20.693  22.799   1.774  0.00  0.00     0.167 HD
ENDBRANCH   6   8
ENDBRANCH   2   6
ENDBRANCH   1   2
BRANCH   1  10
HETATM   10  C   UNK N   1      19.966  17.829   2.045  0.00  0.00     0.028 A 
HETATM   11  N   UNK N   1      19.810  17.615   0.729  0.00  0.00    -0.354 N 
HETATM   12  C   UNK N   1      19.879  16.278   0.579  0.00  0.00     0.180 A 
HETATM   13  H   UNK N   1      19.676  18.291   0.026  0.00  0.00     0.166 HD
HETATM   14  N   UNK N   1      20.071  15.652   1.758  0.00  0.00    -0.360 N 
HETATM   15  C   UNK N   1      20.128  16.623   2.687  0.00  0.00     0.114 A 
ATOM     16  HN  UNK N   1      20.157  14.648   1.913  1.00  0.00     0.166 HD
ENDBRANCH   1  10
TORSDOF 5
ENDMDL
MODEL 4
REMARK VINA RESULT:      -4.6     12.969     13.969
REMARK  5 active torsions:
REMARK  status: ('A' for Active; 'I' for Inactive)
REMARK    1  A    between atoms: O_1  and  C_10 
REMARK    2  A    between atoms: C_8  and  N_4 
REMARK    3  A    between atoms: C_7  and  C_8 
REMARK    4  A    between atoms: C_7  and  C_9 
REMARK    5  A    between atoms: C_8  and  C_10 
ROOT
HETATM    1  C   UNK N   1      19.775  19.002   2.421  0.00  0.00     0.093 C 
ENDROOT
BRANCH   1   2
HETATM    2  C   UNK N   1      20.649  20.155   1.917  0.00  0.00     0.178 C 
BRANCH   2   3
HETATM    3  N   UNK N   1      20.331  20.884   0.697  0.00  0.00    -0.417 N 
HETATM    4  H   UNK N   1      20.687  21.830   0.561  0.00  0.00     0.150 HD
HETATM    5  H   UNK N   1      19.751  20.448  -0.020  0.00  0.00     0.150 HD
ENDBRANCH   2   3
BRANCH   2   6
HETATM    6  C   UNK N   1      21.869  20.564   2.678  0.00  0.00     0.163 C 
HETATM    7  O   UNK N   1      22.574  19.716   3.201  0.00  0.00    -0.648 OA
BRANCH   6   8
HETATM    8  O   UNK N   1      22.194  21.865   2.792  0.00  0.00    -0.775 OA
HETATM    9  H   UNK N   1      23.095  22.121   2.833  0.00  0.00     0.167 HD
ENDBRANCH   6   8
ENDBRANCH   2   6
ENDBRANCH   1   2
BRANCH   1  10
HETATM   10  C   UNK N   1      19.939  17.652   1.791  0.00  0.00     0.028 A 
HETATM   11  N   UNK N   1      19.239  17.277   0.709  0.00  0.00    -0.354 N 
HETATM   12  C   UNK N   1      19.651  16.022   0.441  0.00  0.00     0.180 A 
HETATM   13  H   UNK N   1      18.569  17.805   0.218  0.00  0.00     0.166 HD
HETATM   14  N   UNK N   1      20.584  15.604   1.320  0.00  0.00    -0.360 N 
HETATM   15  C   UNK N   1      20.771  16.626   2.174  0.00  0.00     0.114 A 
ATOM     16  HN  UNK N   1      21.052  14.698   1.334  1.00  0.00     0.166 HD
ENDBRANCH   1  10
TORSDOF 5
ENDMDL
MODEL 5
REMARK VINA RESULT:      -4.6      2.001      4.410
REMARK  5 active torsions:
REMARK  status: ('A' for Active; 'I' for Inactive)
REMARK    1  A    between atoms: O_1  and  C_10 
REMARK    2  A    between atoms: C_8  and  N_4 
REMARK    3  A    between atoms: C_7  and  C_8 
REMARK    4  A    between atoms: C_7  and  C_9 
REMARK    5  A    between atoms: C_8  and  C_10 
ROOT
HETATM    1  C   UNK N   1      33.754  15.794   8.942  0.00  0.00     0.093 C 
ENDROOT
BRANCH   1   2
HETATM    2  C   UNK N   1      33.382  17.238   8.592  0.00  0.00     0.178 C 
BRANCH   2   3
HETATM    3  N   UNK N   1      32.108  17.820   8.987  0.00  0.00    -0.417 N 
HETATM    4  H   UNK N   1      31.734  17.645   9.920  0.00  0.00     0.150 HD
HETATM    5  H   UNK N   1      31.588  18.404   8.330  0.00  0.00     0.150 HD
ENDBRANCH   2   3
BRANCH   2   6
HETATM    6  C   UNK N   1      34.335  18.097   7.824  0.00  0.00     0.163 C 
HETATM    7  O   UNK N   1      34.490  17.914   6.627  0.00  0.00    -0.648 OA
BRANCH   6   8
HETATM    8  O   UNK N   1      35.024  19.071   8.446  0.00  0.00    -0.775 OA
HETATM    9  H   UNK N   1      34.749  19.375   9.289  0.00  0.00     0.167 HD
ENDBRANCH   6   8
ENDBRANCH   2   6
ENDBRANCH   1   2
BRANCH   1  10
HETATM   10  C   UNK N   1      34.565  15.543  10.177  0.00  0.00     0.028 A 
HETATM   11  N   UNK N   1      34.247  14.585  11.061  0.00  0.00    -0.354 N 
HETATM   12  C   UNK N   1      35.191  14.662  12.020  0.00  0.00     0.180 A 
HETATM   13  H   UNK N   1      33.488  13.959  11.017  0.00  0.00     0.166 HD
HETATM   14  N   UNK N   1      36.085  15.638  11.762  0.00  0.00    -0.360 N 
HETATM   15  C   UNK N   1      35.698  16.197  10.602  0.00  0.00     0.114 A 
ATOM     16  HN  UNK N   1      36.891  15.898  12.331  1.00  0.00     0.166 HD
ENDBRANCH   1  10
TORSDOF 5
ENDMDL
MODEL 6
REMARK VINA RESULT:      -4.4      2.236      2.585
REMARK  5 active torsions:
REMARK  status: ('A' for Active; 'I' for Inactive)
REMARK    1  A    between atoms: O_1  and  C_10 
REMARK    2  A    between atoms: C_8  and  N_4 
REMARK    3  A    between atoms: C_7  and  C_8 
REMARK    4  A    between atoms: C_7  and  C_9 
REMARK    5  A    between atoms: C_8  and  C_10 
ROOT
HETATM    1  C   UNK N   1      34.016  15.286   8.818  0.00  0.00     0.093 C 
ENDROOT
BRANCH   1   2
HETATM    2  C   UNK N   1      34.614  15.415  10.223  0.00  0.00     0.178 C 
BRANCH   2   3
HETATM    3  N   UNK N   1      34.169  14.578  11.327  0.00  0.00    -0.417 N 
HETATM    4  H   UNK N   1      34.785  13.856  11.701  0.00  0.00     0.150 HD
HETATM    5  H   UNK N   1      33.240  14.713  11.727  0.00  0.00     0.150 HD
ENDBRANCH   2   3
BRANCH   2   6
HETATM    6  C   UNK N   1      35.686  16.421  10.495  0.00  0.00     0.163 C 
HETATM    7  O   UNK N   1      35.463  17.609  10.329  0.00  0.00    -0.648 OA
BRANCH   6   8
HETATM    8  O   UNK N   1      36.898  16.022  10.924  0.00  0.00    -0.775 OA
HETATM    9  H   UNK N   1      37.547  16.659  11.151  0.00  0.00     0.167 HD
ENDBRANCH   6   8
ENDBRANCH   2   6
ENDBRANCH   1   2
BRANCH   1  10
HETATM   10  C   UNK N   1      32.808  16.105   8.476  0.00  0.00     0.028 A 
HETATM   11  N   UNK N   1      32.607  17.331   8.982  0.00  0.00    -0.354 N 
HETATM   12  C   UNK N   1      31.437  17.742   8.454  0.00  0.00     0.180 A 
HETATM   13  H   UNK N   1      33.189  17.824   9.605  0.00  0.00     0.166 HD
HETATM   14  N   UNK N   1      30.904  16.812   7.637  0.00  0.00    -0.360 N 
HETATM   15  C   UNK N   1      31.762  15.777   7.645  0.00  0.00     0.114 A 
ATOM     16  HN  UNK N   1      30.029  16.880   7.118  1.00  0.00     0.166 HD
ENDBRANCH   1  10
TORSDOF 5
ENDMDL
MODEL 7
REMARK VINA RESULT:      -4.3     11.489     12.042
REMARK  5 active torsions:
REMARK  status: ('A' for Active; 'I' for Inactive)
REMARK    1  A    between atoms: O_1  and  C_10 
REMARK    2  A    between atoms: C_8  and  N_4 
REMARK    3  A    between atoms: C_7  and  C_8 
REMARK    4  A    between atoms: C_7  and  C_9 
REMARK    5  A    between atoms: C_8  and  C_10 
ROOT
HETATM    1  C   UNK N   1      22.601  12.318   9.867  0.00  0.00     0.093 C 
ENDROOT
BRANCH   1   2
HETATM    2  C   UNK N   1      22.266  12.049  11.338  0.00  0.00     0.178 C 
BRANCH   2   3
HETATM    3  N   UNK N   1      20.897  11.838  11.787  0.00  0.00    -0.417 N 
HETATM    4  H   UNK N   1      20.332  11.097  11.372  0.00  0.00     0.150 HD
HETATM    5  H   UNK N   1      20.504  12.431  12.518  0.00  0.00     0.150 HD
ENDBRANCH   2   3
BRANCH   2   6
HETATM    6  C   UNK N   1      23.354  11.998  12.361  0.00  0.00     0.163 C 
HETATM    7  O   UNK N   1      23.088  11.722  13.520  0.00  0.00    -0.648 OA
BRANCH   6   8
HETATM    8  O   UNK N   1      24.628  12.255  12.011  0.00  0.00    -0.775 OA
HETATM    9  H   UNK N   1      25.324  12.084  12.615  0.00  0.00     0.167 HD
ENDBRANCH   6   8
ENDBRANCH   2   6
ENDBRANCH   1   2
BRANCH   1  10
HETATM   10  C   UNK N   1      21.739  13.273   9.099  0.00  0.00     0.028 A 
HETATM   11  N   UNK N   1      21.317  14.435   9.621  0.00  0.00    -0.354 N 
HETATM   12  C   UNK N   1      20.580  15.010   8.650  0.00  0.00     0.180 A 
HETATM   13  H   UNK N   1      21.505  14.791  10.519  0.00  0.00     0.166 HD
HETATM   14  N   UNK N   1      20.530  14.244   7.541  0.00  0.00    -0.360 N 
HETATM   15  C   UNK N   1      21.259  13.148   7.816  0.00  0.00     0.114 A 
ATOM     16  HN  UNK N   1      20.040  14.454   6.672  1.00  0.00     0.166 HD
ENDBRANCH   1  10
TORSDOF 5
ENDMDL
MODEL 8
REMARK VINA RESULT:      -4.2     16.589     17.904
REMARK  5 active torsions:
REMARK  status: ('A' for Active; 'I' for Inactive)
REMARK    1  A    between atoms: O_1  and  C_10 
REMARK    2  A    between atoms: C_8  and  N_4 
REMARK    3  A    between atoms: C_7  and  C_8 
REMARK    4  A    between atoms: C_7  and  C_9 
REMARK    5  A    between atoms: C_8  and  C_10 
ROOT
HETATM    1  C   UNK N   1      25.068  26.995  -5.816  0.00  0.00     0.093 C 
ENDROOT
BRANCH   1   2
HETATM    2  C   UNK N   1      26.035  28.028  -5.229  0.00  0.00     0.178 C 
BRANCH   2   3
HETATM    3  N   UNK N   1      27.173  28.531  -5.984  0.00  0.00    -0.417 N 
HETATM    4  H   UNK N   1      27.654  27.924  -6.648  0.00  0.00     0.150 HD
HETATM    5  H   UNK N   1      27.491  29.491  -5.849  0.00  0.00     0.150 HD
ENDBRANCH   2   3
BRANCH   2   6
HETATM    6  C   UNK N   1      25.827  28.552  -3.844  0.00  0.00     0.163 C 
HETATM    7  O   UNK N   1      25.492  27.792  -2.950  0.00  0.00    -0.648 OA
BRANCH   6   8
HETATM    8  O   UNK N   1      26.009  29.858  -3.578  0.00  0.00    -0.775 OA
HETATM    9  H   UNK N   1      26.872  30.189  -3.421  0.00  0.00     0.167 HD
ENDBRANCH   6   8
ENDBRANCH   2   6
ENDBRANCH   1   2
BRANCH   1  10
HETATM   10  C   UNK N   1      25.486  25.556  -5.839  0.00  0.00     0.028 A 
HETATM   11  N   UNK N   1      25.480  24.826  -6.965  0.00  0.00    -0.354 N 
HETATM   12  C   UNK N   1      25.911  23.604  -6.596  0.00  0.00     0.180 A 
HETATM   13  H   UNK N   1      25.218  25.121  -7.867  0.00  0.00     0.166 HD
HETATM   14  N   UNK N   1      26.185  23.549  -5.276  0.00  0.00    -0.360 N 
HETATM   15  C   UNK N   1      25.919  24.776  -4.793  0.00  0.00     0.114 A 
ATOM     16  HN  UNK N   1      26.524  22.742  -4.753  1.00  0.00     0.166 HD
ENDBRANCH   1  10
TORSDOF 5
ENDMDL
MODEL 9
REMARK VINA RESULT:      -4.0     11.454     12.984
REMARK  5 active torsions:
REMARK  status: ('A' for Active; 'I' for Inactive)
REMARK    1  A    between atoms: O_1  and  C_10 
REMARK    2  A    between atoms: C_8  and  N_4 
REMARK    3  A    between atoms: C_7  and  C_8 
REMARK    4  A    between atoms: C_7  and  C_9 
REMARK    5  A    between atoms: C_8  and  C_10 
ROOT
HETATM    1  C   UNK N   1      43.681  21.936   2.312  0.00  0.00     0.093 C 
ENDROOT
BRANCH   1   2
HETATM    2  C   UNK N   1      44.070  23.268   2.961  0.00  0.00     0.178 C 
BRANCH   2   3
HETATM    3  N   UNK N   1      43.493  23.705   4.224  0.00  0.00    -0.417 N 
HETATM    4  H   UNK N   1      43.392  24.700   4.422  0.00  0.00     0.150 HD
HETATM    5  H   UNK N   1      43.191  23.014   4.911  0.00  0.00     0.150 HD
ENDBRANCH   2   3
BRANCH   2   6
HETATM    6  C   UNK N   1      45.067  24.165   2.300  0.00  0.00     0.163 C 
HETATM    7  O   UNK N   1      45.257  25.290   2.735  0.00  0.00    -0.648 OA
BRANCH   6   8
HETATM    8  O   UNK N   1      45.757  23.739   1.226  0.00  0.00    -0.775 OA
HETATM    9  H   UNK N   1      46.473  24.246   0.898  0.00  0.00     0.167 HD
ENDBRANCH   6   8
ENDBRANCH   2   6
ENDBRANCH   1   2
BRANCH   1  10
HETATM   10  C   UNK N   1      42.308  21.391   2.563  0.00  0.00     0.028 A 
HETATM   11  N   UNK N   1      41.209  21.938   2.021  0.00  0.00    -0.354 N 
HETATM   12  C   UNK N   1      40.184  21.187   2.469  0.00  0.00     0.180 A 
HETATM   13  H   UNK N   1      41.163  22.720   1.425  0.00  0.00     0.166 HD
HETATM   14  N   UNK N   1      40.608  20.190   3.272  0.00  0.00    -0.360 N 
HETATM   15  C   UNK N   1      41.946  20.312   3.336  0.00  0.00     0.114 A 
ATOM     16  HN  UNK N   1      40.032  19.488   3.736  1.00  0.00     0.166 HD
ENDBRANCH   1  10
TORSDOF 5
ENDMDL
