MODEL 1
REMARK VINA RESULT:      -5.4      0.000      0.000
REMARK  5 active torsions:
REMARK  status: ('A' for Active; 'I' for Inactive)
REMARK    1  A    between atoms: O_1  and  C_9 
REMARK    2  A    between atoms: C_5  and  N_3 
REMARK    3  A    between atoms: C_4  and  C_5 
REMARK    4  A    between atoms: C_4  and  C_6 
REMARK    5  A    between atoms: C_5  and  C_9 
ROOT
HETATM    1  C   UNK N   1      33.300  17.673   8.714  0.00  0.00     0.177 C 
ENDROOT
BRANCH   1   2
HETATM    2  N   UNK N   1      33.881  16.659   9.579  0.00  0.00    -0.417 N 
HETATM    3  H   UNK N   1      34.847  16.428   9.810  0.00  0.00     0.150 HD
HETATM    4  H   UNK N   1      33.192  16.067  10.044  0.00  0.00     0.150 HD
ENDBRANCH   1   2
BRANCH   1   5
HETATM    5  C   UNK N   1      32.225  17.067   7.795  0.00  0.00     0.074 C 
BRANCH   5   6
HETATM    6  C   UNK N   1      30.792  17.473   8.014  0.00  0.00    -0.056 A 
HETATM    7  C   UNK N   1      29.782  17.224   7.071  0.00  0.00     0.007 A 
HETATM    8  C   UNK N   1      28.476  17.670   7.302  0.00  0.00     0.001 A 
HETATM    9  C   UNK N   1      28.172  18.362   8.477  0.00  0.00     0.000 A 
HETATM   10  C   UNK N   1      29.171  18.604   9.423  0.00  0.00     0.001 A 
HETATM   11  C   UNK N   1      30.476  18.165   9.189  0.00  0.00     0.007 A 
ENDBRANCH   5   6
ENDBRANCH   1   5
BRANCH   1  12
HETATM   12  C   UNK N   1      34.408  18.300   7.907  0.00  0.00     0.163 C 
HETATM   13  O   UNK N   1      34.562  18.022   6.727  0.00  0.00    -0.648 OA
BRANCH  12  14
HETATM   14  O   UNK N   1      35.258  19.159   8.500  0.00  0.00    -0.775 OA
HETATM   15  H   UNK N   1      34.940  19.909   8.963  0.00  0.00     0.167 HD
ENDBRANCH  12  14
ENDBRANCH   1  12
TORSDOF 5
ENDMDL
MODEL 2
REMARK VINA RESULT:      -5.4      0.153      1.398
REMARK  5 active torsions:
REMARK  status: ('A' for Active; 'I' for Inactive)
REMARK    1  A    between atoms: O_1  and  C_9 
REMARK    2  A    between atoms: C_5  and  N_3 
REMARK    3  A    between atoms: C_4  and  C_5 
REMARK    4  A    between atoms: C_4  and  C_6 
REMARK    5  A    between atoms: C_5  and  C_9 
ROOT
HETATM    1  C   UNK N   1      33.328  17.677   8.737  0.00  0.00     0.177 C 
ENDROOT
BRANCH   1   2
HETATM    2  N   UNK N   1      33.908  16.648   9.583  0.00  0.00    -0.417 N 
HETATM    3  H   UNK N   1      33.554  16.155  10.403  0.00  0.00     0.150 HD
HETATM    4  H   UNK N   1      34.848  16.364   9.305  0.00  0.00     0.150 HD
ENDBRANCH   1   2
BRANCH   1   5
HETATM    5  C   UNK N   1      32.235  17.094   7.824  0.00  0.00     0.074 C 
BRANCH   5   6
HETATM    6  C   UNK N   1      30.807  17.499   8.079  0.00  0.00    -0.056 A 
HETATM    7  C   UNK N   1      30.428  18.282   9.181  0.00  0.00     0.007 A 
HETATM    8  C   UNK N   1      29.080  18.586   9.400  0.00  0.00     0.001 A 
HETATM    9  C   UNK N   1      28.105  18.113   8.518  0.00  0.00     0.000 A 
HETATM   10  C   UNK N   1      28.478  17.342   7.414  0.00  0.00     0.001 A 
HETATM   11  C   UNK N   1      29.823  17.033   7.199  0.00  0.00     0.007 A 
ENDBRANCH   5   6
ENDBRANCH   1   5
BRANCH   1  12
HETATM   12  C   UNK N   1      34.433  18.301   7.922  0.00  0.00     0.163 C 
HETATM   13  O   UNK N   1      34.591  18.006   6.747  0.00  0.00    -0.648 OA
BRANCH  12  14
HETATM   14  O   UNK N   1      35.276  19.175   8.505  0.00  0.00    -0.775 OA
HETATM   15  H   UNK N   1      35.582  19.037   9.379  0.00  0.00     0.167 HD
ENDBRANCH  12  14
ENDBRANCH   1  12
TORSDOF 5
ENDMDL
MODEL 3
REMARK VINA RESULT:      -5.3      9.394     10.619
REMARK  5 active torsions:
REMARK  status: ('A' for Active; 'I' for Inactive)
REMARK    1  A    between atoms: O_1  and  C_9 
REMARK    2  A    between atoms: C_5  and  N_3 
REMARK    3  A    between atoms: C_4  and  C_5 
REMARK    4  A    between atoms: C_4  and  C_6 
REMARK    5  A    between atoms: C_5  and  C_9 
ROOT
HETATM    1  C   UNK N   1      36.198  13.704  14.675  0.00  0.00     0.177 C 
ENDROOT
BRANCH   1   2
HETATM    2  N   UNK N   1      37.527  13.141  14.848  0.00  0.00    -0.417 N 
HETATM    3  H   UNK N   1      38.332  13.442  15.397  0.00  0.00     0.150 HD
HETATM    4  H   UNK N   1      37.685  12.283  14.318  0.00  0.00     0.150 HD
ENDBRANCH   1   2
BRANCH   1   5
HETATM    5  C   UNK N   1      35.125  12.798  15.304  0.00  0.00     0.074 C 
BRANCH   5   6
HETATM    6  C   UNK N   1      35.170  12.573  16.792  0.00  0.00    -0.056 A 
HETATM    7  C   UNK N   1      35.079  13.625  17.719  0.00  0.00     0.007 A 
HETATM    8  C   UNK N   1      35.179  13.366  19.090  0.00  0.00     0.001 A 
HETATM    9  C   UNK N   1      35.365  12.058  19.543  0.00  0.00     0.000 A 
HETATM   10  C   UNK N   1      35.446  11.007  18.626  0.00  0.00     0.001 A 
HETATM   11  C   UNK N   1      35.353  11.266  17.256  0.00  0.00     0.007 A 
ENDBRANCH   5   6
ENDBRANCH   1   5
BRANCH   1  12
HETATM   12  C   UNK N   1      35.948  13.889  13.199  0.00  0.00     0.163 C 
HETATM   13  O   UNK N   1      34.811  13.947  12.756  0.00  0.00    -0.648 OA
BRANCH  12  14
HETATM   14  O   UNK N   1      36.993  13.962  12.353  0.00  0.00    -0.775 OA
HETATM   15  H   UNK N   1      37.691  13.339  12.395  0.00  0.00     0.167 HD
ENDBRANCH  12  14
ENDBRANCH   1  12
TORSDOF 5
ENDMDL
MODEL 4
REMARK VINA RESULT:      -5.2      9.404     10.582
REMARK  5 active torsions:
REMARK  status: ('A' for Active; 'I' for Inactive)
REMARK    1  A    between atoms: O_1  and  C_9 
REMARK    2  A    between atoms: C_5  and  N_3 
REMARK    3  A    between atoms: C_4  and  C_5 
REMARK    4  A    between atoms: C_4  and  C_6 
REMARK    5  A    between atoms: C_5  and  C_9 
ROOT
HETATM    1  C   UNK N   1      36.219  13.725  14.714  0.00  0.00     0.177 C 
ENDROOT
BRANCH   1   2
HETATM    2  N   UNK N   1      37.483  13.010  14.746  0.00  0.00    -0.417 N 
HETATM    3  H   UNK N   1      38.055  12.663  15.517  0.00  0.00     0.150 HD
HETATM    4  H   UNK N   1      37.874  12.818  13.823  0.00  0.00     0.150 HD
ENDBRANCH   1   2
BRANCH   1   5
HETATM    5  C   UNK N   1      35.092  12.889  15.346  0.00  0.00     0.074 C 
BRANCH   5   6
HETATM    6  C   UNK N   1      35.218  12.512  16.798  0.00  0.00    -0.056 A 
HETATM    7  C   UNK N   1      35.381  11.183  17.223  0.00  0.00     0.007 A 
HETATM    8  C   UNK N   1      35.440  10.882  18.589  0.00  0.00     0.001 A 
HETATM    9  C   UNK N   1      35.341  11.905  19.535  0.00  0.00     0.000 A 
HETATM   10  C   UNK N   1      35.188  13.230  19.117  0.00  0.00     0.001 A 
HETATM   11  C   UNK N   1      35.122  13.530  17.754  0.00  0.00     0.007 A 
ENDBRANCH   5   6
ENDBRANCH   1   5
BRANCH   1  12
HETATM   12  C   UNK N   1      35.899  14.060  13.279  0.00  0.00     0.163 C 
HETATM   13  O   UNK N   1      34.802  13.810  12.804  0.00  0.00    -0.648 OA
BRANCH  12  14
HETATM   14  O   UNK N   1      36.845  14.618  12.500  0.00  0.00    -0.775 OA
HETATM   15  H   UNK N   1      36.751  14.639  11.568  0.00  0.00     0.167 HD
ENDBRANCH  12  14
ENDBRANCH   1  12
TORSDOF 5
ENDMDL
MODEL 5
REMARK VINA RESULT:      -5.1     10.134     11.821
REMARK  5 active torsions:
REMARK  status: ('A' for Active; 'I' for Inactive)
REMARK    1  A    between atoms: O_1  and  C_9 
REMARK    2  A    between atoms: C_5  and  N_3 
REMARK    3  A    between atoms: C_4  and  C_5 
REMARK    4  A    between atoms: C_4  and  C_6 
REMARK    5  A    between atoms: C_5  and  C_9 
ROOT
HETATM    1  C   UNK N   1      20.815  19.506   2.077  0.00  0.00     0.177 C 
ENDROOT
BRANCH   1   2
HETATM    2  N   UNK N   1      19.414  19.190   2.300  0.00  0.00    -0.417 N 
HETATM    3  H   UNK N   1      18.612  19.155   1.672  0.00  0.00     0.150 HD
HETATM    4  H   UNK N   1      19.191  18.959   3.269  0.00  0.00     0.150 HD
ENDBRANCH   1   2
BRANCH   1   5
HETATM    5  C   UNK N   1      21.547  19.753   3.408  0.00  0.00     0.074 C 
BRANCH   5   6
HETATM    6  C   UNK N   1      23.031  19.507   3.458  0.00  0.00    -0.056 A 
HETATM    7  C   UNK N   1      23.587  18.343   4.014  0.00  0.00     0.007 A 
HETATM    8  C   UNK N   1      24.976  18.188   4.083  0.00  0.00     0.001 A 
HETATM    9  C   UNK N   1      25.816  19.192   3.594  0.00  0.00     0.000 A 
HETATM   10  C   UNK N   1      25.268  20.348   3.032  0.00  0.00     0.001 A 
HETATM   11  C   UNK N   1      23.881  20.505   2.969  0.00  0.00     0.007 A 
ENDBRANCH   5   6
ENDBRANCH   1   5
BRANCH   1  12
HETATM   12  C   UNK N   1      20.893  20.720   1.187  0.00  0.00     0.163 C 
HETATM   13  O   UNK N   1      21.052  20.607  -0.019  0.00  0.00    -0.648 OA
BRANCH  12  14
HETATM   14  O   UNK N   1      20.813  21.949   1.731  0.00  0.00    -0.775 OA
HETATM   15  H   UNK N   1      21.477  22.590   1.571  0.00  0.00     0.167 HD
ENDBRANCH  12  14
ENDBRANCH   1  12
TORSDOF 5
ENDMDL
MODEL 6
REMARK VINA RESULT:      -4.8      3.859      5.335
REMARK  5 active torsions:
REMARK  status: ('A' for Active; 'I' for Inactive)
REMARK    1  A    between atoms: O_1  and  C_9 
REMARK    2  A    between atoms: C_5  and  N_3 
REMARK    3  A    between atoms: C_4  and  C_5 
REMARK    4  A    between atoms: C_4  and  C_6 
REMARK    5  A    between atoms: C_5  and  C_9 
ROOT
HETATM    1  C   UNK N   1      28.734  18.279   7.387  0.00  0.00     0.177 C 
ENDROOT
BRANCH   1   2
HETATM    2  N   UNK N   1      27.405  18.289   6.799  0.00  0.00    -0.417 N 
HETATM    3  H   UNK N   1      26.713  19.029   6.684  0.00  0.00     0.150 HD
HETATM    4  H   UNK N   1      27.108  17.384   6.432  0.00  0.00     0.150 HD
ENDBRANCH   1   2
BRANCH   1   5
HETATM    5  C   UNK N   1      29.505  17.006   6.995  0.00  0.00     0.074 C 
BRANCH   5   6
HETATM    6  C   UNK N   1      30.847  17.165   6.330  0.00  0.00    -0.056 A 
HETATM    7  C   UNK N   1      32.049  17.214   7.054  0.00  0.00     0.007 A 
HETATM    8  C   UNK N   1      33.264  17.416   6.390  0.00  0.00     0.001 A 
HETATM    9  C   UNK N   1      33.285  17.565   5.001  0.00  0.00     0.000 A 
HETATM   10  C   UNK N   1      32.092  17.508   4.275  0.00  0.00     0.001 A 
HETATM   11  C   UNK N   1      30.878  17.313   4.939  0.00  0.00     0.007 A 
ENDBRANCH   5   6
ENDBRANCH   1   5
BRANCH   1  12
HETATM   12  C   UNK N   1      28.592  18.383   8.884  0.00  0.00     0.163 C 
HETATM   13  O   UNK N   1      29.546  18.681   9.588  0.00  0.00    -0.648 OA
BRANCH  12  14
HETATM   14  O   UNK N   1      27.404  18.115   9.459  0.00  0.00    -0.775 OA
HETATM   15  H   UNK N   1      27.358  17.754  10.322  0.00  0.00     0.167 HD
ENDBRANCH  12  14
ENDBRANCH   1  12
TORSDOF 5
ENDMDL
MODEL 7
REMARK VINA RESULT:      -4.8      9.964     11.266
REMARK  5 active torsions:
REMARK  status: ('A' for Active; 'I' for Inactive)
REMARK    1  A    between atoms: O_1  and  C_9 
REMARK    2  A    between atoms: C_5  and  N_3 
REMARK    3  A    between atoms: C_4  and  C_5 
REMARK    4  A    between atoms: C_4  and  C_6 
REMARK    5  A    between atoms: C_5  and  C_9 
ROOT
HETATM    1  C   UNK N   1      36.848  13.680  15.253  0.00  0.00     0.177 C 
ENDROOT
BRANCH   1   2
HETATM    2  N   UNK N   1      36.820  13.539  13.807  0.00  0.00    -0.417 N 
HETATM    3  H   UNK N   1      36.097  13.731  13.114  0.00  0.00     0.150 HD
HETATM    4  H   UNK N   1      37.689  13.180  13.409  0.00  0.00     0.150 HD
ENDBRANCH   1   2
BRANCH   1   5
HETATM    5  C   UNK N   1      35.474  13.359  15.868  0.00  0.00     0.074 C 
BRANCH   5   6
HETATM    6  C   UNK N   1      35.439  12.630  17.185  0.00  0.00    -0.056 A 
HETATM    7  C   UNK N   1      35.182  13.281  18.403  0.00  0.00     0.007 A 
HETATM    8  C   UNK N   1      35.213  12.565  19.605  0.00  0.00     0.001 A 
HETATM    9  C   UNK N   1      35.495  11.196  19.595  0.00  0.00     0.000 A 
HETATM   10  C   UNK N   1      35.742  10.542  18.386  0.00  0.00     0.001 A 
HETATM   11  C   UNK N   1      35.718  11.259  17.186  0.00  0.00     0.007 A 
ENDBRANCH   5   6
ENDBRANCH   1   5
BRANCH   1  12
HETATM   12  C   UNK N   1      37.271  15.088  15.586  0.00  0.00     0.163 C 
HETATM   13  O   UNK N   1      37.511  15.417  16.737  0.00  0.00    -0.648 OA
BRANCH  12  14
HETATM   14  O   UNK N   1      37.359  16.005  14.603  0.00  0.00    -0.775 OA
HETATM   15  H   UNK N   1      36.644  16.581  14.418  0.00  0.00     0.167 HD
ENDBRANCH  12  14
ENDBRANCH   1  12
TORSDOF 5
ENDMDL
MODEL 8
REMARK VINA RESULT:      -4.7      3.868      5.032
REMARK  5 active torsions:
REMARK  status: ('A' for Active; 'I' for Inactive)
REMARK    1  A    between atoms: O_1  and  C_9 
REMARK    2  A    between atoms: C_5  and  N_3 
REMARK    3  A    between atoms: C_4  and  C_5 
REMARK    4  A    between atoms: C_4  and  C_6 
REMARK    5  A    between atoms: C_5  and  C_9 
ROOT
HETATM    1  C   UNK N   1      28.299  18.241   8.685  0.00  0.00     0.177 C 
ENDROOT
BRANCH   1   2
HETATM    2  N   UNK N   1      27.476  17.084   8.996  0.00  0.00    -0.417 N 
HETATM    3  H   UNK N   1      26.506  16.995   9.299  0.00  0.00     0.150 HD
HETATM    4  H   UNK N   1      27.960  16.192   8.894  0.00  0.00     0.150 HD
ENDBRANCH   1   2
BRANCH   1   5
HETATM    5  C   UNK N   1      28.741  18.226   7.211  0.00  0.00     0.074 C 
BRANCH   5   6
HETATM    6  C   UNK N   1      28.020  19.128   6.245  0.00  0.00    -0.056 A 
HETATM    7  C   UNK N   1      27.327  20.278   6.657  0.00  0.00     0.007 A 
HETATM    8  C   UNK N   1      26.629  21.053   5.724  0.00  0.00     0.001 A 
HETATM    9  C   UNK N   1      26.623  20.685   4.375  0.00  0.00     0.000 A 
HETATM   10  C   UNK N   1      27.319  19.548   3.959  0.00  0.00     0.001 A 
HETATM   11  C   UNK N   1      28.010  18.770   4.892  0.00  0.00     0.007 A 
ENDBRANCH   5   6
ENDBRANCH   1   5
BRANCH   1  12
HETATM   12  C   UNK N   1      29.494  18.235   9.605  0.00  0.00     0.163 C 
HETATM   13  O   UNK N   1      30.375  19.074   9.496  0.00  0.00    -0.648 OA
BRANCH  12  14
HETATM   14  O   UNK N   1      29.606  17.275  10.542  0.00  0.00    -0.775 OA
HETATM   15  H   UNK N   1      29.877  17.484  11.414  0.00  0.00     0.167 HD
ENDBRANCH  12  14
ENDBRANCH   1  12
TORSDOF 5
ENDMDL
MODEL 9
REMARK VINA RESULT:      -4.6     10.203     11.834
REMARK  5 active torsions:
REMARK  status: ('A' for Active; 'I' for Inactive)
REMARK    1  A    between atoms: O_1  and  C_9 
REMARK    2  A    between atoms: C_5  and  N_3 
REMARK    3  A    between atoms: C_4  and  C_5 
REMARK    4  A    between atoms: C_4  and  C_6 
REMARK    5  A    between atoms: C_5  and  C_9 
ROOT
HETATM    1  C   UNK N   1      20.771  19.486   2.098  0.00  0.00     0.177 C 
ENDROOT
BRANCH   1   2
HETATM    2  N   UNK N   1      19.359  19.227   2.326  0.00  0.00    -0.417 N 
HETATM    3  H   UNK N   1      18.868  18.456   2.777  0.00  0.00     0.150 HD
HETATM    4  H   UNK N   1      18.742  19.956   1.965  0.00  0.00     0.150 HD
ENDBRANCH   1   2
BRANCH   1   5
HETATM    5  C   UNK N   1      21.510  19.735   3.424  0.00  0.00     0.074 C 
BRANCH   5   6
HETATM    6  C   UNK N   1      22.816  19.020   3.654  0.00  0.00    -0.056 A 
HETATM    7  C   UNK N   1      24.060  19.661   3.537  0.00  0.00     0.007 A 
HETATM    8  C   UNK N   1      25.245  18.937   3.710  0.00  0.00     0.001 A 
HETATM    9  C   UNK N   1      25.193  17.572   4.004  0.00  0.00     0.000 A 
HETATM   10  C   UNK N   1      23.958  16.932   4.131  0.00  0.00     0.001 A 
HETATM   11  C   UNK N   1      22.775  17.653   3.952  0.00  0.00     0.007 A 
ENDBRANCH   5   6
ENDBRANCH   1   5
BRANCH   1  12
HETATM   12  C   UNK N   1      20.894  20.677   1.182  0.00  0.00     0.163 C 
HETATM   13  O   UNK N   1      21.144  20.535  -0.005  0.00  0.00    -0.648 OA
BRANCH  12  14
HETATM   14  O   UNK N   1      20.755  21.919   1.684  0.00  0.00    -0.775 OA
HETATM   15  H   UNK N   1      20.967  22.673   1.170  0.00  0.00     0.167 HD
ENDBRANCH  12  14
ENDBRANCH   1  12
TORSDOF 5
ENDMDL
