MODEL 1
REMARK VINA RESULT:      -5.5      0.000      0.000
REMARK  6 active torsions:
REMARK  status: ('A' for Active; 'I' for Inactive)
REMARK    1  A    between atoms: O_3  and  C_16 
REMARK    2  A    between atoms: C_9  and  C_11 
REMARK    3  A    between atoms: C_11  and  C_12 
REMARK    4  A    between atoms: C_12  and  C_14 
REMARK    5  A    between atoms: C_14  and  C_15 
REMARK    6  A    between atoms: C_15  and  C_16 
ROOT
HETATM    1  S   UNK N   1      29.048  16.579   6.077  0.00  0.00    -0.160 SA
HETATM    2  O   UNK N   1      26.205  21.616   6.580  0.00  0.00    -0.247 OA
HETATM    3  N   UNK N   1      27.386  19.930   7.508  0.00  0.00    -0.335 N 
HETATM    4  N   UNK N   1      26.871  19.861   5.321  0.00  0.00    -0.336 N 
HETATM    5  C   UNK N   1      28.160  18.870   6.925  0.00  0.00     0.123 C 
HETATM    6  C   UNK N   1      27.392  18.563   5.662  0.00  0.00     0.119 C 
HETATM    7  C   UNK N   1      28.406  17.527   7.547  0.00  0.00     0.072 C 
HETATM    8  C   UNK N   1      28.398  17.809   4.841  0.00  0.00     0.101 C 
HETATM    9  C   UNK N   1      26.780  20.544   6.477  0.00  0.00     0.316 C 
HETATM   10  H   UNK N   1      27.315  20.159   8.463  0.00  0.00     0.164 HD
HETATM   11  H   UNK N   1      26.630  20.184   4.423  0.00  0.00     0.164 HD
ENDROOT
BRANCH   7  12
HETATM   12  C   UNK N   1      29.454  17.707   8.636  0.00  0.00     0.017 C 
BRANCH  12  13
HETATM   13  C   UNK N   1      30.772  17.041   8.310  0.00  0.00     0.002 C 
BRANCH  13  14
HETATM   14  C   UNK N   1      31.856  18.075   8.508  0.00  0.00     0.010 C 
BRANCH  14  15
HETATM   15  C   UNK N   1      33.220  17.415   8.590  0.00  0.00     0.110 C 
BRANCH  15  16
HETATM   16  C   UNK N   1      34.259  18.177   7.819  0.00  0.00     0.139 C 
HETATM   17  O   UNK N   1      34.909  19.068   8.346  0.00  0.00    -0.650 OA
BRANCH  16  18
HETATM   18  O   UNK N   1      34.490  17.860   6.532  0.00  0.00    -0.776 OA
HETATM   19  H   UNK N   1      35.196  17.287   6.309  0.00  0.00     0.167 HD
ENDBRANCH  16  18
ENDBRANCH  15  16
ENDBRANCH  14  15
ENDBRANCH  13  14
ENDBRANCH  12  13
ENDBRANCH   7  12
TORSDOF 6
ENDMDL
MODEL 2
REMARK VINA RESULT:      -5.3      4.439      7.567
REMARK  6 active torsions:
REMARK  status: ('A' for Active; 'I' for Inactive)
REMARK    1  A    between atoms: O_3  and  C_16 
REMARK    2  A    between atoms: C_9  and  C_11 
REMARK    3  A    between atoms: C_11  and  C_12 
REMARK    4  A    between atoms: C_12  and  C_14 
REMARK    5  A    between atoms: C_14  and  C_15 
REMARK    6  A    between atoms: C_15  and  C_16 
ROOT
HETATM    1  S   UNK N   1      34.131  16.011   6.672  0.00  0.00    -0.160 SA
HETATM    2  O   UNK N   1      35.929  15.749  12.186  0.00  0.00    -0.247 OA
HETATM    3  N   UNK N   1      34.919  16.867  10.504  0.00  0.00    -0.335 N 
HETATM    4  N   UNK N   1      35.800  14.834  10.123  0.00  0.00    -0.336 N 
HETATM    5  C   UNK N   1      34.451  16.438   9.215  0.00  0.00     0.123 C 
HETATM    6  C   UNK N   1      35.462  15.383   8.836  0.00  0.00     0.119 C 
HETATM    7  C   UNK N   1      34.341  17.304   7.995  0.00  0.00     0.072 C 
HETATM    8  C   UNK N   1      34.756  14.628   7.748  0.00  0.00     0.101 C 
HETATM    9  C   UNK N   1      35.574  15.812  11.019  0.00  0.00     0.316 C 
HETATM   10  H   UNK N   1      34.788  17.748  10.922  0.00  0.00     0.164 HD
HETATM   11  H   UNK N   1      36.129  13.925  10.310  0.00  0.00     0.164 HD
ENDROOT
BRANCH   7  12
HETATM   12  C   UNK N   1      33.110  18.183   8.162  0.00  0.00     0.017 C 
BRANCH  12  13
HETATM   13  C   UNK N   1      31.893  17.419   8.635  0.00  0.00     0.002 C 
BRANCH  13  14
HETATM   14  C   UNK N   1      30.724  18.377   8.603  0.00  0.00     0.010 C 
BRANCH  14  15
HETATM   15  C   UNK N   1      29.464  17.671   8.138  0.00  0.00     0.110 C 
BRANCH  15  16
HETATM   16  C   UNK N   1      28.228  18.467   8.448  0.00  0.00     0.139 C 
HETATM   17  O   UNK N   1      27.975  19.497   7.842  0.00  0.00    -0.650 OA
BRANCH  16  18
HETATM   18  O   UNK N   1      27.381  18.028   9.394  0.00  0.00    -0.776 OA
HETATM   19  H   UNK N   1      27.185  18.566  10.135  0.00  0.00     0.167 HD
ENDBRANCH  16  18
ENDBRANCH  15  16
ENDBRANCH  14  15
ENDBRANCH  13  14
ENDBRANCH  12  13
ENDBRANCH   7  12
TORSDOF 6
ENDMDL
MODEL 3
REMARK VINA RESULT:      -5.2      8.659     10.884
REMARK  6 active torsions:
REMARK  status: ('A' for Active; 'I' for Inactive)
REMARK    1  A    between atoms: O_3  and  C_16 
REMARK    2  A    between atoms: C_9  and  C_11 
REMARK    3  A    between atoms: C_11  and  C_12 
REMARK    4  A    between atoms: C_12  and  C_14 
REMARK    5  A    between atoms: C_14  and  C_15 
REMARK    6  A    between atoms: C_15  and  C_16 
ROOT
HETATM    1  S   UNK N   1      34.977  11.412  12.239  0.00  0.00    -0.160 SA
HETATM    2  O   UNK N   1      36.232  16.863  10.685  0.00  0.00    -0.247 OA
HETATM    3  N   UNK N   1      36.366  15.168  12.170  0.00  0.00    -0.335 N 
HETATM    4  N   UNK N   1      35.179  14.904  10.280  0.00  0.00    -0.336 N 
HETATM    5  C   UNK N   1      36.055  13.770  12.058  0.00  0.00     0.123 C 
HETATM    6  C   UNK N   1      34.874  13.773  11.117  0.00  0.00     0.119 C 
HETATM    7  C   UNK N   1      35.629  12.878  13.186  0.00  0.00     0.072 C 
HETATM    8  C   UNK N   1      34.830  12.350  10.640  0.00  0.00     0.101 C 
HETATM    9  C   UNK N   1      35.946  15.725  11.022  0.00  0.00     0.316 C 
HETATM   10  H   UNK N   1      36.796  15.622  12.930  0.00  0.00     0.164 HD
HETATM   11  H   UNK N   1      34.886  15.048   9.351  0.00  0.00     0.164 HD
ENDROOT
BRANCH   7  12
HETATM   12  C   UNK N   1      36.867  12.547  14.007  0.00  0.00     0.017 C 
BRANCH  12  13
HETATM   13  C   UNK N   1      36.555  12.230  15.453  0.00  0.00     0.002 C 
BRANCH  13  14
HETATM   14  C   UNK N   1      35.843  13.432  16.030  0.00  0.00     0.010 C 
BRANCH  14  15
HETATM   15  C   UNK N   1      34.931  13.020  17.171  0.00  0.00     0.110 C 
BRANCH  15  16
HETATM   16  C   UNK N   1      35.256  13.753  18.441  0.00  0.00     0.139 C 
HETATM   17  O   UNK N   1      35.309  13.165  19.511  0.00  0.00    -0.650 OA
BRANCH  16  18
HETATM   18  O   UNK N   1      35.508  15.073  18.396  0.00  0.00    -0.776 OA
HETATM   19  H   UNK N   1      34.826  15.687  18.583  0.00  0.00     0.167 HD
ENDBRANCH  16  18
ENDBRANCH  15  16
ENDBRANCH  14  15
ENDBRANCH  13  14
ENDBRANCH  12  13
ENDBRANCH   7  12
TORSDOF 6
ENDMDL
MODEL 4
REMARK VINA RESULT:      -5.2      7.172      9.825
REMARK  6 active torsions:
REMARK  status: ('A' for Active; 'I' for Inactive)
REMARK    1  A    between atoms: O_3  and  C_16 
REMARK    2  A    between atoms: C_9  and  C_11 
REMARK    3  A    between atoms: C_11  and  C_12 
REMARK    4  A    between atoms: C_12  and  C_14 
REMARK    5  A    between atoms: C_14  and  C_15 
REMARK    6  A    between atoms: C_15  and  C_16 
ROOT
HETATM    1  S   UNK N   1      35.921  12.361  10.612  0.00  0.00    -0.160 SA
HETATM    2  O   UNK N   1      36.932  14.762  15.799  0.00  0.00    -0.247 OA
HETATM    3  N   UNK N   1      36.655  14.961  13.568  0.00  0.00    -0.335 N 
HETATM    4  N   UNK N   1      36.608  12.926  14.522  0.00  0.00    -0.336 N 
HETATM    5  C   UNK N   1      36.166  14.042  12.578  0.00  0.00     0.123 C 
HETATM    6  C   UNK N   1      36.655  12.712  13.099  0.00  0.00     0.119 C 
HETATM    7  C   UNK N   1      36.547  14.037  11.128  0.00  0.00     0.072 C 
HETATM    8  C   UNK N   1      35.793  11.731  12.358  0.00  0.00     0.101 C 
HETATM    9  C   UNK N   1      36.745  14.252  14.706  0.00  0.00     0.316 C 
HETATM   10  H   UNK N   1      36.879  15.911  13.439  0.00  0.00     0.164 HD
HETATM   11  H   UNK N   1      36.497  12.241  15.220  0.00  0.00     0.164 HD
ENDROOT
BRANCH   7  12
HETATM   12  C   UNK N   1      35.803  15.179  10.451  0.00  0.00     0.017 C 
BRANCH  12  13
HETATM   13  C   UNK N   1      34.853  14.712   9.370  0.00  0.00     0.002 C 
BRANCH  13  14
HETATM   14  C   UNK N   1      33.994  15.896   8.989  0.00  0.00     0.010 C 
BRANCH  14  15
HETATM   15  C   UNK N   1      34.629  17.193   9.455  0.00  0.00     0.110 C 
BRANCH  15  16
HETATM   16  C   UNK N   1      34.820  18.162   8.324  0.00  0.00     0.139 C 
HETATM   17  O   UNK N   1      34.483  17.876   7.185  0.00  0.00    -0.650 OA
BRANCH  16  18
HETATM   18  O   UNK N   1      35.356  19.370   8.573  0.00  0.00    -0.776 OA
HETATM   19  H   UNK N   1      34.960  19.938   9.204  0.00  0.00     0.167 HD
ENDBRANCH  16  18
ENDBRANCH  15  16
ENDBRANCH  14  15
ENDBRANCH  13  14
ENDBRANCH  12  13
ENDBRANCH   7  12
TORSDOF 6
ENDMDL
MODEL 5
REMARK VINA RESULT:      -5.2      2.458      2.999
REMARK  6 active torsions:
REMARK  status: ('A' for Active; 'I' for Inactive)
REMARK    1  A    between atoms: O_3  and  C_16 
REMARK    2  A    between atoms: C_9  and  C_11 
REMARK    3  A    between atoms: C_11  and  C_12 
REMARK    4  A    between atoms: C_12  and  C_14 
REMARK    5  A    between atoms: C_14  and  C_15 
REMARK    6  A    between atoms: C_15  and  C_16 
ROOT
HETATM    1  S   UNK N   1      28.382  17.421   4.449  0.00  0.00    -0.160 SA
HETATM    2  O   UNK N   1      29.277  18.697  10.041  0.00  0.00    -0.247 OA
HETATM    3  N   UNK N   1      29.813  17.524   8.188  0.00  0.00    -0.335 N 
HETATM    4  N   UNK N   1      28.078  18.953   8.142  0.00  0.00    -0.336 N 
HETATM    5  C   UNK N   1      29.432  17.682   6.812  0.00  0.00     0.123 C 
HETATM    6  C   UNK N   1      28.014  18.190   6.923  0.00  0.00     0.119 C 
HETATM    7  C   UNK N   1      29.354  16.580   5.797  0.00  0.00     0.072 C 
HETATM    8  C   UNK N   1      27.768  18.778   5.564  0.00  0.00     0.101 C 
HETATM    9  C   UNK N   1      29.071  18.411   8.872  0.00  0.00     0.316 C 
HETATM   10  H   UNK N   1      30.479  16.898   8.553  0.00  0.00     0.164 HD
HETATM   11  H   UNK N   1      27.511  19.718   8.391  0.00  0.00     0.164 HD
ENDROOT
BRANCH   7  12
HETATM   12  C   UNK N   1      30.775  16.239   5.375  0.00  0.00     0.017 C 
BRANCH  12  13
HETATM   13  C   UNK N   1      31.338  17.198   4.349  0.00  0.00     0.002 C 
BRANCH  13  14
HETATM   14  C   UNK N   1      32.691  17.647   4.852  0.00  0.00     0.010 C 
BRANCH  14  15
HETATM   15  C   UNK N   1      33.076  16.887   6.108  0.00  0.00     0.110 C 
BRANCH  15  16
HETATM   16  C   UNK N   1      33.543  17.807   7.199  0.00  0.00     0.139 C 
HETATM   17  O   UNK N   1      34.690  18.230   7.220  0.00  0.00    -0.650 OA
BRANCH  16  18
HETATM   18  O   UNK N   1      32.680  18.185   8.159  0.00  0.00    -0.776 OA
HETATM   19  H   UNK N   1      32.008  17.597   8.443  0.00  0.00     0.167 HD
ENDBRANCH  16  18
ENDBRANCH  15  16
ENDBRANCH  14  15
ENDBRANCH  13  14
ENDBRANCH  12  13
ENDBRANCH   7  12
TORSDOF 6
ENDMDL
MODEL 6
REMARK VINA RESULT:      -5.2     11.715     14.357
REMARK  6 active torsions:
REMARK  status: ('A' for Active; 'I' for Inactive)
REMARK    1  A    between atoms: O_3  and  C_16 
REMARK    2  A    between atoms: C_9  and  C_11 
REMARK    3  A    between atoms: C_11  and  C_12 
REMARK    4  A    between atoms: C_12  and  C_14 
REMARK    5  A    between atoms: C_14  and  C_15 
REMARK    6  A    between atoms: C_15  and  C_16 
ROOT
HETATM    1  S   UNK N   1      28.258  22.913  -6.824  0.00  0.00    -0.160 SA
HETATM    2  O   UNK N   1      30.470  23.071  -1.459  0.00  0.00    -0.247 OA
HETATM    3  N   UNK N   1      28.843  23.617  -2.925  0.00  0.00    -0.335 N 
HETATM    4  N   UNK N   1      30.650  22.484  -3.634  0.00  0.00    -0.336 N 
HETATM    5  C   UNK N   1      28.555  23.152  -4.253  0.00  0.00     0.123 C 
HETATM    6  C   UNK N   1      29.934  22.894  -4.814  0.00  0.00     0.119 C 
HETATM    7  C   UNK N   1      27.860  23.941  -5.323  0.00  0.00     0.072 C 
HETATM    8  C   UNK N   1      29.649  22.004  -5.988  0.00  0.00     0.101 C 
HETATM    9  C   UNK N   1      30.020  23.058  -2.593  0.00  0.00     0.316 C 
HETATM   10  H   UNK N   1      28.294  24.220  -2.374  0.00  0.00     0.164 HD
HETATM   11  H   UNK N   1      31.442  21.900  -3.597  0.00  0.00     0.164 HD
ENDROOT
BRANCH   7  12
HETATM   12  C   UNK N   1      26.374  23.956  -4.994  0.00  0.00     0.017 C 
BRANCH  12  13
HETATM   13  C   UNK N   1      25.649  25.150  -5.574  0.00  0.00     0.002 C 
BRANCH  13  14
HETATM   14  C   UNK N   1      26.447  26.379  -5.206  0.00  0.00     0.010 C 
BRANCH  14  15
HETATM   15  C   UNK N   1      25.538  27.585  -5.057  0.00  0.00     0.110 C 
BRANCH  15  16
HETATM   16  C   UNK N   1      25.754  28.292  -3.750  0.00  0.00     0.139 C 
HETATM   17  O   UNK N   1      25.808  27.671  -2.699  0.00  0.00    -0.650 OA
BRANCH  16  18
HETATM   18  O   UNK N   1      25.906  29.628  -3.739  0.00  0.00    -0.776 OA
HETATM   19  H   UNK N   1      25.552  30.135  -3.036  0.00  0.00     0.167 HD
ENDBRANCH  16  18
ENDBRANCH  15  16
ENDBRANCH  14  15
ENDBRANCH  13  14
ENDBRANCH  12  13
ENDBRANCH   7  12
TORSDOF 6
ENDMDL
MODEL 7
REMARK VINA RESULT:      -5.2      7.945      9.011
REMARK  6 active torsions:
REMARK  status: ('A' for Active; 'I' for Inactive)
REMARK    1  A    between atoms: O_3  and  C_16 
REMARK    2  A    between atoms: C_9  and  C_11 
REMARK    3  A    between atoms: C_11  and  C_12 
REMARK    4  A    between atoms: C_12  and  C_14 
REMARK    5  A    between atoms: C_14  and  C_15 
REMARK    6  A    between atoms: C_15  and  C_16 
ROOT
HETATM    1  S   UNK N   1      22.848  13.494   6.709  0.00  0.00    -0.160 SA
HETATM    2  O   UNK N   1      20.854  18.942   6.938  0.00  0.00    -0.247 OA
HETATM    3  N   UNK N   1      20.647  16.755   7.459  0.00  0.00    -0.335 N 
HETATM    4  N   UNK N   1      22.369  17.442   6.188  0.00  0.00    -0.336 N 
HETATM    5  C   UNK N   1      21.571  15.658   7.372  0.00  0.00     0.123 C 
HETATM    6  C   UNK N   1      22.369  16.003   6.137  0.00  0.00     0.119 C 
HETATM    7  C   UNK N   1      21.199  14.217   7.185  0.00  0.00     0.072 C 
HETATM    8  C   UNK N   1      23.593  15.146   6.287  0.00  0.00     0.101 C 
HETATM    9  C   UNK N   1      21.262  17.793   6.867  0.00  0.00     0.316 C 
HETATM   10  H   UNK N   1      19.752  16.747   7.868  0.00  0.00     0.164 HD
HETATM   11  H   UNK N   1      23.045  18.047   5.804  0.00  0.00     0.164 HD
ENDROOT
BRANCH   7  12
HETATM   12  C   UNK N   1      20.689  13.695   8.521  0.00  0.00     0.017 C 
BRANCH  12  13
HETATM   13  C   UNK N   1      21.731  13.747   9.617  0.00  0.00     0.002 C 
BRANCH  13  14
HETATM   14  C   UNK N   1      21.852  12.352  10.184  0.00  0.00     0.010 C 
BRANCH  14  15
HETATM   15  C   UNK N   1      22.858  12.319  11.320  0.00  0.00     0.110 C 
BRANCH  15  16
HETATM   16  C   UNK N   1      24.263  12.139  10.820  0.00  0.00     0.139 C 
HETATM   17  O   UNK N   1      24.482  11.748   9.683  0.00  0.00    -0.650 OA
BRANCH  16  18
HETATM   18  O   UNK N   1      25.295  12.429  11.632  0.00  0.00    -0.776 OA
HETATM   19  H   UNK N   1      26.130  12.031  11.490  0.00  0.00     0.167 HD
ENDBRANCH  16  18
ENDBRANCH  15  16
ENDBRANCH  14  15
ENDBRANCH  13  14
ENDBRANCH  12  13
ENDBRANCH   7  12
TORSDOF 6
ENDMDL
MODEL 8
REMARK VINA RESULT:      -5.1      5.798      7.755
REMARK  6 active torsions:
REMARK  status: ('A' for Active; 'I' for Inactive)
REMARK    1  A    between atoms: O_3  and  C_16 
REMARK    2  A    between atoms: C_9  and  C_11 
REMARK    3  A    between atoms: C_11  and  C_12 
REMARK    4  A    between atoms: C_12  and  C_14 
REMARK    5  A    between atoms: C_14  and  C_15 
REMARK    6  A    between atoms: C_15  and  C_16 
ROOT
HETATM    1  S   UNK N   1      33.420  13.815   8.474  0.00  0.00    -0.160 SA
HETATM    2  O   UNK N   1      35.059  19.384   8.451  0.00  0.00    -0.247 OA
HETATM    3  N   UNK N   1      34.984  17.367   9.462  0.00  0.00    -0.335 N 
HETATM    4  N   UNK N   1      33.954  17.664   7.486  0.00  0.00    -0.336 N 
HETATM    5  C   UNK N   1      34.619  16.065   8.976  0.00  0.00     0.123 C 
HETATM    6  C   UNK N   1      33.525  16.383   7.984  0.00  0.00     0.119 C 
HETATM    7  C   UNK N   1      34.055  14.951   9.806  0.00  0.00     0.072 C 
HETATM    8  C   UNK N   1      33.456  15.131   7.159  0.00  0.00     0.101 C 
HETATM    9  C   UNK N   1      34.692  18.220   8.465  0.00  0.00     0.316 C 
HETATM   10  H   UNK N   1      35.368  17.587  10.341  0.00  0.00     0.164 HD
HETATM   11  H   UNK N   1      33.750  18.055   6.605  0.00  0.00     0.164 HD
ENDROOT
BRANCH   7  12
HETATM   12  C   UNK N   1      35.201  14.343  10.603  0.00  0.00     0.017 C 
BRANCH  12  13
HETATM   13  C   UNK N   1      34.866  14.139  12.064  0.00  0.00     0.002 C 
BRANCH  13  14
HETATM   14  C   UNK N   1      36.067  14.588  12.864  0.00  0.00     0.010 C 
BRANCH  14  15
HETATM   15  C   UNK N   1      36.547  13.478  13.781  0.00  0.00     0.110 C 
BRANCH  15  16
HETATM   16  C   UNK N   1      36.667  13.939  15.205  0.00  0.00     0.139 C 
HETATM   17  O   UNK N   1      35.886  13.552  16.061  0.00  0.00    -0.650 OA
BRANCH  16  18
HETATM   18  O   UNK N   1      37.661  14.779  15.546  0.00  0.00    -0.776 OA
HETATM   19  H   UNK N   1      38.551  14.551  15.362  0.00  0.00     0.167 HD
ENDBRANCH  16  18
ENDBRANCH  15  16
ENDBRANCH  14  15
ENDBRANCH  13  14
ENDBRANCH  12  13
ENDBRANCH   7  12
TORSDOF 6
ENDMDL
MODEL 9
REMARK VINA RESULT:      -5.1      5.104      7.047
REMARK  6 active torsions:
REMARK  status: ('A' for Active; 'I' for Inactive)
REMARK    1  A    between atoms: O_3  and  C_16 
REMARK    2  A    between atoms: C_9  and  C_11 
REMARK    3  A    between atoms: C_11  and  C_12 
REMARK    4  A    between atoms: C_12  and  C_14 
REMARK    5  A    between atoms: C_14  and  C_15 
REMARK    6  A    between atoms: C_15  and  C_16 
ROOT
HETATM    1  S   UNK N   1      22.951  17.560   5.292  0.00  0.00    -0.160 SA
HETATM    2  O   UNK N   1      20.776  21.433   1.554  0.00  0.00    -0.247 OA
HETATM    3  N   UNK N   1      22.543  20.505   2.609  0.00  0.00    -0.335 N 
HETATM    4  N   UNK N   1      20.463  19.799   3.084  0.00  0.00    -0.336 N 
HETATM    5  C   UNK N   1      22.672  19.303   3.385  0.00  0.00     0.123 C 
HETATM    6  C   UNK N   1      21.331  19.214   4.072  0.00  0.00     0.119 C 
HETATM    7  C   UNK N   1      23.669  19.076   4.482  0.00  0.00     0.072 C 
HETATM    8  C   UNK N   1      21.279  17.778   4.506  0.00  0.00     0.101 C 
HETATM    9  C   UNK N   1      21.229  20.635   2.359  0.00  0.00     0.316 C 
HETATM   10  H   UNK N   1      23.266  21.108   2.321  0.00  0.00     0.164 HD
HETATM   11  H   UNK N   1      19.502  19.622   2.962  0.00  0.00     0.164 HD
ENDROOT
BRANCH   7  12
HETATM   12  C   UNK N   1      25.020  18.814   3.832  0.00  0.00     0.017 C 
BRANCH  12  13
HETATM   13  C   UNK N   1      25.799  20.080   3.549  0.00  0.00     0.002 C 
BRANCH  13  14
HETATM   14  C   UNK N   1      27.054  20.029   4.389  0.00  0.00     0.010 C 
BRANCH  14  15
HETATM   15  C   UNK N   1      26.987  21.042   5.517  0.00  0.00     0.110 C 
BRANCH  15  16
HETATM   16  C   UNK N   1      27.081  20.387   6.866  0.00  0.00     0.139 C 
HETATM   17  O   UNK N   1      27.961  19.575   7.111  0.00  0.00    -0.650 OA
BRANCH  16  18
HETATM   18  O   UNK N   1      26.193  20.713   7.821  0.00  0.00    -0.776 OA
HETATM   19  H   UNK N   1      25.319  20.378   7.783  0.00  0.00     0.167 HD
ENDBRANCH  16  18
ENDBRANCH  15  16
ENDBRANCH  14  15
ENDBRANCH  13  14
ENDBRANCH  12  13
ENDBRANCH   7  12
TORSDOF 6
ENDMDL
