MODEL 1
REMARK VINA RESULT:      -3.0      0.000      0.000
REMARK  3 active torsions:
REMARK  status: ('A' for Active; 'I' for Inactive)
REMARK    1  A    between atoms: O_1  and  C_7 
REMARK    2  A    between atoms: N_2  and  C_3 
REMARK    3  A    between atoms: C_3  and  C_7 
ROOT
HETATM    1  N   UNK N   1      33.690  16.034   8.809  0.00  0.00    -0.077 N 
HETATM    2  C   UNK N   1      34.212  15.333   7.649  0.00  0.00     0.271 C 
HETATM    3  C   UNK N   1      32.371  16.548   8.475  0.00  0.00     0.271 C 
HETATM    4  C   UNK N   1      33.585  15.083   9.904  0.00  0.00     0.271 C 
ENDROOT
BRANCH   1   5
HETATM    5  C   UNK N   1      34.608  17.128   9.143  0.00  0.00     0.262 C 
BRANCH   5   6
HETATM    6  C   UNK N   1      34.470  18.322   8.200  0.00  0.00     0.192 C 
BRANCH   6   7
HETATM    7  O   UNK N   1      35.376  19.317   8.566  0.00  0.00    -0.399 OA
HETATM    8  H   UNK N   1      36.105  19.679   8.039  0.00  0.00     0.209 HD
ENDBRANCH   6   7
ENDBRANCH   5   6
ENDBRANCH   1   5
TORSDOF 3
ENDMDL
MODEL 2
REMARK VINA RESULT:      -2.9      1.443      2.114
REMARK  3 active torsions:
REMARK  status: ('A' for Active; 'I' for Inactive)
REMARK    1  A    between atoms: O_1  and  C_7 
REMARK    2  A    between atoms: N_2  and  C_3 
REMARK    3  A    between atoms: C_3  and  C_7 
ROOT
HETATM    1  N   UNK N   1      32.286  17.195   7.781  0.00  0.00    -0.077 N 
HETATM    2  C   UNK N   1      32.882  15.987   8.326  0.00  0.00     0.271 C 
HETATM    3  C   UNK N   1      32.284  17.087   6.331  0.00  0.00     0.271 C 
HETATM    4  C   UNK N   1      30.919  17.285   8.271  0.00  0.00     0.271 C 
ENDROOT
BRANCH   1   5
HETATM    5  C   UNK N   1      33.083  18.345   8.220  0.00  0.00     0.262 C 
BRANCH   5   6
HETATM    6  C   UNK N   1      34.587  18.086   8.134  0.00  0.00     0.192 C 
BRANCH   6   7
HETATM    7  O   UNK N   1      35.283  19.233   8.516  0.00  0.00    -0.399 OA
HETATM    8  H   UNK N   1      35.468  19.542   9.417  0.00  0.00     0.209 HD
ENDBRANCH   6   7
ENDBRANCH   5   6
ENDBRANCH   1   5
TORSDOF 3
ENDMDL
MODEL 3
REMARK VINA RESULT:      -2.9      1.488      2.524
REMARK  3 active torsions:
REMARK  status: ('A' for Active; 'I' for Inactive)
REMARK    1  A    between atoms: O_1  and  C_7 
REMARK    2  A    between atoms: N_2  and  C_3 
REMARK    3  A    between atoms: C_3  and  C_7 
ROOT
HETATM    1  N   UNK N   1      32.247  17.230   7.753  0.00  0.00    -0.077 N 
HETATM    2  C   UNK N   1      30.861  17.479   8.110  0.00  0.00     0.271 C 
HETATM    3  C   UNK N   1      32.649  15.965   8.346  0.00  0.00     0.271 C 
HETATM    4  C   UNK N   1      32.333  17.144   6.303  0.00  0.00     0.271 C 
ENDROOT
BRANCH   1   5
HETATM    5  C   UNK N   1      33.064  18.334   8.268  0.00  0.00     0.262 C 
BRANCH   5   6
HETATM    6  C   UNK N   1      34.561  18.096   8.082  0.00  0.00     0.192 C 
BRANCH   6   7
HETATM    7  O   UNK N   1      35.273  19.215   8.513  0.00  0.00    -0.399 OA
HETATM    8  H   UNK N   1      35.137  19.727   9.326  0.00  0.00     0.209 HD
ENDBRANCH   6   7
ENDBRANCH   5   6
ENDBRANCH   1   5
TORSDOF 3
ENDMDL
MODEL 4
REMARK VINA RESULT:      -2.8      2.166      2.964
REMARK  3 active torsions:
REMARK  status: ('A' for Active; 'I' for Inactive)
REMARK    1  A    between atoms: O_1  and  C_7 
REMARK    2  A    between atoms: N_2  and  C_3 
REMARK    3  A    between atoms: C_3  and  C_7 
ROOT
HETATM    1  N   UNK N   1      34.036  17.046   8.449  0.00  0.00    -0.077 N 
HETATM    2  C   UNK N   1      34.484  16.188   7.366  0.00  0.00     0.271 C 
HETATM    3  C   UNK N   1      34.558  18.383   8.216  0.00  0.00     0.271 C 
HETATM    4  C   UNK N   1      32.581  17.076   8.432  0.00  0.00     0.271 C 
ENDROOT
BRANCH   1   5
HETATM    5  C   UNK N   1      34.540  16.500   9.713  0.00  0.00     0.262 C 
BRANCH   5   6
HETATM    6  C   UNK N   1      34.070  15.068   9.966  0.00  0.00     0.192 C 
BRANCH   6   7
HETATM    7  O   UNK N   1      33.382  15.006  11.177  0.00  0.00    -0.399 OA
HETATM    8  H   UNK N   1      32.675  15.591  11.488  0.00  0.00     0.209 HD
ENDBRANCH   6   7
ENDBRANCH   5   6
ENDBRANCH   1   5
TORSDOF 3
ENDMDL
MODEL 5
REMARK VINA RESULT:      -2.8     12.618     13.651
REMARK  3 active torsions:
REMARK  status: ('A' for Active; 'I' for Inactive)
REMARK    1  A    between atoms: O_1  and  C_7 
REMARK    2  A    between atoms: N_2  and  C_3 
REMARK    3  A    between atoms: C_3  and  C_7 
ROOT
HETATM    1  N   UNK N   1      21.727  18.524   4.210  0.00  0.00    -0.077 N 
HETATM    2  C   UNK N   1      21.451  18.259   5.612  0.00  0.00     0.271 C 
HETATM    3  C   UNK N   1      23.153  18.769   4.066  0.00  0.00     0.271 C 
HETATM    4  C   UNK N   1      21.350  17.346   3.444  0.00  0.00     0.271 C 
ENDROOT
BRANCH   1   5
HETATM    5  C   UNK N   1      20.949  19.696   3.797  0.00  0.00     0.262 C 
BRANCH   5   6
HETATM    6  C   UNK N   1      21.497  20.351   2.530  0.00  0.00     0.192 C 
BRANCH   6   7
HETATM    7  O   UNK N   1      21.710  21.710   2.758  0.00  0.00    -0.399 OA
HETATM    8  H   UNK N   1      21.333  22.460   2.272  0.00  0.00     0.209 HD
ENDBRANCH   6   7
ENDBRANCH   5   6
ENDBRANCH   1   5
TORSDOF 3
ENDMDL
MODEL 6
REMARK VINA RESULT:      -2.8      1.942      2.743
REMARK  3 active torsions:
REMARK  status: ('A' for Active; 'I' for Inactive)
REMARK    1  A    between atoms: O_1  and  C_7 
REMARK    2  A    between atoms: N_2  and  C_3 
REMARK    3  A    between atoms: C_3  and  C_7 
ROOT
HETATM    1  N   UNK N   1      34.012  15.728   9.173  0.00  0.00    -0.077 N 
HETATM    2  C   UNK N   1      32.649  15.227   9.165  0.00  0.00     0.271 C 
HETATM    3  C   UNK N   1      34.747  15.063   8.109  0.00  0.00     0.271 C 
HETATM    4  C   UNK N   1      33.970  17.160   8.922  0.00  0.00     0.271 C 
ENDROOT
BRANCH   1   5
HETATM    5  C   UNK N   1      34.606  15.436  10.481  0.00  0.00     0.262 C 
BRANCH   5   6
HETATM    6  C   UNK N   1      35.535  16.548  10.968  0.00  0.00     0.192 C 
BRANCH   6   7
HETATM    7  O   UNK N   1      36.862  16.134  10.854  0.00  0.00    -0.399 OA
HETATM    8  H   UNK N   1      37.412  15.710  11.531  0.00  0.00     0.209 HD
ENDBRANCH   6   7
ENDBRANCH   5   6
ENDBRANCH   1   5
TORSDOF 3
ENDMDL
MODEL 7
REMARK VINA RESULT:      -2.7      4.156      5.146
REMARK  3 active torsions:
REMARK  status: ('A' for Active; 'I' for Inactive)
REMARK    1  A    between atoms: O_1  and  C_7 
REMARK    2  A    between atoms: N_2  and  C_3 
REMARK    3  A    between atoms: C_3  and  C_7 
ROOT
HETATM    1  N   UNK N   1      35.961  13.558  12.599  0.00  0.00    -0.077 N 
HETATM    2  C   UNK N   1      34.941  12.582  12.944  0.00  0.00     0.271 C 
HETATM    3  C   UNK N   1      36.359  14.249  13.814  0.00  0.00     0.271 C 
HETATM    4  C   UNK N   1      37.099  12.845  12.041  0.00  0.00     0.271 C 
ENDROOT
BRANCH   1   5
HETATM    5  C   UNK N   1      35.394  14.496  11.624  0.00  0.00     0.262 C 
BRANCH   5   6
HETATM    6  C   UNK N   1      36.399  14.911  10.552  0.00  0.00     0.192 C 
BRANCH   6   7
HETATM    7  O   UNK N   1      36.899  16.180  10.842  0.00  0.00    -0.399 OA
HETATM    8  H   UNK N   1      36.747  17.004  10.355  0.00  0.00     0.209 HD
ENDBRANCH   6   7
ENDBRANCH   5   6
ENDBRANCH   1   5
TORSDOF 3
ENDMDL
MODEL 8
REMARK VINA RESULT:      -2.7      5.737      6.885
REMARK  3 active torsions:
REMARK  status: ('A' for Active; 'I' for Inactive)
REMARK    1  A    between atoms: O_1  and  C_7 
REMARK    2  A    between atoms: N_2  and  C_3 
REMARK    3  A    between atoms: C_3  and  C_7 
ROOT
HETATM    1  N   UNK N   1      36.288  13.468  14.534  0.00  0.00    -0.077 N 
HETATM    2  C   UNK N   1      35.049  13.038  15.159  0.00  0.00     0.271 C 
HETATM    3  C   UNK N   1      36.981  14.350  15.459  0.00  0.00     0.271 C 
HETATM    4  C   UNK N   1      37.099  12.288  14.277  0.00  0.00     0.271 C 
ENDROOT
BRANCH   1   5
HETATM    5  C   UNK N   1      35.960  14.168  13.288  0.00  0.00     0.262 C 
BRANCH   5   6
HETATM    6  C   UNK N   1      35.092  13.329  12.351  0.00  0.00     0.192 C 
BRANCH   6   7
HETATM    7  O   UNK N   1      34.105  14.132  11.781  0.00  0.00    -0.399 OA
HETATM    8  H   UNK N   1      33.515  14.757  12.230  0.00  0.00     0.209 HD
ENDBRANCH   6   7
ENDBRANCH   5   6
ENDBRANCH   1   5
TORSDOF 3
ENDMDL
MODEL 9
REMARK VINA RESULT:      -2.7     13.584     14.559
REMARK  3 active torsions:
REMARK  status: ('A' for Active; 'I' for Inactive)
REMARK    1  A    between atoms: O_1  and  C_7 
REMARK    2  A    between atoms: N_2  and  C_3 
REMARK    3  A    between atoms: C_3  and  C_7 
ROOT
HETATM    1  N   UNK N   1      21.528  18.155   3.991  0.00  0.00    -0.077 N 
HETATM    2  C   UNK N   1      21.395  18.332   5.427  0.00  0.00     0.271 C 
HETATM    3  C   UNK N   1      22.055  19.388   3.428  0.00  0.00     0.271 C 
HETATM    4  C   UNK N   1      22.462  17.066   3.753  0.00  0.00     0.271 C 
ENDROOT
BRANCH   1   5
HETATM    5  C   UNK N   1      20.205  17.849   3.437  0.00  0.00     0.262 C 
BRANCH   5   6
HETATM    6  C   UNK N   1      19.584  19.038   2.704  0.00  0.00     0.192 C 
BRANCH   6   7
HETATM    7  O   UNK N   1      18.263  18.744   2.367  0.00  0.00    -0.399 OA
HETATM    8  H   UNK N   1      17.938  18.005   1.829  0.00  0.00     0.209 HD
ENDBRANCH   6   7
ENDBRANCH   5   6
ENDBRANCH   1   5
TORSDOF 3
ENDMDL
