MODEL 1
REMARK VINA RESULT:      -4.1      0.000      0.000
REMARK  13 active torsions:
REMARK  status: ('A' for Active; 'I' for Inactive)
REMARK    1  A    between atoms: N_1  and  C_7 
REMARK    2  A    between atoms: N_1  and  C_9 
REMARK    3  A    between atoms: N_2  and  C_8 
REMARK    4  A    between atoms: N_2  and  C_10 
REMARK    5  A    between atoms: N_3  and  C_13 
REMARK    6  A    between atoms: N_4  and  C_14 
REMARK    7  A    between atoms: C_5  and  C_6 
REMARK    8  A    between atoms: C_5  and  C_7 
REMARK    9  A    between atoms: C_6  and  C_8 
REMARK   10  A    between atoms: C_9  and  C_11 
REMARK   11  A    between atoms: C_10  and  C_12 
REMARK   12  A    between atoms: C_11  and  C_13 
REMARK   13  A    between atoms: C_12  and  C_14 
ROOT
HETATM    1  C   UNK N   1      28.281  18.343   9.168  0.00  0.00     0.021 C 
ENDROOT
BRANCH   1   2
HETATM    2  C   UNK N   1      29.680  18.580   9.677  0.00  0.00     0.021 C 
BRANCH   2   3
HETATM    3  C   UNK N   1      30.666  18.048   8.667  0.00  0.00     0.113 C 
BRANCH   3   4
HETATM    4  N   UNK N   1      31.192  16.789   9.153  0.00  0.00    -0.421 N 
HETATM    5  H   UNK N   1      30.747  16.163   9.825  0.00  0.00     0.153 HD
BRANCH   4   6
HETATM    6  C   UNK N   1      32.469  16.588   8.501  0.00  0.00     0.115 C 
BRANCH   6   7
HETATM    7  C   UNK N   1      33.008  17.932   8.072  0.00  0.00     0.038 C 
BRANCH   7   8
HETATM    8  C   UNK N   1      34.459  18.053   8.480  0.00  0.00     0.112 C 
BRANCH   8   9
HETATM    9  N   UNK N   1      34.664  17.332   9.721  0.00  0.00    -0.430 N 
HETATM   10  H   UNK N   1      34.221  16.425   9.864  0.00  0.00     0.149 HD
HETATM   11  H   UNK N   1      35.252  17.733  10.452  0.00  0.00     0.149 HD
ENDBRANCH   8   9
ENDBRANCH   7   8
ENDBRANCH   6   7
ENDBRANCH   4   6
ENDBRANCH   3   4
ENDBRANCH   2   3
ENDBRANCH   1   2
BRANCH   1  12
HETATM   12  C   UNK N   1      28.268  18.514   7.669  0.00  0.00     0.113 C 
BRANCH  12  13
HETATM   13  N   UNK N   1      27.179  19.400   7.313  0.00  0.00    -0.421 N 
HETATM   14  H   UNK N   1      26.197  19.288   7.566  0.00  0.00     0.153 HD
BRANCH  13  15
HETATM   15  C   UNK N   1      27.751  20.474   6.529  0.00  0.00     0.115 C 
BRANCH  15  16
HETATM   16  C   UNK N   1      26.743  20.904   5.490  0.00  0.00     0.038 C 
BRANCH  16  17
HETATM   17  C   UNK N   1      26.883  20.040   4.258  0.00  0.00     0.112 C 
BRANCH  17  18
HETATM   18  N   UNK N   1      28.285  19.730   4.052  0.00  0.00    -0.430 N 
HETATM   19  H   UNK N   1      28.746  20.004   3.185  0.00  0.00     0.149 HD
HETATM   20  H   UNK N   1      28.809  19.238   4.777  0.00  0.00     0.149 HD
ENDBRANCH  17  18
ENDBRANCH  16  17
ENDBRANCH  15  16
ENDBRANCH  13  15
ENDBRANCH  12  13
ENDBRANCH   1  12
TORSDOF 13
ENDMDL
MODEL 2
REMARK VINA RESULT:      -3.9      4.855      9.160
REMARK  13 active torsions:
REMARK  status: ('A' for Active; 'I' for Inactive)
REMARK    1  A    between atoms: N_1  and  C_7 
REMARK    2  A    between atoms: N_1  and  C_9 
REMARK    3  A    between atoms: N_2  and  C_8 
REMARK    4  A    between atoms: N_2  and  C_10 
REMARK    5  A    between atoms: N_3  and  C_13 
REMARK    6  A    between atoms: N_4  and  C_14 
REMARK    7  A    between atoms: C_5  and  C_6 
REMARK    8  A    between atoms: C_5  and  C_7 
REMARK    9  A    between atoms: C_6  and  C_8 
REMARK   10  A    between atoms: C_9  and  C_11 
REMARK   11  A    between atoms: C_10  and  C_12 
REMARK   12  A    between atoms: C_11  and  C_13 
REMARK   13  A    between atoms: C_12  and  C_14 
ROOT
HETATM    1  C   UNK N   1      25.907  20.283   3.091  0.00  0.00     0.021 C 
ENDROOT
BRANCH   1   2
HETATM    2  C   UNK N   1      24.489  20.129   3.580  0.00  0.00     0.021 C 
BRANCH   2   3
HETATM    3  C   UNK N   1      24.407  18.917   4.473  0.00  0.00     0.113 C 
BRANCH   3   4
HETATM    4  N   UNK N   1      23.032  18.464   4.514  0.00  0.00    -0.421 N 
HETATM    5  H   UNK N   1      22.657  17.709   5.088  0.00  0.00     0.153 HD
BRANCH   4   6
HETATM    6  C   UNK N   1      22.290  19.290   3.583  0.00  0.00     0.115 C 
BRANCH   6   7
HETATM    7  C   UNK N   1      20.815  19.032   3.779  0.00  0.00     0.038 C 
BRANCH   7   8
HETATM    8  C   UNK N   1      20.049  19.513   2.568  0.00  0.00     0.112 C 
BRANCH   8   9
HETATM    9  N   UNK N   1      18.883  18.671   2.380  0.00  0.00    -0.430 N 
HETATM   10  H   UNK N   1      18.110  18.993   1.799  0.00  0.00     0.149 HD
HETATM   11  H   UNK N   1      18.838  17.755   2.829  0.00  0.00     0.149 HD
ENDBRANCH   8   9
ENDBRANCH   7   8
ENDBRANCH   6   7
ENDBRANCH   4   6
ENDBRANCH   3   4
ENDBRANCH   2   3
ENDBRANCH   1   2
BRANCH   1  12
HETATM   12  C   UNK N   1      26.767  19.227   3.738  0.00  0.00     0.113 C 
BRANCH  12  13
HETATM   13  N   UNK N   1      27.932  19.867   4.314  0.00  0.00    -0.421 N 
HETATM   14  H   UNK N   1      28.758  20.189   3.811  0.00  0.00     0.153 HD
BRANCH  13  15
HETATM   15  C   UNK N   1      27.696  19.961   5.740  0.00  0.00     0.115 C 
BRANCH  15  16
HETATM   16  C   UNK N   1      27.596  21.421   6.116  0.00  0.00     0.038 C 
BRANCH  16  17
HETATM   17  C   UNK N   1      26.283  21.675   6.820  0.00  0.00     0.112 C 
BRANCH  17  18
HETATM   18  N   UNK N   1      26.160  20.760   7.939  0.00  0.00    -0.430 N 
HETATM   19  H   UNK N   1      25.698  19.860   7.813  0.00  0.00     0.149 HD
HETATM   20  H   UNK N   1      26.536  21.018   8.852  0.00  0.00     0.149 HD
ENDBRANCH  17  18
ENDBRANCH  16  17
ENDBRANCH  15  16
ENDBRANCH  13  15
ENDBRANCH  12  13
ENDBRANCH   1  12
TORSDOF 13
ENDMDL
MODEL 3
REMARK VINA RESULT:      -3.9      2.553      4.570
REMARK  13 active torsions:
REMARK  status: ('A' for Active; 'I' for Inactive)
REMARK    1  A    between atoms: N_1  and  C_7 
REMARK    2  A    between atoms: N_1  and  C_9 
REMARK    3  A    between atoms: N_2  and  C_8 
REMARK    4  A    between atoms: N_2  and  C_10 
REMARK    5  A    between atoms: N_3  and  C_13 
REMARK    6  A    between atoms: N_4  and  C_14 
REMARK    7  A    between atoms: C_5  and  C_6 
REMARK    8  A    between atoms: C_5  and  C_7 
REMARK    9  A    between atoms: C_6  and  C_8 
REMARK   10  A    between atoms: C_9  and  C_11 
REMARK   11  A    between atoms: C_10  and  C_12 
REMARK   12  A    between atoms: C_11  and  C_13 
REMARK   13  A    between atoms: C_12  and  C_14 
ROOT
HETATM    1  C   UNK N   1      32.491  17.855   8.229  0.00  0.00     0.021 C 
ENDROOT
BRANCH   1   2
HETATM    2  C   UNK N   1      33.980  18.080   8.296  0.00  0.00     0.021 C 
BRANCH   2   3
HETATM    3  C   UNK N   1      34.623  16.905   8.990  0.00  0.00     0.113 C 
BRANCH   3   4
HETATM    4  N   UNK N   1      34.976  17.299  10.338  0.00  0.00    -0.421 N 
HETATM    5  H   UNK N   1      34.729  18.175  10.800  0.00  0.00     0.153 HD
BRANCH   4   6
HETATM    6  C   UNK N   1      35.747  16.213  10.905  0.00  0.00     0.115 C 
BRANCH   6   7
HETATM    7  C   UNK N   1      34.804  15.092  11.272  0.00  0.00     0.038 C 
BRANCH   7   8
HETATM    8  C   UNK N   1      35.440  14.216  12.327  0.00  0.00     0.112 C 
BRANCH   8   9
HETATM    9  N   UNK N   1      36.357  15.015  13.117  0.00  0.00    -0.430 N 
HETATM   10  H   UNK N   1      37.082  14.561  13.672  0.00  0.00     0.149 HD
HETATM   11  H   UNK N   1      36.277  16.033  13.117  0.00  0.00     0.149 HD
ENDBRANCH   8   9
ENDBRANCH   7   8
ENDBRANCH   6   7
ENDBRANCH   4   6
ENDBRANCH   3   4
ENDBRANCH   2   3
ENDBRANCH   1   2
BRANCH   1  12
HETATM   12  C   UNK N   1      32.225  16.387   8.010  0.00  0.00     0.113 C 
BRANCH  12  13
HETATM   13  N   UNK N   1      30.826  16.214   7.679  0.00  0.00    -0.421 N 
HETATM   14  H   UNK N   1      30.236  15.421   7.930  0.00  0.00     0.153 HD
BRANCH  13  15
HETATM   15  C   UNK N   1      30.426  17.382   6.922  0.00  0.00     0.115 C 
BRANCH  15  16
HETATM   16  C   UNK N   1      28.988  17.703   7.254  0.00  0.00     0.038 C 
BRANCH  16  17
HETATM   17  C   UNK N   1      28.933  18.587   8.478  0.00  0.00     0.112 C 
BRANCH  17  18
HETATM   18  N   UNK N   1      27.662  18.390   9.148  0.00  0.00    -0.430 N 
HETATM   19  H   UNK N   1      27.052  17.622   8.870  0.00  0.00     0.149 HD
HETATM   20  H   UNK N   1      27.378  19.021   9.898  0.00  0.00     0.149 HD
ENDBRANCH  17  18
ENDBRANCH  16  17
ENDBRANCH  15  16
ENDBRANCH  13  15
ENDBRANCH  12  13
ENDBRANCH   1  12
TORSDOF 13
ENDMDL
MODEL 4
REMARK VINA RESULT:      -3.8      5.857      8.753
REMARK  13 active torsions:
REMARK  status: ('A' for Active; 'I' for Inactive)
REMARK    1  A    between atoms: N_1  and  C_7 
REMARK    2  A    between atoms: N_1  and  C_9 
REMARK    3  A    between atoms: N_2  and  C_8 
REMARK    4  A    between atoms: N_2  and  C_10 
REMARK    5  A    between atoms: N_3  and  C_13 
REMARK    6  A    between atoms: N_4  and  C_14 
REMARK    7  A    between atoms: C_5  and  C_6 
REMARK    8  A    between atoms: C_5  and  C_7 
REMARK    9  A    between atoms: C_6  and  C_8 
REMARK   10  A    between atoms: C_9  and  C_11 
REMARK   11  A    between atoms: C_10  and  C_12 
REMARK   12  A    between atoms: C_11  and  C_13 
REMARK   13  A    between atoms: C_12  and  C_14 
ROOT
HETATM    1  C   UNK N   1      35.756  15.439  12.032  0.00  0.00     0.021 C 
ENDROOT
BRANCH   1   2
HETATM    2  C   UNK N   1      35.506  13.954  11.975  0.00  0.00     0.021 C 
BRANCH   2   3
HETATM    3  C   UNK N   1      35.492  13.404  13.380  0.00  0.00     0.113 C 
BRANCH   3   4
HETATM    4  N   UNK N   1      36.759  13.711  14.010  0.00  0.00    -0.421 N 
HETATM    5  H   UNK N   1      37.547  14.200  13.586  0.00  0.00     0.153 HD
BRANCH   4   6
HETATM    6  C   UNK N   1      36.693  13.191  15.360  0.00  0.00     0.115 C 
BRANCH   6   7
HETATM    7  C   UNK N   1      35.245  13.133  15.785  0.00  0.00     0.038 C 
BRANCH   7   8
HETATM    8  C   UNK N   1      35.158  12.772  17.250  0.00  0.00     0.112 C 
BRANCH   8   9
HETATM    9  N   UNK N   1      35.252  13.982  18.043  0.00  0.00    -0.430 N 
HETATM   10  H   UNK N   1      34.992  14.880  17.636  0.00  0.00     0.149 HD
HETATM   11  H   UNK N   1      35.578  13.935  19.009  0.00  0.00     0.149 HD
ENDBRANCH   8   9
ENDBRANCH   7   8
ENDBRANCH   6   7
ENDBRANCH   4   6
ENDBRANCH   3   4
ENDBRANCH   2   3
ENDBRANCH   1   2
BRANCH   1  12
HETATM   12  C   UNK N   1      35.850  15.975  10.625  0.00  0.00     0.113 C 
BRANCH  12  13
HETATM   13  N   UNK N   1      34.974  17.123  10.507  0.00  0.00    -0.421 N 
HETATM   14  H   UNK N   1      34.835  17.855  11.203  0.00  0.00     0.153 HD
BRANCH  13  15
HETATM   15  C   UNK N   1      34.334  17.030   9.211  0.00  0.00     0.115 C 
BRANCH  15  16
HETATM   16  C   UNK N   1      34.074  15.574   8.905  0.00  0.00     0.038 C 
BRANCH  16  17
HETATM   17  C   UNK N   1      32.588  15.300   8.963  0.00  0.00     0.112 C 
BRANCH  17  18
HETATM   18  N   UNK N   1      32.194  15.122  10.348  0.00  0.00    -0.430 N 
HETATM   19  H   UNK N   1      32.881  15.233  11.092  0.00  0.00     0.149 HD
HETATM   20  H   UNK N   1      31.228  14.884  10.575  0.00  0.00     0.149 HD
ENDBRANCH  17  18
ENDBRANCH  16  17
ENDBRANCH  15  16
ENDBRANCH  13  15
ENDBRANCH  12  13
ENDBRANCH   1  12
TORSDOF 13
ENDMDL
MODEL 5
REMARK VINA RESULT:      -3.8      5.201      9.872
REMARK  13 active torsions:
REMARK  status: ('A' for Active; 'I' for Inactive)
REMARK    1  A    between atoms: N_1  and  C_7 
REMARK    2  A    between atoms: N_1  and  C_9 
REMARK    3  A    between atoms: N_2  and  C_8 
REMARK    4  A    between atoms: N_2  and  C_10 
REMARK    5  A    between atoms: N_3  and  C_13 
REMARK    6  A    between atoms: N_4  and  C_14 
REMARK    7  A    between atoms: C_5  and  C_6 
REMARK    8  A    between atoms: C_5  and  C_7 
REMARK    9  A    between atoms: C_6  and  C_8 
REMARK   10  A    between atoms: C_9  and  C_11 
REMARK   11  A    between atoms: C_10  and  C_12 
REMARK   12  A    between atoms: C_11  and  C_13 
REMARK   13  A    between atoms: C_12  and  C_14 
ROOT
HETATM    1  C   UNK N   1      34.867  14.285  11.854  0.00  0.00     0.021 C 
ENDROOT
BRANCH   1   2
HETATM    2  C   UNK N   1      34.425  14.973  10.587  0.00  0.00     0.021 C 
BRANCH   2   3
HETATM    3  C   UNK N   1      35.366  16.115  10.295  0.00  0.00     0.113 C 
BRANCH   3   4
HETATM    4  N   UNK N   1      34.583  17.281   9.943  0.00  0.00    -0.421 N 
HETATM    5  H   UNK N   1      34.175  17.958  10.589  0.00  0.00     0.153 HD
BRANCH   4   6
HETATM    6  C   UNK N   1      34.489  17.304   8.498  0.00  0.00     0.115 C 
BRANCH   6   7
HETATM    7  C   UNK N   1      33.258  18.087   8.106  0.00  0.00     0.038 C 
BRANCH   7   8
HETATM    8  C   UNK N   1      32.040  17.197   8.191  0.00  0.00     0.112 C 
BRANCH   8   9
HETATM    9  N   UNK N   1      31.157  17.700   9.226  0.00  0.00    -0.430 N 
HETATM   10  H   UNK N   1      30.884  18.682   9.231  0.00  0.00     0.149 HD
HETATM   11  H   UNK N   1      30.808  17.070   9.949  0.00  0.00     0.149 HD
ENDBRANCH   8   9
ENDBRANCH   7   8
ENDBRANCH   6   7
ENDBRANCH   4   6
ENDBRANCH   3   4
ENDBRANCH   2   3
ENDBRANCH   1   2
BRANCH   1  12
HETATM   12  C   UNK N   1      36.370  14.160  11.846  0.00  0.00     0.113 C 
BRANCH  12  13
HETATM   13  N   UNK N   1      36.834  14.069  13.215  0.00  0.00    -0.421 N 
HETATM   14  H   UNK N   1      37.761  14.319  13.560  0.00  0.00     0.153 HD
BRANCH  13  15
HETATM   15  C   UNK N   1      35.731  13.554  13.999  0.00  0.00     0.115 C 
BRANCH  15  16
HETATM   16  C   UNK N   1      36.154  13.496  15.447  0.00  0.00     0.038 C 
BRANCH  16  17
HETATM   17  C   UNK N   1      35.031  12.926  16.283  0.00  0.00     0.112 C 
BRANCH  17  18
HETATM   18  N   UNK N   1      35.023  13.581  17.577  0.00  0.00    -0.430 N 
HETATM   19  H   UNK N   1      35.601  13.219  18.335  0.00  0.00     0.149 HD
HETATM   20  H   UNK N   1      34.439  14.404  17.728  0.00  0.00     0.149 HD
ENDBRANCH  17  18
ENDBRANCH  16  17
ENDBRANCH  15  16
ENDBRANCH  13  15
ENDBRANCH  12  13
ENDBRANCH   1  12
TORSDOF 13
ENDMDL
MODEL 6
REMARK VINA RESULT:      -3.7      1.913      6.827
REMARK  13 active torsions:
REMARK  status: ('A' for Active; 'I' for Inactive)
REMARK    1  A    between atoms: N_1  and  C_7 
REMARK    2  A    between atoms: N_1  and  C_9 
REMARK    3  A    between atoms: N_2  and  C_8 
REMARK    4  A    between atoms: N_2  and  C_10 
REMARK    5  A    between atoms: N_3  and  C_13 
REMARK    6  A    between atoms: N_4  and  C_14 
REMARK    7  A    between atoms: C_5  and  C_6 
REMARK    8  A    between atoms: C_5  and  C_7 
REMARK    9  A    between atoms: C_6  and  C_8 
REMARK   10  A    between atoms: C_9  and  C_11 
REMARK   11  A    between atoms: C_10  and  C_12 
REMARK   12  A    between atoms: C_11  and  C_13 
REMARK   13  A    between atoms: C_12  and  C_14 
ROOT
HETATM    1  C   UNK N   1      29.815  16.831   6.201  0.00  0.00     0.021 C 
ENDROOT
BRANCH   1   2
HETATM    2  C   UNK N   1      29.962  17.357   4.796  0.00  0.00     0.021 C 
BRANCH   2   3
HETATM    3  C   UNK N   1      28.613  17.814   4.300  0.00  0.00     0.113 C 
BRANCH   3   4
HETATM    4  N   UNK N   1      28.519  19.250   4.467  0.00  0.00    -0.421 N 
HETATM    5  H   UNK N   1      29.219  19.940   4.195  0.00  0.00     0.153 HD
BRANCH   4   6
HETATM    6  C   UNK N   1      27.241  19.517   5.094  0.00  0.00     0.115 C 
BRANCH   6   7
HETATM    7  C   UNK N   1      27.489  20.107   6.462  0.00  0.00     0.038 C 
BRANCH   7   8
HETATM    8  C   UNK N   1      26.497  21.216   6.725  0.00  0.00     0.112 C 
BRANCH   8   9
HETATM    9  N   UNK N   1      25.891  21.011   8.027  0.00  0.00    -0.430 N 
HETATM   10  H   UNK N   1      26.457  21.091   8.871  0.00  0.00     0.149 HD
HETATM   11  H   UNK N   1      24.898  20.786   8.097  0.00  0.00     0.149 HD
ENDBRANCH   8   9
ENDBRANCH   7   8
ENDBRANCH   6   7
ENDBRANCH   4   6
ENDBRANCH   3   4
ENDBRANCH   2   3
ENDBRANCH   1   2
BRANCH   1  12
HETATM   12  C   UNK N   1      31.040  17.208   6.996  0.00  0.00     0.113 C 
BRANCH  12  13
HETATM   13  N   UNK N   1      32.188  16.533   6.427  0.00  0.00    -0.421 N 
HETATM   14  H   UNK N   1      32.206  15.593   6.033  0.00  0.00     0.153 HD
BRANCH  13  15
HETATM   15  C   UNK N   1      33.305  17.449   6.527  0.00  0.00     0.115 C 
BRANCH  15  16
HETATM   16  C   UNK N   1      33.280  18.095   7.892  0.00  0.00     0.038 C 
BRANCH  16  17
HETATM   17  C   UNK N   1      34.585  17.826   8.606  0.00  0.00     0.112 C 
BRANCH  17  18
HETATM   18  N   UNK N   1      34.317  17.066   9.812  0.00  0.00    -0.430 N 
HETATM   19  H   UNK N   1      33.954  17.535  10.641  0.00  0.00     0.149 HD
HETATM   20  H   UNK N   1      34.493  16.061   9.830  0.00  0.00     0.149 HD
ENDBRANCH  17  18
ENDBRANCH  16  17
ENDBRANCH  15  16
ENDBRANCH  13  15
ENDBRANCH  12  13
ENDBRANCH   1  12
TORSDOF 13
ENDMDL
MODEL 7
REMARK VINA RESULT:      -3.7     14.146     15.517
REMARK  13 active torsions:
REMARK  status: ('A' for Active; 'I' for Inactive)
REMARK    1  A    between atoms: N_1  and  C_7 
REMARK    2  A    between atoms: N_1  and  C_9 
REMARK    3  A    between atoms: N_2  and  C_8 
REMARK    4  A    between atoms: N_2  and  C_10 
REMARK    5  A    between atoms: N_3  and  C_13 
REMARK    6  A    between atoms: N_4  and  C_14 
REMARK    7  A    between atoms: C_5  and  C_6 
REMARK    8  A    between atoms: C_5  and  C_7 
REMARK    9  A    between atoms: C_6  and  C_8 
REMARK   10  A    between atoms: C_9  and  C_11 
REMARK   11  A    between atoms: C_10  and  C_12 
REMARK   12  A    between atoms: C_11  and  C_13 
REMARK   13  A    between atoms: C_12  and  C_14 
ROOT
HETATM    1  C   UNK N   1      26.558  28.359  -5.284  0.00  0.00     0.021 C 
ENDROOT
BRANCH   1   2
HETATM    2  C   UNK N   1      26.029  27.328  -6.248  0.00  0.00     0.021 C 
BRANCH   2   3
HETATM    3  C   UNK N   1      25.037  26.448  -5.531  0.00  0.00     0.113 C 
BRANCH   3   4
HETATM    4  N   UNK N   1      25.242  25.078  -5.955  0.00  0.00    -0.421 N 
HETATM    5  H   UNK N   1      24.939  24.663  -6.836  0.00  0.00     0.153 HD
BRANCH   4   6
HETATM    6  C   UNK N   1      25.960  24.411  -4.889  0.00  0.00     0.115 C 
BRANCH   6   7
HETATM    7  C   UNK N   1      27.215  23.798  -5.462  0.00  0.00     0.038 C 
BRANCH   7   8
HETATM    8  C   UNK N   1      28.396  24.699  -5.181  0.00  0.00     0.112 C 
BRANCH   8   9
HETATM    9  N   UNK N   1      28.206  25.341  -3.893  0.00  0.00    -0.430 N 
HETATM   10  H   UNK N   1      28.755  26.164  -3.648  0.00  0.00     0.149 HD
HETATM   11  H   UNK N   1      27.523  24.967  -3.234  0.00  0.00     0.149 HD
ENDBRANCH   8   9
ENDBRANCH   7   8
ENDBRANCH   6   7
ENDBRANCH   4   6
ENDBRANCH   3   4
ENDBRANCH   2   3
ENDBRANCH   1   2
BRANCH   1  12
HETATM   12  C   UNK N   1      25.767  28.283  -4.002  0.00  0.00     0.113 C 
BRANCH  12  13
HETATM   13  N   UNK N   1      26.161  29.386  -3.149  0.00  0.00    -0.421 N 
HETATM   14  H   UNK N   1      25.611  30.220  -2.943  0.00  0.00     0.153 HD
BRANCH  13  15
HETATM   15  C   UNK N   1      27.483  29.077  -2.647  0.00  0.00     0.115 C 
BRANCH  15  16
HETATM   16  C   UNK N   1      28.010  30.282  -1.904  0.00  0.00     0.038 C 
BRANCH  16  17
HETATM   17  C   UNK N   1      28.850  29.829  -0.731  0.00  0.00     0.112 C 
BRANCH  17  18
HETATM   18  N   UNK N   1      27.987  29.621   0.417  0.00  0.00    -0.430 N 
HETATM   19  H   UNK N   1      28.041  28.750   0.944  0.00  0.00     0.149 HD
HETATM   20  H   UNK N   1      27.327  30.347   0.696  0.00  0.00     0.149 HD
ENDBRANCH  17  18
ENDBRANCH  16  17
ENDBRANCH  15  16
ENDBRANCH  13  15
ENDBRANCH  12  13
ENDBRANCH   1  12
TORSDOF 13
ENDMDL
MODEL 8
REMARK VINA RESULT:      -3.7      2.028      6.997
REMARK  13 active torsions:
REMARK  status: ('A' for Active; 'I' for Inactive)
REMARK    1  A    between atoms: N_1  and  C_7 
REMARK    2  A    between atoms: N_1  and  C_9 
REMARK    3  A    between atoms: N_2  and  C_8 
REMARK    4  A    between atoms: N_2  and  C_10 
REMARK    5  A    between atoms: N_3  and  C_13 
REMARK    6  A    between atoms: N_4  and  C_14 
REMARK    7  A    between atoms: C_5  and  C_6 
REMARK    8  A    between atoms: C_5  and  C_7 
REMARK    9  A    between atoms: C_6  and  C_8 
REMARK   10  A    between atoms: C_9  and  C_11 
REMARK   11  A    between atoms: C_10  and  C_12 
REMARK   12  A    between atoms: C_11  and  C_13 
REMARK   13  A    between atoms: C_12  and  C_14 
ROOT
HETATM    1  C   UNK N   1      31.227  16.290   7.141  0.00  0.00     0.021 C 
ENDROOT
BRANCH   1   2
HETATM    2  C   UNK N   1      30.221  16.520   6.043  0.00  0.00     0.021 C 
BRANCH   2   3
HETATM    3  C   UNK N   1      30.879  17.289   4.925  0.00  0.00     0.113 C 
BRANCH   3   4
HETATM    4  N   UNK N   1      29.886  18.136   4.297  0.00  0.00    -0.421 N 
HETATM    5  H   UNK N   1      29.969  18.603   3.395  0.00  0.00     0.153 HD
BRANCH   4   6
HETATM    6  C   UNK N   1      28.753  18.191   5.197  0.00  0.00     0.115 C 
BRANCH   6   7
HETATM    7  C   UNK N   1      27.996  19.473   4.942  0.00  0.00     0.038 C 
BRANCH   7   8
HETATM    8  C   UNK N   1      26.892  19.222   3.940  0.00  0.00     0.112 C 
BRANCH   8   9
HETATM    9  N   UNK N   1      26.589  20.460   3.248  0.00  0.00    -0.430 N 
HETATM   10  H   UNK N   1      27.068  20.688   2.377  0.00  0.00     0.149 HD
HETATM   11  H   UNK N   1      25.897  21.103   3.633  0.00  0.00     0.149 HD
ENDBRANCH   8   9
ENDBRANCH   7   8
ENDBRANCH   6   7
ENDBRANCH   4   6
ENDBRANCH   3   4
ENDBRANCH   2   3
ENDBRANCH   1   2
BRANCH   1  12
HETATM   12  C   UNK N   1      30.922  17.218   8.289  0.00  0.00     0.113 C 
BRANCH  12  13
HETATM   13  N   UNK N   1      32.159  17.531   8.974  0.00  0.00    -0.421 N 
HETATM   14  H   UNK N   1      32.355  17.397   9.966  0.00  0.00     0.153 HD
BRANCH  13  15
HETATM   15  C   UNK N   1      33.064  18.070   7.980  0.00  0.00     0.115 C 
BRANCH  15  16
HETATM   16  C   UNK N   1      34.481  17.896   8.474  0.00  0.00     0.038 C 
BRANCH  16  17
HETATM   17  C   UNK N   1      34.549  16.723   9.424  0.00  0.00     0.112 C 
BRANCH  17  18
HETATM   18  N   UNK N   1      35.160  17.154  10.667  0.00  0.00    -0.430 N 
HETATM   19  H   UNK N   1      35.453  18.124  10.782  0.00  0.00     0.149 HD
HETATM   20  H   UNK N   1      35.296  16.486  11.426  0.00  0.00     0.149 HD
ENDBRANCH  17  18
ENDBRANCH  16  17
ENDBRANCH  15  16
ENDBRANCH  13  15
ENDBRANCH  12  13
ENDBRANCH   1  12
TORSDOF 13
ENDMDL
MODEL 9
REMARK VINA RESULT:      -3.6      2.405      3.029
REMARK  13 active torsions:
REMARK  status: ('A' for Active; 'I' for Inactive)
REMARK    1  A    between atoms: N_1  and  C_7 
REMARK    2  A    between atoms: N_1  and  C_9 
REMARK    3  A    between atoms: N_2  and  C_8 
REMARK    4  A    between atoms: N_2  and  C_10 
REMARK    5  A    between atoms: N_3  and  C_13 
REMARK    6  A    between atoms: N_4  and  C_14 
REMARK    7  A    between atoms: C_5  and  C_6 
REMARK    8  A    between atoms: C_5  and  C_7 
REMARK    9  A    between atoms: C_6  and  C_8 
REMARK   10  A    between atoms: C_9  and  C_11 
REMARK   11  A    between atoms: C_10  and  C_12 
REMARK   12  A    between atoms: C_11  and  C_13 
REMARK   13  A    between atoms: C_12  and  C_14 
ROOT
HETATM    1  C   UNK N   1      30.130  18.390   8.949  0.00  0.00     0.021 C 
ENDROOT
BRANCH   1   2
HETATM    2  C   UNK N   1      31.051  17.558   8.094  0.00  0.00     0.021 C 
BRANCH   2   3
HETATM    3  C   UNK N   1      32.480  17.894   8.439  0.00  0.00     0.113 C 
BRANCH   3   4
HETATM    4  N   UNK N   1      33.315  17.601   7.293  0.00  0.00    -0.421 N 
HETATM    5  H   UNK N   1      34.334  17.635   7.258  0.00  0.00     0.153 HD
BRANCH   4   6
HETATM    6  C   UNK N   1      32.425  17.251   6.204  0.00  0.00     0.115 C 
BRANCH   6   7
HETATM    7  C   UNK N   1      33.130  17.529   4.898  0.00  0.00     0.038 C 
BRANCH   7   8
HETATM    8  C   UNK N   1      32.165  17.341   3.749  0.00  0.00     0.112 C 
BRANCH   8   9
HETATM    9  N   UNK N   1      32.791  16.517   2.734  0.00  0.00    -0.430 N 
HETATM   10  H   UNK N   1      32.941  15.523   2.905  0.00  0.00     0.149 HD
HETATM   11  H   UNK N   1      33.082  16.932   1.848  0.00  0.00     0.149 HD
ENDBRANCH   8   9
ENDBRANCH   7   8
ENDBRANCH   6   7
ENDBRANCH   4   6
ENDBRANCH   3   4
ENDBRANCH   2   3
ENDBRANCH   1   2
BRANCH   1  12
HETATM   12  C   UNK N   1      28.733  17.830   8.856  0.00  0.00     0.113 C 
BRANCH  12  13
HETATM   13  N   UNK N   1      27.832  18.894   8.464  0.00  0.00    -0.421 N 
HETATM   14  H   UNK N   1      27.234  19.443   9.083  0.00  0.00     0.153 HD
BRANCH  13  15
HETATM   15  C   UNK N   1      27.943  19.030   7.027  0.00  0.00     0.115 C 
BRANCH  15  16
HETATM   16  C   UNK N   1      27.336  20.351   6.619  0.00  0.00     0.038 C 
BRANCH  16  17
HETATM   17  C   UNK N   1      27.596  20.600   5.151  0.00  0.00     0.112 C 
BRANCH  17  18
HETATM   18  N   UNK N   1      28.386  19.506   4.618  0.00  0.00    -0.430 N 
HETATM   19  H   UNK N   1      28.128  19.076   3.730  0.00  0.00     0.149 HD
HETATM   20  H   UNK N   1      29.199  19.166   5.133  0.00  0.00     0.149 HD
ENDBRANCH  17  18
ENDBRANCH  16  17
ENDBRANCH  15  16
ENDBRANCH  13  15
ENDBRANCH  12  13
ENDBRANCH   1  12
TORSDOF 13
ENDMDL
