MODEL 1
REMARK VINA RESULT:      -4.5      0.000      0.000
REMARK  6 active torsions:
REMARK  status: ('A' for Active; 'I' for Inactive)
REMARK    1  A    between atoms: O_1  and  C_8 
REMARK    2  A    between atoms: O_2  and  C_9 
REMARK    3  A    between atoms: C_6  and  N_5 
REMARK    4  A    between atoms: C_6  and  C_7 
REMARK    5  A    between atoms: C_6  and  C_8 
REMARK    6  A    between atoms: C_7  and  C_9 
ROOT
HETATM    1  C   UNK N   1      34.341  17.165   9.175  0.00  0.00     0.183 C 
ENDROOT
BRANCH   1   2
HETATM    2  N   UNK N   1      35.003  17.161  10.471  0.00  0.00    -0.417 N 
HETATM    3  H   UNK N   1      35.614  16.385  10.729  0.00  0.00     0.150 HD
HETATM    4  H   UNK N   1      34.857  17.932  11.122  0.00  0.00     0.150 HD
ENDBRANCH   1   2
BRANCH   1   5
HETATM    5  C   UNK N   1      33.290  16.110   8.803  0.00  0.00     0.145 C 
BRANCH   5   6
HETATM    6  C   UNK N   1      33.151  14.883   9.660  0.00  0.00     0.141 C 
HETATM    7  O   UNK N   1      33.192  13.760   9.185  0.00  0.00    -0.650 OA
BRANCH   6   8
HETATM    8  O   UNK N   1      32.976  15.036  10.985  0.00  0.00    -0.776 OA
HETATM    9  H   UNK N   1      32.242  15.522  11.308  0.00  0.00     0.167 HD
ENDBRANCH   6   8
ENDBRANCH   5   6
ENDBRANCH   1   5
BRANCH   1  10
HETATM   10  C   UNK N   1      34.710  18.236   8.195  0.00  0.00     0.163 C 
HETATM   11  O   UNK N   1      34.423  18.107   7.017  0.00  0.00    -0.648 OA
BRANCH  10  12
HETATM   12  O   UNK N   1      35.358  19.342   8.607  0.00  0.00    -0.775 OA
HETATM   13  H   UNK N   1      35.162  19.716   9.443  0.00  0.00     0.167 HD
ENDBRANCH  10  12
ENDBRANCH   1  10
TORSDOF 6
ENDMDL
MODEL 2
REMARK VINA RESULT:      -4.5      1.563      1.888
REMARK  6 active torsions:
REMARK  status: ('A' for Active; 'I' for Inactive)
REMARK    1  A    between atoms: O_1  and  C_8 
REMARK    2  A    between atoms: O_2  and  C_9 
REMARK    3  A    between atoms: C_6  and  N_5 
REMARK    4  A    between atoms: C_6  and  C_7 
REMARK    5  A    between atoms: C_6  and  C_8 
REMARK    6  A    between atoms: C_7  and  C_9 
ROOT
HETATM    1  C   UNK N   1      34.026  17.126   8.918  0.00  0.00     0.183 C 
ENDROOT
BRANCH   1   2
HETATM    2  N   UNK N   1      32.594  17.124   9.175  0.00  0.00    -0.417 N 
HETATM    3  H   UNK N   1      32.171  16.355   9.696  0.00  0.00     0.150 HD
HETATM    4  H   UNK N   1      32.013  17.890   8.836  0.00  0.00     0.150 HD
ENDBRANCH   1   2
BRANCH   1   5
HETATM    5  C   UNK N   1      34.957  16.067   9.526  0.00  0.00     0.145 C 
BRANCH   5   6
HETATM    6  C   UNK N   1      34.700  15.586  10.927  0.00  0.00     0.141 C 
HETATM    7  O   UNK N   1      35.531  15.713  11.811  0.00  0.00    -0.650 OA
BRANCH   6   8
HETATM    8  O   UNK N   1      33.520  15.003  11.204  0.00  0.00    -0.776 OA
HETATM    9  H   UNK N   1      32.799  15.101  10.614  0.00  0.00     0.167 HD
ENDBRANCH   6   8
ENDBRANCH   5   6
ENDBRANCH   1   5
BRANCH   1  10
HETATM   10  C   UNK N   1      34.585  18.199   8.034  0.00  0.00     0.163 C 
HETATM   11  O   UNK N   1      34.408  18.146   6.828  0.00  0.00    -0.648 OA
BRANCH  10  12
HETATM   12  O   UNK N   1      35.282  19.222   8.562  0.00  0.00    -0.775 OA
HETATM   13  H   UNK N   1      35.401  20.011   8.069  0.00  0.00     0.167 HD
ENDBRANCH  10  12
ENDBRANCH   1  10
TORSDOF 6
ENDMDL
MODEL 3
REMARK VINA RESULT:      -4.4     11.732     13.029
REMARK  6 active torsions:
REMARK  status: ('A' for Active; 'I' for Inactive)
REMARK    1  A    between atoms: O_1  and  C_8 
REMARK    2  A    between atoms: O_2  and  C_9 
REMARK    3  A    between atoms: C_6  and  N_5 
REMARK    4  A    between atoms: C_6  and  C_7 
REMARK    5  A    between atoms: C_6  and  C_8 
REMARK    6  A    between atoms: C_7  and  C_9 
ROOT
HETATM    1  C   UNK N   1      21.410  12.364  10.961  0.00  0.00     0.183 C 
ENDROOT
BRANCH   1   2
HETATM    2  N   UNK N   1      20.498  11.806  11.948  0.00  0.00    -0.417 N 
HETATM    3  H   UNK N   1      20.547  10.815  12.185  0.00  0.00     0.150 HD
HETATM    4  H   UNK N   1      19.810  12.405  12.403  0.00  0.00     0.150 HD
ENDBRANCH   1   2
BRANCH   1   5
HETATM    5  C   UNK N   1      22.840  11.828  10.791  0.00  0.00     0.145 C 
BRANCH   5   6
HETATM    6  C   UNK N   1      23.842  12.058  11.887  0.00  0.00     0.141 C 
HETATM    7  O   UNK N   1      23.532  11.990  13.065  0.00  0.00    -0.650 OA
BRANCH   6   8
HETATM    8  O   UNK N   1      25.112  12.348  11.552  0.00  0.00    -0.776 OA
HETATM    9  H   UNK N   1      25.500  11.948  10.798  0.00  0.00     0.167 HD
ENDBRANCH   6   8
ENDBRANCH   5   6
ENDBRANCH   1   5
BRANCH   1  10
HETATM   10  C   UNK N   1      20.921  13.487  10.100  0.00  0.00     0.163 C 
HETATM   11  O   UNK N   1      21.722  14.235   9.563  0.00  0.00    -0.648 OA
BRANCH  10  12
HETATM   12  O   UNK N   1      19.602  13.678   9.914  0.00  0.00    -0.775 OA
HETATM   13  H   UNK N   1      19.027  13.732  10.653  0.00  0.00     0.167 HD
ENDBRANCH  10  12
ENDBRANCH   1  10
TORSDOF 6
ENDMDL
MODEL 4
REMARK VINA RESULT:      -4.4      0.872      3.995
REMARK  6 active torsions:
REMARK  status: ('A' for Active; 'I' for Inactive)
REMARK    1  A    between atoms: O_1  and  C_8 
REMARK    2  A    between atoms: O_2  and  C_9 
REMARK    3  A    between atoms: C_6  and  N_5 
REMARK    4  A    between atoms: C_6  and  C_7 
REMARK    5  A    between atoms: C_6  and  C_8 
REMARK    6  A    between atoms: C_7  and  C_9 
ROOT
HETATM    1  C   UNK N   1      34.440  16.524   9.919  0.00  0.00     0.183 C 
ENDROOT
BRANCH   1   2
HETATM    2  N   UNK N   1      35.553  17.115  10.646  0.00  0.00    -0.417 N 
HETATM    3  H   UNK N   1      36.475  16.679  10.609  0.00  0.00     0.150 HD
HETATM    4  H   UNK N   1      35.413  17.964  11.193  0.00  0.00     0.150 HD
ENDBRANCH   1   2
BRANCH   1   5
HETATM    5  C   UNK N   1      33.705  17.289   8.809  0.00  0.00     0.145 C 
BRANCH   5   6
HETATM    6  C   UNK N   1      34.484  18.219   7.923  0.00  0.00     0.141 C 
HETATM    7  O   UNK N   1      34.452  18.125   6.707  0.00  0.00    -0.650 OA
BRANCH   6   8
HETATM    8  O   UNK N   1      35.235  19.179   8.494  0.00  0.00    -0.776 OA
HETATM    9  H   UNK N   1      35.189  20.060   8.178  0.00  0.00     0.167 HD
ENDBRANCH   6   8
ENDBRANCH   5   6
ENDBRANCH   1   5
BRANCH   1  10
HETATM   10  C   UNK N   1      34.017  15.133  10.280  0.00  0.00     0.163 C 
HETATM   11  O   UNK N   1      34.678  14.179   9.901  0.00  0.00    -0.648 OA
BRANCH  10  12
HETATM   12  O   UNK N   1      32.912  14.927  11.019  0.00  0.00    -0.775 OA
HETATM   13  H   UNK N   1      32.844  14.163  11.559  0.00  0.00     0.167 HD
ENDBRANCH  10  12
ENDBRANCH   1  10
TORSDOF 6
ENDMDL
MODEL 5
REMARK VINA RESULT:      -4.4      3.544      4.095
REMARK  6 active torsions:
REMARK  status: ('A' for Active; 'I' for Inactive)
REMARK    1  A    between atoms: O_1  and  C_8 
REMARK    2  A    between atoms: O_2  and  C_9 
REMARK    3  A    between atoms: C_6  and  N_5 
REMARK    4  A    between atoms: C_6  and  C_7 
REMARK    5  A    between atoms: C_6  and  C_8 
REMARK    6  A    between atoms: C_7  and  C_9 
ROOT
HETATM    1  C   UNK N   1      34.729  15.057  11.178  0.00  0.00     0.183 C 
ENDROOT
BRANCH   1   2
HETATM    2  N   UNK N   1      33.336  15.144  10.766  0.00  0.00    -0.417 N 
HETATM    3  H   UNK N   1      32.597  14.837  11.399  0.00  0.00     0.150 HD
HETATM    4  H   UNK N   1      33.098  15.510   9.845  0.00  0.00     0.150 HD
ENDBRANCH   1   2
BRANCH   1   5
HETATM    5  C   UNK N   1      35.280  13.821  11.904  0.00  0.00     0.145 C 
BRANCH   5   6
HETATM    6  C   UNK N   1      35.664  13.933  13.352  0.00  0.00     0.141 C 
HETATM    7  O   UNK N   1      34.959  13.484  14.240  0.00  0.00    -0.650 OA
BRANCH   6   8
HETATM    8  O   UNK N   1      36.817  14.548  13.669  0.00  0.00    -0.776 OA
HETATM    9  H   UNK N   1      36.815  15.453  13.911  0.00  0.00     0.167 HD
ENDBRANCH   6   8
ENDBRANCH   5   6
ENDBRANCH   1   5
BRANCH   1  10
HETATM   10  C   UNK N   1      35.629  16.215  10.877  0.00  0.00     0.163 C 
HETATM   11  O   UNK N   1      35.150  17.300  10.590  0.00  0.00    -0.648 OA
BRANCH  10  12
HETATM   12  O   UNK N   1      36.967  16.067  10.919  0.00  0.00    -0.775 OA
HETATM   13  H   UNK N   1      37.378  15.740  11.696  0.00  0.00     0.167 HD
ENDBRANCH  10  12
ENDBRANCH   1  10
TORSDOF 6
ENDMDL
MODEL 6
REMARK VINA RESULT:      -4.3      1.882      2.355
REMARK  6 active torsions:
REMARK  status: ('A' for Active; 'I' for Inactive)
REMARK    1  A    between atoms: O_1  and  C_8 
REMARK    2  A    between atoms: O_2  and  C_9 
REMARK    3  A    between atoms: C_6  and  N_5 
REMARK    4  A    between atoms: C_6  and  C_7 
REMARK    5  A    between atoms: C_6  and  C_8 
REMARK    6  A    between atoms: C_7  and  C_9 
ROOT
HETATM    1  C   UNK N   1      34.157  17.235   9.080  0.00  0.00     0.183 C 
ENDROOT
BRANCH   1   2
HETATM    2  N   UNK N   1      34.835  17.106  10.361  0.00  0.00    -0.417 N 
HETATM    3  H   UNK N   1      35.664  16.516  10.442  0.00  0.00     0.150 HD
HETATM    4  H   UNK N   1      34.482  17.605  11.177  0.00  0.00     0.150 HD
ENDBRANCH   1   2
BRANCH   1   5
HETATM    5  C   UNK N   1      32.969  16.338   8.702  0.00  0.00     0.145 C 
BRANCH   5   6
HETATM    6  C   UNK N   1      31.633  16.970   8.430  0.00  0.00     0.141 C 
HETATM    7  O   UNK N   1      31.336  17.392   7.325  0.00  0.00    -0.650 OA
BRANCH   6   8
HETATM    8  O   UNK N   1      30.747  17.067   9.438  0.00  0.00    -0.776 OA
HETATM    9  H   UNK N   1      30.395  17.903   9.673  0.00  0.00     0.167 HD
ENDBRANCH   6   8
ENDBRANCH   5   6
ENDBRANCH   1   5
BRANCH   1  10
HETATM   10  C   UNK N   1      34.647  18.276   8.121  0.00  0.00     0.163 C 
HETATM   11  O   UNK N   1      35.280  19.234   8.535  0.00  0.00    -0.648 OA
BRANCH  10  12
HETATM   12  O   UNK N   1      34.394  18.163   6.804  0.00  0.00    -0.775 OA
HETATM   13  H   UNK N   1      35.093  17.982   6.206  0.00  0.00     0.167 HD
ENDBRANCH  10  12
ENDBRANCH   1  10
TORSDOF 6
ENDMDL
MODEL 7
REMARK VINA RESULT:      -4.2     11.718     13.030
REMARK  6 active torsions:
REMARK  status: ('A' for Active; 'I' for Inactive)
REMARK    1  A    between atoms: O_1  and  C_8 
REMARK    2  A    between atoms: O_2  and  C_9 
REMARK    3  A    between atoms: C_6  and  N_5 
REMARK    4  A    between atoms: C_6  and  C_7 
REMARK    5  A    between atoms: C_6  and  C_8 
REMARK    6  A    between atoms: C_7  and  C_9 
ROOT
HETATM    1  C   UNK N   1      22.441  12.211  11.439  0.00  0.00     0.183 C 
ENDROOT
BRANCH   1   2
HETATM    2  N   UNK N   1      21.216  11.679  12.018  0.00  0.00    -0.417 N 
HETATM    3  H   UNK N   1      21.175  11.464  13.015  0.00  0.00     0.150 HD
HETATM    4  H   UNK N   1      20.399  11.522  11.429  0.00  0.00     0.150 HD
ENDBRANCH   1   2
BRANCH   1   5
HETATM    5  C   UNK N   1      22.466  12.828  10.033  0.00  0.00     0.145 C 
BRANCH   5   6
HETATM    6  C   UNK N   1      21.175  12.986   9.281  0.00  0.00     0.141 C 
HETATM    7  O   UNK N   1      21.048  12.595   8.132  0.00  0.00    -0.650 OA
BRANCH   6   8
HETATM    8  O   UNK N   1      20.135  13.577   9.898  0.00  0.00    -0.776 OA
HETATM    9  H   UNK N   1      20.239  14.425  10.283  0.00  0.00     0.167 HD
ENDBRANCH   6   8
ENDBRANCH   5   6
ENDBRANCH   1   5
BRANCH   1  10
HETATM   10  C   UNK N   1      23.696  12.143  12.252  0.00  0.00     0.163 C 
HETATM   11  O   UNK N   1      23.629  12.013  13.464  0.00  0.00    -0.648 OA
BRANCH  10  12
HETATM   12  O   UNK N   1      24.900  12.224  11.656  0.00  0.00    -0.775 OA
HETATM   13  H   UNK N   1      25.550  12.811  11.990  0.00  0.00     0.167 HD
ENDBRANCH  10  12
ENDBRANCH   1  10
TORSDOF 6
ENDMDL
MODEL 8
REMARK VINA RESULT:      -4.2     15.298     16.166
REMARK  6 active torsions:
REMARK  status: ('A' for Active; 'I' for Inactive)
REMARK    1  A    between atoms: O_1  and  C_8 
REMARK    2  A    between atoms: O_2  and  C_9 
REMARK    3  A    between atoms: C_6  and  N_5 
REMARK    4  A    between atoms: C_6  and  C_7 
REMARK    5  A    between atoms: C_6  and  C_8 
REMARK    6  A    between atoms: C_7  and  C_9 
ROOT
HETATM    1  C   UNK N   1      20.418  17.896   2.098  0.00  0.00     0.183 C 
ENDROOT
BRANCH   1   2
HETATM    2  N   UNK N   1      21.078  17.236   3.214  0.00  0.00    -0.417 N 
HETATM    3  H   UNK N   1      22.045  16.923   3.121  0.00  0.00     0.150 HD
HETATM    4  H   UNK N   1      20.576  17.085   4.088  0.00  0.00     0.150 HD
ENDBRANCH   1   2
BRANCH   1   5
HETATM    5  C   UNK N   1      20.138  19.406   2.106  0.00  0.00     0.145 C 
BRANCH   5   6
HETATM    6  C   UNK N   1      20.983  20.311   1.255  0.00  0.00     0.141 C 
HETATM    7  O   UNK N   1      21.983  20.856   1.692  0.00  0.00    -0.650 OA
BRANCH   6   8
HETATM    8  O   UNK N   1      20.620  20.521  -0.024  0.00  0.00    -0.776 OA
HETATM    9  H   UNK N   1      20.706  21.373  -0.402  0.00  0.00     0.167 HD
ENDBRANCH   6   8
ENDBRANCH   5   6
ENDBRANCH   1   5
BRANCH   1  10
HETATM   10  C   UNK N   1      20.009  17.063   0.923  0.00  0.00     0.163 C 
HETATM   11  O   UNK N   1      20.369  17.376  -0.200  0.00  0.00    -0.648 OA
BRANCH  10  12
HETATM   12  O   UNK N   1      19.245  15.968   1.097  0.00  0.00    -0.775 OA
HETATM   13  H   UNK N   1      19.526  15.142   0.756  0.00  0.00     0.167 HD
ENDBRANCH  10  12
ENDBRANCH   1  10
TORSDOF 6
ENDMDL
MODEL 9
REMARK VINA RESULT:      -4.1     15.049     15.452
REMARK  6 active torsions:
REMARK  status: ('A' for Active; 'I' for Inactive)
REMARK    1  A    between atoms: O_1  and  C_8 
REMARK    2  A    between atoms: O_2  and  C_9 
REMARK    3  A    between atoms: C_6  and  N_5 
REMARK    4  A    between atoms: C_6  and  C_7 
REMARK    5  A    between atoms: C_6  and  C_8 
REMARK    6  A    between atoms: C_7  and  C_9 
ROOT
HETATM    1  C   UNK N   1      20.533  19.044   1.775  0.00  0.00     0.183 C 
ENDROOT
BRANCH   1   2
HETATM    2  N   UNK N   1      20.025  18.019   0.875  0.00  0.00    -0.417 N 
HETATM    3  H   UNK N   1      20.537  17.144   0.758  0.00  0.00     0.150 HD
HETATM    4  H   UNK N   1      19.159  18.175   0.361  0.00  0.00     0.150 HD
ENDBRANCH   1   2
BRANCH   1   5
HETATM    5  C   UNK N   1      20.710  18.781   3.278  0.00  0.00     0.145 C 
BRANCH   5   6
HETATM    6  C   UNK N   1      20.231  17.479   3.854  0.00  0.00     0.141 C 
HETATM    7  O   UNK N   1      20.969  16.752   4.497  0.00  0.00    -0.650 OA
BRANCH   6   8
HETATM    8  O   UNK N   1      18.953  17.112   3.649  0.00  0.00    -0.776 OA
HETATM    9  H   UNK N   1      18.341  17.129   4.358  0.00  0.00     0.167 HD
ENDBRANCH   6   8
ENDBRANCH   5   6
ENDBRANCH   1   5
BRANCH   1  10
HETATM   10  C   UNK N   1      20.885  20.381   1.199  0.00  0.00     0.163 C 
HETATM   11  O   UNK N   1      21.414  21.226   1.902  0.00  0.00    -0.648 OA
BRANCH  10  12
HETATM   12  O   UNK N   1      20.622  20.657  -0.092  0.00  0.00    -0.775 OA
HETATM   13  H   UNK N   1      19.754  20.548  -0.427  0.00  0.00     0.167 HD
ENDBRANCH  10  12
ENDBRANCH   1  10
TORSDOF 6
ENDMDL
