MODEL 1
REMARK VINA RESULT:      -6.7      0.000      0.000
REMARK  9 active torsions:
REMARK  status: ('A' for Active; 'I' for Inactive)
REMARK    1  A    between atoms: P_1  and  O_5 
REMARK    2  A    between atoms: P_1  and  O_6 
REMARK    3  A    between atoms: P_1  and  O_7 
REMARK    4  A    between atoms: C_17  and  O_3 
REMARK    5  A    between atoms: C_18  and  O_4 
REMARK    6  A    between atoms: O_5  and  C_21 
REMARK    7  A    between atoms: C_19  and  N_9 
REMARK    8  A    between atoms: N_16  and  C_25 
REMARK    9  A    between atoms: C_20  and  C_21 
ROOT
HETATM    1  O   UNK N   1      32.826  15.323   8.180  0.00  0.00    -0.353 OA
HETATM    2  C   UNK N   1      33.945  16.770   6.676  0.00  0.00     0.198 C 
HETATM    3  C   UNK N   1      34.907  15.774   7.211  0.00  0.00     0.182 C 
HETATM    4  C   UNK N   1      32.873  16.669   7.747  0.00  0.00     0.262 C 
HETATM    5  C   UNK N   1      33.915  14.701   7.546  0.00  0.00     0.180 C 
ENDROOT
BRANCH   4   6
HETATM    6  N   UNK N   1      31.557  17.106   7.273  0.00  0.00    -0.297 N 
HETATM    7  C   UNK N   1      30.556  17.638   7.985  0.00  0.00     0.142 A 
HETATM    8  N   UNK N   1      30.538  17.939   9.305  0.00  0.00    -0.336 N 
HETATM    9  C   UNK N   1      29.492  17.833   7.182  0.00  0.00     0.122 A 
HETATM   10  C   UNK N   1      29.388  18.466   9.828  0.00  0.00     0.183 A 
ATOM     11  HN  UNK N   1      31.357  17.778   9.891  1.00  0.00     0.168 HD
HETATM   12  N   UNK N   1      28.286  18.665   9.029  0.00  0.00    -0.337 N 
HETATM   13  C   UNK N   1      28.316  18.351   7.700  0.00  0.00     0.131 A 
ATOM     14  HN  UNK N   1      27.435  19.051   9.436  1.00  0.00     0.168 HD
HETATM   15  N   UNK N   1      29.784  17.440   5.929  0.00  0.00    -0.346 N 
HETATM   16  C   UNK N   1      31.069  16.992   6.009  0.00  0.00     0.188 A 
ATOM     17  HN  UNK N   1      29.181  17.470   5.107  1.00  0.00     0.167 HD
BRANCH  13  18
HETATM   18  N   UNK N   1      27.178  18.537   6.890  0.00  0.00    -0.383 N 
HETATM   19  H   UNK N   1      26.369  18.976   7.240  0.00  0.00     0.157 HD
HETATM   20  H   UNK N   1      27.191  18.222   5.958  0.00  0.00     0.157 HD
ENDBRANCH  13  18
ENDBRANCH   4   6
BRANCH   2  21
HETATM   21  O   UNK N   1      34.517  18.040   6.635  0.00  0.00    -0.388 OA
HETATM   22  H   UNK N   1      34.176  18.729   6.042  0.00  0.00     0.210 HD
ENDBRANCH   2  21
BRANCH   5  23
HETATM   23  C   UNK N   1      34.507  13.614   8.413  0.00  0.00     0.215 C 
BRANCH  23  24
HETATM   24  O   UNK N   1      33.795  13.611   9.614  0.00  0.00    -0.294 OA
BRANCH  24  25
HETATM   25  P   UNK N   1      34.942  13.984  10.861  0.00  0.00     0.390 P 
HETATM   26  O   UNK N   1      34.779  12.450  11.048  0.00  0.00    -0.632 OA
BRANCH  25  27
HETATM   27  O   UNK N   1      33.426  14.784  11.137  0.00  0.00    -0.307 OA
HETATM   28  H   UNK N   1      32.679  14.373  11.600  0.00  0.00     0.222 HD
ENDBRANCH  25  27
BRANCH  25  29
HETATM   29  O   UNK N   1      34.458  13.846  12.522  0.00  0.00    -0.307 OA
HETATM   30  H   UNK N   1      34.509  13.106  13.146  0.00  0.00     0.222 HD
ENDBRANCH  25  29
ENDBRANCH  24  25
ENDBRANCH  23  24
ENDBRANCH   5  23
BRANCH   3  31
HETATM   31  O   UNK N   1      35.801  15.348   6.227  0.00  0.00    -0.390 OA
HETATM   32  H   UNK N   1      35.818  14.883   5.376  0.00  0.00     0.210 HD
ENDBRANCH   3  31
TORSDOF 9
ENDMDL
MODEL 2
REMARK VINA RESULT:      -6.5      9.990     12.275
REMARK  9 active torsions:
REMARK  status: ('A' for Active; 'I' for Inactive)
REMARK    1  A    between atoms: P_1  and  O_5 
REMARK    2  A    between atoms: P_1  and  O_6 
REMARK    3  A    between atoms: P_1  and  O_7 
REMARK    4  A    between atoms: C_17  and  O_3 
REMARK    5  A    between atoms: C_18  and  O_4 
REMARK    6  A    between atoms: O_5  and  C_21 
REMARK    7  A    between atoms: C_19  and  N_9 
REMARK    8  A    between atoms: N_16  and  C_25 
REMARK    9  A    between atoms: C_20  and  C_21 
ROOT
HETATM    1  O   UNK N   1      20.889  15.975   6.095  0.00  0.00    -0.353 OA
HETATM    2  C   UNK N   1      23.206  15.833   6.560  0.00  0.00     0.198 C 
HETATM    3  C   UNK N   1      22.992  16.709   5.380  0.00  0.00     0.182 C 
HETATM    4  C   UNK N   1      21.888  15.080   6.544  0.00  0.00     0.262 C 
HETATM    5  C   UNK N   1      21.587  17.127   5.697  0.00  0.00     0.180 C 
ENDROOT
BRANCH   4   6
HETATM    6  N   UNK N   1      21.536  14.528   7.855  0.00  0.00    -0.297 N 
HETATM    7  C   UNK N   1      22.090  13.488   8.490  0.00  0.00     0.142 A 
HETATM    8  N   UNK N   1      23.135  12.726   8.090  0.00  0.00    -0.336 N 
HETATM    9  C   UNK N   1      21.427  13.263   9.641  0.00  0.00     0.122 A 
HETATM   10  C   UNK N   1      23.525  11.693   8.900  0.00  0.00     0.183 A 
ATOM     11  HN  UNK N   1      23.618  12.916   7.212  1.00  0.00     0.168 HD
HETATM   12  N   UNK N   1      22.856  11.439  10.075  0.00  0.00    -0.337 N 
HETATM   13  C   UNK N   1      21.800  12.212  10.463  0.00  0.00     0.131 A 
ATOM     14  HN  UNK N   1      23.154  10.661  10.663  1.00  0.00     0.168 HD
HETATM   15  N   UNK N   1      20.434  14.159   9.782  0.00  0.00    -0.346 N 
HETATM   16  C   UNK N   1      20.521  14.933   8.663  0.00  0.00     0.188 A 
ATOM     17  HN  UNK N   1      19.769  14.241  10.550  1.00  0.00     0.167 HD
BRANCH  13  18
HETATM   18  N   UNK N   1      21.105  11.934  11.658  0.00  0.00    -0.383 N 
HETATM   19  H   UNK N   1      20.324  12.469  11.931  0.00  0.00     0.157 HD
HETATM   20  H   UNK N   1      21.406  11.193  12.231  0.00  0.00     0.157 HD
ENDBRANCH  13  18
ENDBRANCH   4   6
BRANCH   2  21
HETATM   21  O   UNK N   1      24.291  14.982   6.357  0.00  0.00    -0.388 OA
HETATM   22  H   UNK N   1      24.546  14.693   5.466  0.00  0.00     0.210 HD
ENDBRANCH   2  21
BRANCH   5  23
HETATM   23  C   UNK N   1      20.908  17.806   4.531  0.00  0.00     0.215 C 
BRANCH  23  24
HETATM   24  O   UNK N   1      21.190  19.170   4.625  0.00  0.00    -0.294 OA
BRANCH  24  25
HETATM   25  P   UNK N   1      21.388  19.740   2.999  0.00  0.00     0.390 P 
HETATM   26  O   UNK N   1      22.821  19.939   3.566  0.00  0.00    -0.632 OA
BRANCH  25  27
HETATM   27  O   UNK N   1      20.256  20.719   3.878  0.00  0.00    -0.307 OA
HETATM   28  H   UNK N   1      20.456  21.611   4.204  0.00  0.00     0.222 HD
ENDBRANCH  25  27
BRANCH  25  29
HETATM   29  O   UNK N   1      21.681  21.429   2.726  0.00  0.00    -0.307 OA
HETATM   30  H   UNK N   1      22.483  21.966   2.822  0.00  0.00     0.222 HD
ENDBRANCH  25  29
ENDBRANCH  24  25
ENDBRANCH  23  24
ENDBRANCH   5  23
BRANCH   3  31
HETATM   31  O   UNK N   1      23.860  17.800   5.390  0.00  0.00    -0.390 OA
HETATM   32  H   UNK N   1      24.647  18.132   5.849  0.00  0.00     0.210 HD
ENDBRANCH   3  31
TORSDOF 9
ENDMDL
MODEL 3
REMARK VINA RESULT:      -6.5      2.661      3.725
REMARK  9 active torsions:
REMARK  status: ('A' for Active; 'I' for Inactive)
REMARK    1  A    between atoms: P_1  and  O_5 
REMARK    2  A    between atoms: P_1  and  O_6 
REMARK    3  A    between atoms: P_1  and  O_7 
REMARK    4  A    between atoms: C_17  and  O_3 
REMARK    5  A    between atoms: C_18  and  O_4 
REMARK    6  A    between atoms: O_5  and  C_21 
REMARK    7  A    between atoms: C_19  and  N_9 
REMARK    8  A    between atoms: N_16  and  C_25 
REMARK    9  A    between atoms: C_20  and  C_21 
ROOT
HETATM    1  O   UNK N   1      34.398  13.820  10.528  0.00  0.00    -0.353 OA
HETATM    2  C   UNK N   1      34.977  16.034   9.922  0.00  0.00     0.198 C 
HETATM    3  C   UNK N   1      35.862  15.576  11.022  0.00  0.00     0.182 C 
HETATM    4  C   UNK N   1      33.838  15.046  10.102  0.00  0.00     0.262 C 
HETATM    5  C   UNK N   1      35.754  14.103  10.763  0.00  0.00     0.180 C 
ENDROOT
BRANCH   4   6
HETATM    6  N   UNK N   1      33.053  14.860   8.878  0.00  0.00    -0.297 N 
HETATM    7  C   UNK N   1      32.141  15.683   8.347  0.00  0.00     0.142 A 
HETATM    8  N   UNK N   1      31.757  16.903   8.792  0.00  0.00    -0.336 N 
HETATM    9  C   UNK N   1      31.599  15.105   7.257  0.00  0.00     0.122 A 
HETATM   10  C   UNK N   1      30.784  17.565   8.093  0.00  0.00     0.183 A 
ATOM     11  HN  UNK N   1      32.181  17.316   9.623  1.00  0.00     0.168 HD
HETATM   12  N   UNK N   1      30.211  16.991   6.983  0.00  0.00    -0.337 N 
HETATM   13  C   UNK N   1      30.603  15.757   6.549  0.00  0.00     0.131 A 
ATOM     14  HN  UNK N   1      29.482  17.494   6.478  1.00  0.00     0.168 HD
HETATM   15  N   UNK N   1      32.157  13.899   7.052  0.00  0.00    -0.346 N 
HETATM   16  C   UNK N   1      33.055  13.767   8.070  0.00  0.00     0.188 A 
ATOM     17  HN  UNK N   1      31.954  13.234   6.306  1.00  0.00     0.167 HD
BRANCH  13  18
HETATM   18  N   UNK N   1      29.998  15.164   5.422  0.00  0.00    -0.383 N 
HETATM   19  H   UNK N   1      30.158  14.219   5.194  0.00  0.00     0.157 HD
HETATM   20  H   UNK N   1      29.404  15.704   4.852  0.00  0.00     0.157 HD
ENDBRANCH  13  18
ENDBRANCH   4   6
BRANCH   2  21
HETATM   21  O   UNK N   1      34.561  17.348  10.134  0.00  0.00    -0.388 OA
HETATM   22  H   UNK N   1      33.632  17.607  10.028  0.00  0.00     0.210 HD
ENDBRANCH   2  21
BRANCH   5  23
HETATM   23  C   UNK N   1      36.300  13.272  11.900  0.00  0.00     0.215 C 
BRANCH  23  24
HETATM   24  O   UNK N   1      36.434  14.118  13.002  0.00  0.00    -0.294 OA
BRANCH  24  25
HETATM   25  P   UNK N   1      36.401  13.098  14.406  0.00  0.00     0.390 P 
HETATM   26  O   UNK N   1      34.886  13.359  14.185  0.00  0.00    -0.632 OA
BRANCH  25  27
HETATM   27  O   UNK N   1      37.224  14.593  14.729  0.00  0.00    -0.307 OA
HETATM   28  H   UNK N   1      37.580  14.832  15.599  0.00  0.00     0.222 HD
ENDBRANCH  25  27
BRANCH  25  29
HETATM   29  O   UNK N   1      35.900  13.770  15.925  0.00  0.00    -0.307 OA
HETATM   30  H   UNK N   1      35.828  14.688  16.230  0.00  0.00     0.222 HD
ENDBRANCH  25  29
ENDBRANCH  24  25
ENDBRANCH  23  24
ENDBRANCH   5  23
BRANCH   3  31
HETATM   31  O   UNK N   1      37.171  16.026  10.846  0.00  0.00    -0.390 OA
HETATM   32  H   UNK N   1      37.722  16.507  10.210  0.00  0.00     0.210 HD
ENDBRANCH   3  31
TORSDOF 9
ENDMDL
MODEL 4
REMARK VINA RESULT:      -6.4      5.155      7.585
REMARK  9 active torsions:
REMARK  status: ('A' for Active; 'I' for Inactive)
REMARK    1  A    between atoms: P_1  and  O_5 
REMARK    2  A    between atoms: P_1  and  O_6 
REMARK    3  A    between atoms: P_1  and  O_7 
REMARK    4  A    between atoms: C_17  and  O_3 
REMARK    5  A    between atoms: C_18  and  O_4 
REMARK    6  A    between atoms: O_5  and  C_21 
REMARK    7  A    between atoms: C_19  and  N_9 
REMARK    8  A    between atoms: N_16  and  C_25 
REMARK    9  A    between atoms: C_20  and  C_21 
ROOT
HETATM    1  O   UNK N   1      34.172  14.284  10.099  0.00  0.00    -0.353 OA
HETATM    2  C   UNK N   1      35.806  15.831  10.835  0.00  0.00     0.198 C 
HETATM    3  C   UNK N   1      35.221  16.302   9.554  0.00  0.00     0.182 C 
HETATM    4  C   UNK N   1      35.426  14.363  10.748  0.00  0.00     0.262 C 
HETATM    5  C   UNK N   1      33.905  15.593   9.666  0.00  0.00     0.180 C 
ENDROOT
BRANCH   4   6
HETATM    6  N   UNK N   1      35.371  13.715  12.061  0.00  0.00    -0.297 N 
HETATM    7  C   UNK N   1      34.899  12.499  12.364  0.00  0.00     0.142 A 
HETATM    8  N   UNK N   1      34.399  11.564  11.523  0.00  0.00    -0.336 N 
HETATM    9  C   UNK N   1      34.967  12.314  13.698  0.00  0.00     0.122 A 
HETATM   10  C   UNK N   1      33.953  10.387  12.062  0.00  0.00     0.183 A 
ATOM     11  HN  UNK N   1      34.355  11.731  10.518  1.00  0.00     0.168 HD
HETATM   12  N   UNK N   1      34.004  10.180  13.421  0.00  0.00    -0.337 N 
HETATM   13  C   UNK N   1      34.505  11.135  14.259  0.00  0.00     0.131 A 
ATOM     14  HN  UNK N   1      33.660   9.301  13.808  1.00  0.00     0.168 HD
HETATM   15  N   UNK N   1      35.493  13.403  14.286  0.00  0.00    -0.346 N 
HETATM   16  C   UNK N   1      35.737  14.258  13.252  0.00  0.00     0.188 A 
ATOM     17  HN  UNK N   1      35.671  13.553  15.279  1.00  0.00     0.167 HD
BRANCH  13  18
HETATM   18  N   UNK N   1      34.536  10.926  15.652  0.00  0.00    -0.383 N 
HETATM   19  H   UNK N   1      35.125  10.247  16.054  0.00  0.00     0.157 HD
HETATM   20  H   UNK N   1      33.957  11.468  16.235  0.00  0.00     0.157 HD
ENDBRANCH  13  18
ENDBRANCH   4   6
BRANCH   2  21
HETATM   21  O   UNK N   1      37.189  16.007  10.844  0.00  0.00    -0.388 OA
HETATM   22  H   UNK N   1      37.586  16.884  10.969  0.00  0.00     0.210 HD
ENDBRANCH   2  21
BRANCH   5  23
HETATM   23  C   UNK N   1      33.133  15.595   8.367  0.00  0.00     0.215 C 
BRANCH  23  24
HETATM   24  O   UNK N   1      33.939  16.216   7.410  0.00  0.00    -0.294 OA
BRANCH  24  25
HETATM   25  P   UNK N   1      32.890  17.240   6.481  0.00  0.00     0.390 P 
HETATM   26  O   UNK N   1      32.966  15.982   5.574  0.00  0.00    -0.632 OA
BRANCH  25  27
HETATM   27  O   UNK N   1      34.468  17.945   6.658  0.00  0.00    -0.307 OA
HETATM   28  H   UNK N   1      34.618  18.881   6.863  0.00  0.00     0.222 HD
ENDBRANCH  25  27
BRANCH  25  29
HETATM   29  O   UNK N   1      33.458  17.885   4.974  0.00  0.00    -0.307 OA
HETATM   30  H   UNK N   1      34.209  18.462   4.764  0.00  0.00     0.222 HD
ENDBRANCH  25  29
ENDBRANCH  24  25
ENDBRANCH  23  24
ENDBRANCH   5  23
BRANCH   3  31
HETATM   31  O   UNK N   1      35.052  17.687   9.549  0.00  0.00    -0.390 OA
HETATM   32  H   UNK N   1      34.726  18.403   8.983  0.00  0.00     0.210 HD
ENDBRANCH   3  31
TORSDOF 9
ENDMDL
MODEL 5
REMARK VINA RESULT:      -6.1      6.002      8.272
REMARK  9 active torsions:
REMARK  status: ('A' for Active; 'I' for Inactive)
REMARK    1  A    between atoms: P_1  and  O_5 
REMARK    2  A    between atoms: P_1  and  O_6 
REMARK    3  A    between atoms: P_1  and  O_7 
REMARK    4  A    between atoms: C_17  and  O_3 
REMARK    5  A    between atoms: C_18  and  O_4 
REMARK    6  A    between atoms: O_5  and  C_21 
REMARK    7  A    between atoms: C_19  and  N_9 
REMARK    8  A    between atoms: N_16  and  C_25 
REMARK    9  A    between atoms: C_20  and  C_21 
ROOT
HETATM    1  O   UNK N   1      34.580  14.209  11.778  0.00  0.00    -0.353 OA
HETATM    2  C   UNK N   1      36.522  12.975  11.222  0.00  0.00     0.198 C 
HETATM    3  C   UNK N   1      36.502  14.241  10.446  0.00  0.00     0.182 C 
HETATM    4  C   UNK N   1      35.050  12.890  11.582  0.00  0.00     0.262 C 
HETATM    5  C   UNK N   1      35.647  15.036  11.386  0.00  0.00     0.180 C 
ENDROOT
BRANCH   4   6
HETATM    6  N   UNK N   1      34.806  12.071  12.773  0.00  0.00    -0.297 N 
HETATM    7  C   UNK N   1      35.112  12.351  14.046  0.00  0.00     0.142 A 
HETATM    8  N   UNK N   1      35.681  13.476  14.540  0.00  0.00    -0.336 N 
HETATM    9  C   UNK N   1      34.783  11.302  14.825  0.00  0.00     0.122 A 
HETATM   10  C   UNK N   1      35.920  13.537  15.887  0.00  0.00     0.183 A 
ATOM     11  HN  UNK N   1      35.924  14.254  13.928  1.00  0.00     0.168 HD
HETATM   12  N   UNK N   1      35.601  12.474  16.700  0.00  0.00    -0.337 N 
HETATM   13  C   UNK N   1      35.033  11.343  16.187  0.00  0.00     0.131 A 
ATOM     14  HN  UNK N   1      35.793  12.532  17.700  1.00  0.00     0.168 HD
HETATM   15  N   UNK N   1      34.247  10.323  14.074  0.00  0.00    -0.346 N 
HETATM   16  C   UNK N   1      34.272  10.822  12.805  0.00  0.00     0.188 A 
ATOM     17  HN  UNK N   1      33.901   9.415  14.384  1.00  0.00     0.167 HD
BRANCH  13  18
HETATM   18  N   UNK N   1      34.727  10.249  17.021  0.00  0.00    -0.383 N 
HETATM   19  H   UNK N   1      35.085   9.350  16.836  0.00  0.00     0.157 HD
HETATM   20  H   UNK N   1      34.145  10.385  17.802  0.00  0.00     0.157 HD
ENDBRANCH  13  18
ENDBRANCH   4   6
BRANCH   2  21
HETATM   21  O   UNK N   1      36.921  11.907  10.419  0.00  0.00    -0.388 OA
HETATM   22  H   UNK N   1      36.869  10.991  10.735  0.00  0.00     0.210 HD
ENDBRANCH   2  21
BRANCH   5  23
HETATM   23  C   UNK N   1      35.148  16.321  10.770  0.00  0.00     0.215 C 
BRANCH  23  24
HETATM   24  O   UNK N   1      35.234  16.175   9.384  0.00  0.00    -0.294 OA
BRANCH  24  25
HETATM   25  P   UNK N   1      34.252  17.431   8.699  0.00  0.00     0.390 P 
HETATM   26  O   UNK N   1      34.863  16.794   7.421  0.00  0.00    -0.632 OA
BRANCH  25  27
HETATM   27  O   UNK N   1      35.511  18.087   9.700  0.00  0.00    -0.307 OA
HETATM   28  H   UNK N   1      36.156  18.743   9.391  0.00  0.00     0.222 HD
ENDBRANCH  25  27
BRANCH  25  29
HETATM   29  O   UNK N   1      35.024  18.780   7.927  0.00  0.00    -0.307 OA
HETATM   30  H   UNK N   1      35.847  19.252   8.130  0.00  0.00     0.222 HD
ENDBRANCH  25  29
ENDBRANCH  24  25
ENDBRANCH  23  24
ENDBRANCH   5  23
BRANCH   3  31
HETATM   31  O   UNK N   1      37.779  14.792  10.334  0.00  0.00    -0.390 OA
HETATM   32  H   UNK N   1      38.715  14.543  10.399  0.00  0.00     0.210 HD
ENDBRANCH   3  31
TORSDOF 9
ENDMDL
MODEL 6
REMARK VINA RESULT:      -6.0      2.729      4.312
REMARK  9 active torsions:
REMARK  status: ('A' for Active; 'I' for Inactive)
REMARK    1  A    between atoms: P_1  and  O_5 
REMARK    2  A    between atoms: P_1  and  O_6 
REMARK    3  A    between atoms: P_1  and  O_7 
REMARK    4  A    between atoms: C_17  and  O_3 
REMARK    5  A    between atoms: C_18  and  O_4 
REMARK    6  A    between atoms: O_5  and  C_21 
REMARK    7  A    between atoms: C_19  and  N_9 
REMARK    8  A    between atoms: N_16  and  C_25 
REMARK    9  A    between atoms: C_20  and  C_21 
ROOT
HETATM    1  O   UNK N   1      30.610  17.194   6.926  0.00  0.00    -0.353 OA
HETATM    2  C   UNK N   1      28.745  17.725   8.285  0.00  0.00     0.198 C 
HETATM    3  C   UNK N   1      29.857  17.241   9.141  0.00  0.00     0.182 C 
HETATM    4  C   UNK N   1      29.197  17.150   6.954  0.00  0.00     0.262 C 
HETATM    5  C   UNK N   1      30.985  17.597   8.219  0.00  0.00     0.180 C 
ENDROOT
BRANCH   4   6
HETATM    6  N   UNK N   1      28.634  17.869   5.807  0.00  0.00    -0.297 N 
HETATM    7  C   UNK N   1      27.861  18.962   5.814  0.00  0.00     0.142 A 
HETATM    8  N   UNK N   1      27.451  19.687   6.881  0.00  0.00    -0.336 N 
HETATM    9  C   UNK N   1      27.500  19.261   4.551  0.00  0.00     0.122 A 
HETATM   10  C   UNK N   1      26.642  20.768   6.651  0.00  0.00     0.183 A 
ATOM     11  HN  UNK N   1      27.736  19.437   7.828  1.00  0.00     0.168 HD
HETATM   12  N   UNK N   1      26.253  21.086   5.370  0.00  0.00    -0.337 N 
HETATM   13  C   UNK N   1      26.669  20.341   4.304  0.00  0.00     0.131 A 
ATOM     14  HN  UNK N   1      25.643  21.889   5.216  1.00  0.00     0.168 HD
HETATM   15  N   UNK N   1      28.040  18.373   3.697  0.00  0.00    -0.346 N 
HETATM   16  C   UNK N   1      28.739  17.519   4.498  0.00  0.00     0.188 A 
ATOM     17  HN  UNK N   1      27.947  18.346   2.681  1.00  0.00     0.167 HD
BRANCH  13  18
HETATM   18  N   UNK N   1      26.251  20.660   2.996  0.00  0.00    -0.383 N 
HETATM   19  H   UNK N   1      26.810  20.445   2.214  0.00  0.00     0.157 HD
HETATM   20  H   UNK N   1      25.384  21.106   2.861  0.00  0.00     0.157 HD
ENDBRANCH  13  18
ENDBRANCH   4   6
BRANCH   2  21
HETATM   21  O   UNK N   1      27.529  17.183   8.697  0.00  0.00    -0.388 OA
HETATM   22  H   UNK N   1      26.767  17.138   8.097  0.00  0.00     0.210 HD
ENDBRANCH   2  21
BRANCH   5  23
HETATM   23  C   UNK N   1      32.293  16.965   8.633  0.00  0.00     0.215 C 
BRANCH  23  24
HETATM   24  O   UNK N   1      31.984  15.791   9.323  0.00  0.00    -0.294 OA
BRANCH  24  25
HETATM   25  P   UNK N   1      33.376  14.764   9.184  0.00  0.00     0.390 P 
HETATM   26  O   UNK N   1      32.311  13.939   8.411  0.00  0.00    -0.632 OA
BRANCH  25  27
HETATM   27  O   UNK N   1      32.895  14.955  10.842  0.00  0.00    -0.307 OA
HETATM   28  H   UNK N   1      32.040  14.658  11.191  0.00  0.00     0.222 HD
ENDBRANCH  25  27
BRANCH  25  29
HETATM   29  O   UNK N   1      33.388  13.241  10.017  0.00  0.00    -0.307 OA
HETATM   30  H   UNK N   1      34.037  12.842  10.617  0.00  0.00     0.222 HD
ENDBRANCH  25  29
ENDBRANCH  24  25
ENDBRANCH  23  24
ENDBRANCH   5  23
BRANCH   3  31
HETATM   31  O   UNK N   1      29.933  17.959  10.334  0.00  0.00    -0.390 OA
HETATM   32  H   UNK N   1      30.241  17.868  11.249  0.00  0.00     0.210 HD
ENDBRANCH   3  31
TORSDOF 9
ENDMDL
MODEL 7
REMARK VINA RESULT:      -6.0     13.447     15.204
REMARK  9 active torsions:
REMARK  status: ('A' for Active; 'I' for Inactive)
REMARK    1  A    between atoms: P_1  and  O_5 
REMARK    2  A    between atoms: P_1  and  O_6 
REMARK    3  A    between atoms: P_1  and  O_7 
REMARK    4  A    between atoms: C_17  and  O_3 
REMARK    5  A    between atoms: C_18  and  O_4 
REMARK    6  A    between atoms: O_5  and  C_21 
REMARK    7  A    between atoms: C_19  and  N_9 
REMARK    8  A    between atoms: N_16  and  C_25 
REMARK    9  A    between atoms: C_20  and  C_21 
ROOT
HETATM    1  O   UNK N   1      29.663  24.372  -4.476  0.00  0.00    -0.353 OA
HETATM    2  C   UNK N   1      28.660  23.882  -2.387  0.00  0.00     0.198 C 
HETATM    3  C   UNK N   1      29.866  23.034  -2.567  0.00  0.00     0.182 C 
HETATM    4  C   UNK N   1      28.406  24.251  -3.838  0.00  0.00     0.262 C 
HETATM    5  C   UNK N   1      30.596  23.929  -3.523  0.00  0.00     0.180 C 
ENDROOT
BRANCH   4   6
HETATM    6  N   UNK N   1      27.633  25.488  -3.980  0.00  0.00    -0.297 N 
HETATM    7  C   UNK N   1      28.073  26.751  -3.912  0.00  0.00     0.142 A 
HETATM    8  N   UNK N   1      29.344  27.184  -3.739  0.00  0.00    -0.336 N 
HETATM    9  C   UNK N   1      27.028  27.594  -4.024  0.00  0.00     0.122 A 
HETATM   10  C   UNK N   1      29.560  28.535  -3.683  0.00  0.00     0.183 A 
ATOM     11  HN  UNK N   1      30.117  26.524  -3.654  1.00  0.00     0.168 HD
HETATM   12  N   UNK N   1      28.508  29.414  -3.785  0.00  0.00    -0.337 N 
HETATM   13  C   UNK N   1      27.229  28.962  -3.953  0.00  0.00     0.131 A 
ATOM     14  HN  UNK N   1      28.684  30.417  -3.732  1.00  0.00     0.168 HD
HETATM   15  N   UNK N   1      25.889  26.895  -4.176  0.00  0.00    -0.346 N 
HETATM   16  C   UNK N   1      26.288  25.592  -4.146  0.00  0.00     0.188 A 
ATOM     17  HN  UNK N   1      24.943  27.258  -4.289  1.00  0.00     0.167 HD
BRANCH  13  18
HETATM   18  N   UNK N   1      26.151  29.867  -4.036  0.00  0.00    -0.383 N 
HETATM   19  H   UNK N   1      26.041  30.459  -4.815  0.00  0.00     0.157 HD
HETATM   20  H   UNK N   1      25.498  29.908  -3.302  0.00  0.00     0.157 HD
ENDBRANCH  13  18
ENDBRANCH   4   6
BRANCH   2  21
HETATM   21  O   UNK N   1      27.608  23.142  -1.850  0.00  0.00    -0.388 OA
HETATM   22  H   UNK N   1      26.684  23.396  -2.000  0.00  0.00     0.210 HD
ENDBRANCH   2  21
BRANCH   5  23
HETATM   23  C   UNK N   1      31.769  23.241  -4.181  0.00  0.00     0.215 C 
BRANCH  23  24
HETATM   24  O   UNK N   1      31.723  21.897  -3.805  0.00  0.00    -0.294 OA
BRANCH  24  25
HETATM   25  P   UNK N   1      33.342  21.293  -3.958  0.00  0.00     0.390 P 
HETATM   26  O   UNK N   1      32.567  20.325  -4.894  0.00  0.00    -0.632 OA
BRANCH  25  27
HETATM   27  O   UNK N   1      32.762  21.140  -2.328  0.00  0.00    -0.307 OA
HETATM   28  H   UNK N   1      32.978  21.766  -1.620  0.00  0.00     0.222 HD
ENDBRANCH  25  27
BRANCH  25  29
HETATM   29  O   UNK N   1      33.726  19.732  -3.303  0.00  0.00    -0.307 OA
HETATM   30  H   UNK N   1      34.566  19.251  -3.239  0.00  0.00     0.222 HD
ENDBRANCH  25  29
ENDBRANCH  24  25
ENDBRANCH  23  24
ENDBRANCH   5  23
BRANCH   3  31
HETATM   31  O   UNK N   1      30.570  22.887  -1.372  0.00  0.00    -0.390 OA
HETATM   32  H   UNK N   1      31.477  22.824  -1.035  0.00  0.00     0.210 HD
ENDBRANCH   3  31
TORSDOF 9
ENDMDL
MODEL 8
REMARK VINA RESULT:      -6.0     13.966     15.910
REMARK  9 active torsions:
REMARK  status: ('A' for Active; 'I' for Inactive)
REMARK    1  A    between atoms: P_1  and  O_5 
REMARK    2  A    between atoms: P_1  and  O_6 
REMARK    3  A    between atoms: P_1  and  O_7 
REMARK    4  A    between atoms: C_17  and  O_3 
REMARK    5  A    between atoms: C_18  and  O_4 
REMARK    6  A    between atoms: O_5  and  C_21 
REMARK    7  A    between atoms: C_19  and  N_9 
REMARK    8  A    between atoms: N_16  and  C_25 
REMARK    9  A    between atoms: C_20  and  C_21 
ROOT
HETATM    1  O   UNK N   1      43.255  21.051   2.128  0.00  0.00    -0.353 OA
HETATM    2  C   UNK N   1      44.643  21.819   3.887  0.00  0.00     0.198 C 
HETATM    3  C   UNK N   1      43.785  22.934   3.412  0.00  0.00     0.182 C 
HETATM    4  C   UNK N   1      44.554  20.912   2.672  0.00  0.00     0.262 C 
HETATM    5  C   UNK N   1      42.669  22.102   2.855  0.00  0.00     0.180 C 
ENDROOT
BRANCH   4   6
HETATM    6  N   UNK N   1      44.833  19.509   2.992  0.00  0.00    -0.297 N 
HETATM    7  C   UNK N   1      46.000  18.959   3.347  0.00  0.00     0.142 A 
HETATM    8  N   UNK N   1      47.191  19.574   3.535  0.00  0.00    -0.336 N 
HETATM    9  C   UNK N   1      45.842  17.627   3.483  0.00  0.00     0.122 A 
HETATM   10  C   UNK N   1      48.267  18.801   3.882  0.00  0.00     0.183 A 
ATOM     11  HN  UNK N   1      47.284  20.584   3.422  1.00  0.00     0.168 HD
HETATM   12  N   UNK N   1      48.131  17.439   4.017  0.00  0.00    -0.337 N 
HETATM   13  C   UNK N   1      46.925  16.830   3.818  0.00  0.00     0.131 A 
ATOM     14  HN  UNK N   1      48.944  16.877   4.268  1.00  0.00     0.168 HD
HETATM   15  N   UNK N   1      44.566  17.288   3.229  0.00  0.00    -0.346 N 
HETATM   16  C   UNK N   1      43.958  18.471   2.927  0.00  0.00     0.188 A 
ATOM     17  HN  UNK N   1      44.148  16.358   3.257  1.00  0.00     0.167 HD
BRANCH  13  18
HETATM   18  N   UNK N   1      46.796  15.432   3.938  0.00  0.00    -0.383 N 
HETATM   19  H   UNK N   1      46.564  15.012   4.799  0.00  0.00     0.157 HD
HETATM   20  H   UNK N   1      46.941  14.864   3.148  0.00  0.00     0.157 HD
ENDBRANCH  13  18
ENDBRANCH   4   6
BRANCH   2  21
HETATM   21  O   UNK N   1      45.948  22.257   4.110  0.00  0.00    -0.388 OA
HETATM   22  H   UNK N   1      46.195  22.708   4.933  0.00  0.00     0.210 HD
ENDBRANCH   2  21
BRANCH   5  23
HETATM   23  C   UNK N   1      41.722  22.903   1.994  0.00  0.00     0.215 C 
BRANCH  23  24
HETATM   24  O   UNK N   1      42.330  24.136   1.749  0.00  0.00    -0.294 OA
BRANCH  24  25
HETATM   25  P   UNK N   1      42.227  24.398   0.037  0.00  0.00     0.390 P 
HETATM   26  O   UNK N   1      43.475  25.249   0.399  0.00  0.00    -0.632 OA
BRANCH  25  27
HETATM   27  O   UNK N   1      40.825  25.013   0.856  0.00  0.00    -0.307 OA
HETATM   28  H   UNK N   1      40.424  24.587   1.629  0.00  0.00     0.222 HD
ENDBRANCH  25  27
BRANCH  25  29
HETATM   29  O   UNK N   1      41.803  25.974  -0.552  0.00  0.00    -0.307 OA
HETATM   30  H   UNK N   1      42.281  26.596  -1.123  0.00  0.00     0.222 HD
ENDBRANCH  25  29
ENDBRANCH  24  25
ENDBRANCH  23  24
ENDBRANCH   5  23
BRANCH   3  31
HETATM   31  O   UNK N   1      43.346  23.727   4.472  0.00  0.00    -0.390 OA
HETATM   32  H   UNK N   1      42.530  24.085   4.857  0.00  0.00     0.210 HD
ENDBRANCH   3  31
TORSDOF 9
ENDMDL
MODEL 9
REMARK VINA RESULT:      -5.9      3.404      5.046
REMARK  9 active torsions:
REMARK  status: ('A' for Active; 'I' for Inactive)
REMARK    1  A    between atoms: P_1  and  O_5 
REMARK    2  A    between atoms: P_1  and  O_6 
REMARK    3  A    between atoms: P_1  and  O_7 
REMARK    4  A    between atoms: C_17  and  O_3 
REMARK    5  A    between atoms: C_18  and  O_4 
REMARK    6  A    between atoms: O_5  and  C_21 
REMARK    7  A    between atoms: C_19  and  N_9 
REMARK    8  A    between atoms: N_16  and  C_25 
REMARK    9  A    between atoms: C_20  and  C_21 
ROOT
HETATM    1  O   UNK N   1      34.545  14.438  12.264  0.00  0.00    -0.353 OA
HETATM    2  C   UNK N   1      36.428  14.411  10.828  0.00  0.00     0.198 C 
HETATM    3  C   UNK N   1      36.824  13.916  12.171  0.00  0.00     0.182 C 
HETATM    4  C   UNK N   1      35.159  15.153  11.209  0.00  0.00     0.262 C 
HETATM    5  C   UNK N   1      35.472  13.441  12.613  0.00  0.00     0.180 C 
ENDROOT
BRANCH   4   6
HETATM    6  N   UNK N   1      34.234  15.308  10.083  0.00  0.00    -0.297 N 
HETATM    7  C   UNK N   1      34.119  16.345   9.245  0.00  0.00     0.142 A 
HETATM    8  N   UNK N   1      34.857  17.480   9.213  0.00  0.00    -0.336 N 
HETATM    9  C   UNK N   1      33.099  16.120   8.393  0.00  0.00     0.122 A 
HETATM   10  C   UNK N   1      34.547  18.422   8.270  0.00  0.00     0.183 A 
ATOM     11  HN  UNK N   1      35.622  17.627   9.871  1.00  0.00     0.168 HD
HETATM   12  N   UNK N   1      33.504  18.218   7.397  0.00  0.00    -0.337 N 
HETATM   13  C   UNK N   1      32.763  17.071   7.444  0.00  0.00     0.131 A 
ATOM     14  HN  UNK N   1      33.281  18.933   6.705  1.00  0.00     0.168 HD
HETATM   15  N   UNK N   1      32.538  14.926   8.656  0.00  0.00    -0.346 N 
HETATM   16  C   UNK N   1      33.258  14.441   9.707  0.00  0.00     0.188 A 
ATOM     17  HN  UNK N   1      31.753  14.485   8.177  1.00  0.00     0.167 HD
BRANCH  13  18
HETATM   18  N   UNK N   1      31.682  16.875   6.561  0.00  0.00    -0.383 N 
HETATM   19  H   UNK N   1      31.733  16.218   5.829  0.00  0.00     0.157 HD
HETATM   20  H   UNK N   1      30.862  17.406   6.677  0.00  0.00     0.157 HD
ENDBRANCH  13  18
ENDBRANCH   4   6
BRANCH   2  21
HETATM   21  O   UNK N   1      37.395  15.272  10.311  0.00  0.00    -0.388 OA
HETATM   22  H   UNK N   1      38.339  15.051  10.347  0.00  0.00     0.210 HD
ENDBRANCH   2  21
BRANCH   5  23
HETATM   23  C   UNK N   1      35.420  13.135  14.091  0.00  0.00     0.215 C 
BRANCH  23  24
HETATM   24  O   UNK N   1      34.218  12.466  14.332  0.00  0.00    -0.294 OA
BRANCH  24  25
HETATM   25  P   UNK N   1      34.621  10.788  14.508  0.00  0.00     0.390 P 
HETATM   26  O   UNK N   1      33.078  10.749  14.680  0.00  0.00    -0.632 OA
BRANCH  25  27
HETATM   27  O   UNK N   1      35.339  11.746  15.766  0.00  0.00    -0.307 OA
HETATM   28  H   UNK N   1      34.825  12.240  16.424  0.00  0.00     0.222 HD
ENDBRANCH  25  27
BRANCH  25  29
HETATM   29  O   UNK N   1      34.425  10.031  16.057  0.00  0.00    -0.307 OA
HETATM   30  H   UNK N   1      33.639   9.686  16.508  0.00  0.00     0.222 HD
ENDBRANCH  25  29
ENDBRANCH  24  25
ENDBRANCH  23  24
ENDBRANCH   5  23
BRANCH   3  31
HETATM   31  O   UNK N   1      37.728  12.857  12.078  0.00  0.00    -0.390 OA
HETATM   32  H   UNK N   1      38.281  12.394  11.430  0.00  0.00     0.210 HD
ENDBRANCH   3  31
TORSDOF 9
ENDMDL
