REMARK  9 active torsions:
REMARK  status: ('A' for Active; 'I' for Inactive)
REMARK    1  A    between atoms: P_1  and  O_5 
REMARK    2  A    between atoms: P_1  and  O_6 
REMARK    3  A    between atoms: P_1  and  O_7 
REMARK    4  A    between atoms: C_17  and  O_3 
REMARK    5  A    between atoms: C_18  and  O_4 
REMARK    6  A    between atoms: O_5  and  C_21 
REMARK    7  A    between atoms: C_19  and  N_9 
REMARK    8  A    between atoms: N_16  and  C_25 
REMARK    9  A    between atoms: C_20  and  C_21 
ROOT
HETATM    1  O   UNK N   1       5.160   0.858   0.762  0.00  0.00    -0.353 OA
HETATM    2  C   UNK N   1       3.192   1.624  -0.309  0.00  0.00     0.198 C 
HETATM    3  C   UNK N   1       4.076   2.780  -0.015  0.00  0.00     0.182 C 
HETATM    4  C   UNK N   1       3.768   0.623   0.677  0.00  0.00     0.262 C 
HETATM    5  C   UNK N   1       5.375   2.032   0.020  0.00  0.00     0.180 C 
ENDROOT
BRANCH   4   6
HETATM    6  N   UNK N   1       3.500  -0.766   0.294  0.00  0.00    -0.297 N 
HETATM    7  C   UNK N   1       2.314  -1.368   0.143  0.00  0.00     0.142 A 
HETATM    8  N   UNK N   1       1.080  -0.825   0.267  0.00  0.00    -0.336 N 
HETATM    9  C   UNK N   1       2.508  -2.670  -0.146  0.00  0.00     0.122 A 
HETATM   10  C   UNK N   1      -0.003  -1.642   0.083  0.00  0.00     0.183 A 
ATOM     11  HN  UNK N   1       0.961   0.163   0.490  1.00  0.00     0.168 HD
HETATM   12  N   UNK N   1       0.171  -2.976  -0.203  0.00  0.00    -0.337 N 
HETATM   13  C   UNK N   1       1.422  -3.512  -0.319  0.00  0.00     0.131 A 
ATOM     14  HN  UNK N   1      -0.646  -3.573  -0.329  1.00  0.00     0.168 HD
HETATM   15  N   UNK N   1       3.825  -2.937  -0.198  0.00  0.00    -0.346 N 
HETATM   16  C   UNK N   1       4.421  -1.742   0.078  0.00  0.00     0.188 A 
ATOM     17  HN  UNK N   1       4.275  -3.830  -0.399  1.00  0.00     0.167 HD
BRANCH  13  18
HETATM   18  N   UNK N   1       1.595  -4.884  -0.592  0.00  0.00    -0.383 N 
HETATM   19  H   UNK N   1       0.825  -5.468  -0.782  0.00  0.00     0.157 HD
HETATM   20  H   UNK N   1       2.502  -5.266  -0.592  0.00  0.00     0.157 HD
ENDBRANCH  13  18
ENDBRANCH   4   6
BRANCH   2  21
HETATM   21  O   UNK N   1       1.863   1.929  -0.020  0.00  0.00    -0.388 OA
HETATM   22  H   UNK N   1       1.585   2.837   0.181  0.00  0.00     0.210 HD
ENDBRANCH   2  21
BRANCH   5  23
HETATM   23  C   UNK N   1       6.501   2.852   0.604  0.00  0.00     0.215 C 
BRANCH  23  24
HETATM   24  O   UNK N   1       7.632   2.618  -0.181  0.00  0.00    -0.294 OA
BRANCH  24  25
HETATM   25  P   UNK N   1       8.857   3.704   0.394  0.00  0.00     0.390 P 
HETATM   26  O   UNK N   1       8.271   4.511  -0.797  0.00  0.00    -0.632 OA
BRANCH  25  27
HETATM   27  O   UNK N   1       9.548   2.216  -0.175  0.00  0.00    -0.307 OA
HETATM   28  H   UNK N   1       9.021   1.466  -0.493  0.00  0.00     0.222 HD
ENDBRANCH  25  27
BRANCH  25  29
HETATM   29  O   UNK N   1      10.252   4.002  -0.594  0.00  0.00    -0.307 OA
HETATM   30  H   UNK N   1      10.786   3.410  -1.147  0.00  0.00     0.222 HD
ENDBRANCH  25  29
ENDBRANCH  24  25
ENDBRANCH  23  24
ENDBRANCH   5  23
BRANCH   3  31
HETATM   31  O   UNK N   1       4.057   3.714  -1.051  0.00  0.00    -0.390 OA
HETATM   32  H   UNK N   1       4.612   4.050  -1.772  0.00  0.00     0.210 HD
ENDBRANCH   3  31
TORSDOF 9
