MODEL 1
REMARK VINA RESULT:      -5.0      0.000      0.000
REMARK  14 active torsions:
REMARK  status: ('A' for Active; 'I' for Inactive)
REMARK    1  A    between atoms: O_1  and  C_11 
REMARK    2  A    between atoms: C_3  and  C_4 
REMARK    3  A    between atoms: C_3  and  C_5 
REMARK    4  A    between atoms: C_4  and  C_6 
REMARK    5  A    between atoms: C_5  and  C_7 
REMARK    6  A    between atoms: C_6  and  C_8 
REMARK    7  A    between atoms: C_7  and  C_9 
REMARK    8  A    between atoms: C_8  and  C_10 
REMARK    9  A    between atoms: C_9  and  C_11 
REMARK   10  A    between atoms: C_12  and  C_13 
REMARK   11  A    between atoms: C_13  and  C_14 
REMARK   12  A    between atoms: C_15  and  C_16 
REMARK   13  A    between atoms: C_16  and  C_17 
REMARK   14  A    between atoms: C_18  and  C_19 
ROOT
HETATM    1  C   UNK N   1      37.494  10.073  14.626  0.00  0.00     0.027 C 
ENDROOT
BRANCH   1   2
HETATM    2  C   UNK N   1      37.869  11.460  14.147  0.00  0.00     0.004 C 
BRANCH   2   3
HETATM    3  C   UNK N   1      37.484  11.589  12.689  0.00  0.00     0.000 C 
BRANCH   3   4
HETATM    4  C   UNK N   1      37.063  13.008  12.370  0.00  0.00     0.000 C 
BRANCH   4   5
HETATM    5  C   UNK N   1      35.609  12.990  11.936  0.00  0.00     0.001 C 
BRANCH   5   6
HETATM    6  C   UNK N   1      35.080  14.405  11.833  0.00  0.00     0.010 C 
BRANCH   6   7
HETATM    7  C   UNK N   1      35.867  15.193  10.802  0.00  0.00     0.110 C 
BRANCH   7   8
HETATM    8  C   UNK N   1      35.092  16.400  10.391  0.00  0.00     0.139 C 
HETATM    9  O   UNK N   1      35.637  17.493  10.355  0.00  0.00    -0.650 OA
BRANCH   8  10
HETATM   10  O   UNK N   1      33.797  16.285  10.046  0.00  0.00    -0.776 OA
HETATM   11  H   UNK N   1      33.124  16.302  10.699  0.00  0.00     0.167 HD
ENDBRANCH   8  10
ENDBRANCH   7   8
ENDBRANCH   6   7
ENDBRANCH   5   6
ENDBRANCH   4   5
ENDBRANCH   3   4
ENDBRANCH   2   3
ENDBRANCH   1   2
BRANCH   1  12
HETATM   12  C   UNK N   1      36.397   9.514  13.779  0.00  0.00    -0.030 C 
HETATM   13  C   UNK N   1      35.106   9.629  14.115  0.00  0.00    -0.027 C 
BRANCH  13  14
HETATM   14  C   UNK N   1      34.658  10.319  15.367  0.00  0.00     0.053 C 
BRANCH  14  15
HETATM   15  C   UNK N   1      33.985  11.613  15.029  0.00  0.00    -0.027 C 
HETATM   16  C   UNK N   1      34.414  12.790  15.495  0.00  0.00    -0.027 C 
BRANCH  16  17
HETATM   17  C   UNK N   1      35.611  12.907  16.380  0.00  0.00     0.053 C 
BRANCH  17  18
HETATM   18  C   UNK N   1      35.229  13.566  17.666  0.00  0.00    -0.027 C 
HETATM   19  C   UNK N   1      35.127  12.880  18.809  0.00  0.00    -0.031 C 
BRANCH  19  20
HETATM   20  C   UNK N   1      35.399  11.411  18.883  0.00  0.00     0.022 C 
HETATM   21  C   UNK N   1      35.079  10.903  20.273  0.00  0.00     0.009 C 
ENDBRANCH  19  20
ENDBRANCH  17  18
ENDBRANCH  16  17
ENDBRANCH  14  15
ENDBRANCH  13  14
ENDBRANCH   1  12
TORSDOF 14
ENDMDL
MODEL 2
REMARK VINA RESULT:      -5.0     11.344     15.190
REMARK  14 active torsions:
REMARK  status: ('A' for Active; 'I' for Inactive)
REMARK    1  A    between atoms: O_1  and  C_11 
REMARK    2  A    between atoms: C_3  and  C_4 
REMARK    3  A    between atoms: C_3  and  C_5 
REMARK    4  A    between atoms: C_4  and  C_6 
REMARK    5  A    between atoms: C_5  and  C_7 
REMARK    6  A    between atoms: C_6  and  C_8 
REMARK    7  A    between atoms: C_7  and  C_9 
REMARK    8  A    between atoms: C_8  and  C_10 
REMARK    9  A    between atoms: C_9  and  C_11 
REMARK   10  A    between atoms: C_12  and  C_13 
REMARK   11  A    between atoms: C_13  and  C_14 
REMARK   12  A    between atoms: C_15  and  C_16 
REMARK   13  A    between atoms: C_16  and  C_17 
REMARK   14  A    between atoms: C_18  and  C_19 
ROOT
HETATM    1  C   UNK N   1      27.767  19.688   4.354  0.00  0.00     0.027 C 
ENDROOT
BRANCH   1   2
HETATM    2  C   UNK N   1      26.577  20.566   4.026  0.00  0.00     0.004 C 
BRANCH   2   3
HETATM    3  C   UNK N   1      25.665  19.811   3.084  0.00  0.00     0.000 C 
BRANCH   3   4
HETATM    4  C   UNK N   1      24.241  20.312   3.201  0.00  0.00     0.000 C 
BRANCH   4   5
HETATM    5  C   UNK N   1      23.401  19.223   3.843  0.00  0.00     0.001 C 
BRANCH   5   6
HETATM    6  C   UNK N   1      21.968  19.322   3.363  0.00  0.00     0.010 C 
BRANCH   6   7
HETATM    7  C   UNK N   1      21.767  20.585   2.546  0.00  0.00     0.110 C 
BRANCH   7   8
HETATM    8  C   UNK N   1      20.974  20.271   1.321  0.00  0.00     0.139 C 
HETATM    9  O   UNK N   1      21.218  20.847   0.271  0.00  0.00    -0.650 OA
BRANCH   8  10
HETATM   10  O   UNK N   1      19.999  19.346   1.367  0.00  0.00    -0.776 OA
HETATM   11  H   UNK N   1      20.031  18.587   0.817  0.00  0.00     0.167 HD
ENDBRANCH   8  10
ENDBRANCH   7   8
ENDBRANCH   6   7
ENDBRANCH   5   6
ENDBRANCH   4   5
ENDBRANCH   3   4
ENDBRANCH   2   3
ENDBRANCH   1   2
BRANCH   1  12
HETATM   12  C   UNK N   1      27.309  18.410   4.978  0.00  0.00    -0.030 C 
HETATM   13  C   UNK N   1      27.493  18.142   6.277  0.00  0.00    -0.027 C 
BRANCH  13  14
HETATM   14  C   UNK N   1      28.178  19.096   7.207  0.00  0.00     0.053 C 
BRANCH  14  15
HETATM   15  C   UNK N   1      28.085  18.598   8.615  0.00  0.00    -0.027 C 
HETATM   16  C   UNK N   1      29.162  18.260   9.332  0.00  0.00    -0.027 C 
BRANCH  16  17
HETATM   17  C   UNK N   1      30.547  18.368   8.784  0.00  0.00     0.053 C 
BRANCH  17  18
HETATM   18  C   UNK N   1      31.162  17.008   8.688  0.00  0.00    -0.027 C 
HETATM   19  C   UNK N   1      31.419  16.430   7.510  0.00  0.00    -0.031 C 
BRANCH  19  20
HETATM   20  C   UNK N   1      31.121  17.105   6.210  0.00  0.00     0.022 C 
HETATM   21  C   UNK N   1      30.400  16.144   5.289  0.00  0.00     0.009 C 
ENDBRANCH  19  20
ENDBRANCH  17  18
ENDBRANCH  16  17
ENDBRANCH  14  15
ENDBRANCH  13  14
ENDBRANCH   1  12
TORSDOF 14
ENDMDL
MODEL 3
REMARK VINA RESULT:      -4.9     20.485     25.252
REMARK  14 active torsions:
REMARK  status: ('A' for Active; 'I' for Inactive)
REMARK    1  A    between atoms: O_1  and  C_11 
REMARK    2  A    between atoms: C_3  and  C_4 
REMARK    3  A    between atoms: C_3  and  C_5 
REMARK    4  A    between atoms: C_4  and  C_6 
REMARK    5  A    between atoms: C_5  and  C_7 
REMARK    6  A    between atoms: C_6  and  C_8 
REMARK    7  A    between atoms: C_7  and  C_9 
REMARK    8  A    between atoms: C_8  and  C_10 
REMARK    9  A    between atoms: C_9  and  C_11 
REMARK   10  A    between atoms: C_12  and  C_13 
REMARK   11  A    between atoms: C_13  and  C_14 
REMARK   12  A    between atoms: C_15  and  C_16 
REMARK   13  A    between atoms: C_16  and  C_17 
REMARK   14  A    between atoms: C_18  and  C_19 
ROOT
HETATM    1  C   UNK N   1      27.036  25.805  -4.005  0.00  0.00     0.027 C 
ENDROOT
BRANCH   1   2
HETATM    2  C   UNK N   1      26.136  24.640  -4.362  0.00  0.00     0.004 C 
BRANCH   2   3
HETATM    3  C   UNK N   1      26.872  23.741  -5.332  0.00  0.00     0.000 C 
BRANCH   3   4
HETATM    4  C   UNK N   1      28.299  24.210  -5.520  0.00  0.00     0.000 C 
BRANCH   4   5
HETATM    5  C   UNK N   1      29.198  22.990  -5.593  0.00  0.00     0.001 C 
BRANCH   5   6
HETATM    6  C   UNK N   1      30.227  23.036  -4.482  0.00  0.00     0.010 C 
BRANCH   6   7
HETATM    7  C   UNK N   1      29.873  22.046  -3.388  0.00  0.00     0.110 C 
BRANCH   7   8
HETATM    8  C   UNK N   1      29.515  22.781  -2.140  0.00  0.00     0.139 C 
HETATM    9  O   UNK N   1      30.393  23.154  -1.377  0.00  0.00    -0.650 OA
BRANCH   8  10
HETATM   10  O   UNK N   1      28.227  23.046  -1.859  0.00  0.00    -0.776 OA
HETATM   11  H   UNK N   1      27.967  23.891  -1.547  0.00  0.00     0.167 HD
ENDBRANCH   8  10
ENDBRANCH   7   8
ENDBRANCH   6   7
ENDBRANCH   5   6
ENDBRANCH   4   5
ENDBRANCH   3   4
ENDBRANCH   2   3
ENDBRANCH   1   2
BRANCH   1  12
HETATM   12  C   UNK N   1      26.357  26.698  -3.018  0.00  0.00    -0.030 C 
HETATM   13  C   UNK N   1      25.857  27.892  -3.360  0.00  0.00    -0.027 C 
BRANCH  13  14
HETATM   14  C   UNK N   1      25.945  28.433  -4.754  0.00  0.00     0.053 C 
BRANCH  14  15
HETATM   15  C   UNK N   1      26.805  29.658  -4.778  0.00  0.00    -0.027 C 
HETATM   16  C   UNK N   1      28.054  29.650  -5.257  0.00  0.00    -0.027 C 
BRANCH  16  17
HETATM   17  C   UNK N   1      28.682  28.418  -5.819  0.00  0.00     0.053 C 
BRANCH  17  18
HETATM   18  C   UNK N   1      28.787  28.537  -7.306  0.00  0.00    -0.027 C 
HETATM   19  C   UNK N   1      28.014  27.819  -8.129  0.00  0.00    -0.031 C 
BRANCH  19  20
HETATM   20  C   UNK N   1      26.987  26.859  -7.620  0.00  0.00     0.022 C 
HETATM   21  C   UNK N   1      26.737  25.784  -8.657  0.00  0.00     0.009 C 
ENDBRANCH  19  20
ENDBRANCH  17  18
ENDBRANCH  16  17
ENDBRANCH  14  15
ENDBRANCH  13  14
ENDBRANCH   1  12
TORSDOF 14
ENDMDL
MODEL 4
REMARK VINA RESULT:      -4.9     20.805     24.383
REMARK  14 active torsions:
REMARK  status: ('A' for Active; 'I' for Inactive)
REMARK    1  A    between atoms: O_1  and  C_11 
REMARK    2  A    between atoms: C_3  and  C_4 
REMARK    3  A    between atoms: C_3  and  C_5 
REMARK    4  A    between atoms: C_4  and  C_6 
REMARK    5  A    between atoms: C_5  and  C_7 
REMARK    6  A    between atoms: C_6  and  C_8 
REMARK    7  A    between atoms: C_7  and  C_9 
REMARK    8  A    between atoms: C_8  and  C_10 
REMARK    9  A    between atoms: C_9  and  C_11 
REMARK   10  A    between atoms: C_12  and  C_13 
REMARK   11  A    between atoms: C_13  and  C_14 
REMARK   12  A    between atoms: C_15  and  C_16 
REMARK   13  A    between atoms: C_16  and  C_17 
REMARK   14  A    between atoms: C_18  and  C_19 
ROOT
HETATM    1  C   UNK N   1      25.891  23.879  -5.067  0.00  0.00     0.027 C 
ENDROOT
BRANCH   1   2
HETATM    2  C   UNK N   1      26.059  25.366  -4.832  0.00  0.00     0.004 C 
BRANCH   2   3
HETATM    3  C   UNK N   1      25.443  26.112  -5.996  0.00  0.00     0.000 C 
BRANCH   3   4
HETATM    4  C   UNK N   1      26.372  27.202  -6.486  0.00  0.00     0.000 C 
BRANCH   4   5
HETATM    5  C   UNK N   1      27.578  27.253  -5.565  0.00  0.00     0.001 C 
BRANCH   5   6
HETATM    6  C   UNK N   1      27.954  28.692  -5.282  0.00  0.00     0.010 C 
BRANCH   6   7
HETATM    7  C   UNK N   1      26.775  29.445  -4.695  0.00  0.00     0.110 C 
BRANCH   7   8
HETATM    8  C   UNK N   1      26.471  28.921  -3.331  0.00  0.00     0.139 C 
HETATM    9  O   UNK N   1      27.257  29.109  -2.415  0.00  0.00    -0.650 OA
BRANCH   8  10
HETATM   10  O   UNK N   1      25.327  28.251  -3.105  0.00  0.00    -0.776 OA
HETATM   11  H   UNK N   1      24.780  28.467  -2.374  0.00  0.00     0.167 HD
ENDBRANCH   8  10
ENDBRANCH   7   8
ENDBRANCH   6   7
ENDBRANCH   5   6
ENDBRANCH   4   5
ENDBRANCH   3   4
ENDBRANCH   2   3
ENDBRANCH   1   2
BRANCH   1  12
HETATM   12  C   UNK N   1      26.064  23.563  -6.517  0.00  0.00    -0.030 C 
HETATM   13  C   UNK N   1      27.196  23.038  -7.004  0.00  0.00    -0.027 C 
BRANCH  13  14
HETATM   14  C   UNK N   1      28.380  22.733  -6.138  0.00  0.00     0.053 C 
BRANCH  14  15
HETATM   15  C   UNK N   1      29.306  23.910  -6.100  0.00  0.00    -0.027 C 
HETATM   16  C   UNK N   1      29.801  24.399  -4.959  0.00  0.00    -0.027 C 
BRANCH  16  17
HETATM   17  C   UNK N   1      29.479  23.797  -3.630  0.00  0.00     0.053 C 
BRANCH  17  18
HETATM   18  C   UNK N   1      30.743  23.426  -2.923  0.00  0.00    -0.027 C 
HETATM   19  C   UNK N   1      31.195  22.168  -2.895  0.00  0.00    -0.031 C 
BRANCH  19  20
HETATM   20  C   UNK N   1      30.475  21.049  -3.576  0.00  0.00     0.022 C 
HETATM   21  C   UNK N   1      31.247  20.621  -4.806  0.00  0.00     0.009 C 
ENDBRANCH  19  20
ENDBRANCH  17  18
ENDBRANCH  16  17
ENDBRANCH  14  15
ENDBRANCH  13  14
ENDBRANCH   1  12
TORSDOF 14
ENDMDL
MODEL 5
REMARK VINA RESULT:      -4.8     20.161     24.064
REMARK  14 active torsions:
REMARK  status: ('A' for Active; 'I' for Inactive)
REMARK    1  A    between atoms: O_1  and  C_11 
REMARK    2  A    between atoms: C_3  and  C_4 
REMARK    3  A    between atoms: C_3  and  C_5 
REMARK    4  A    between atoms: C_4  and  C_6 
REMARK    5  A    between atoms: C_5  and  C_7 
REMARK    6  A    between atoms: C_6  and  C_8 
REMARK    7  A    between atoms: C_7  and  C_9 
REMARK    8  A    between atoms: C_8  and  C_10 
REMARK    9  A    between atoms: C_9  and  C_11 
REMARK   10  A    between atoms: C_12  and  C_13 
REMARK   11  A    between atoms: C_13  and  C_14 
REMARK   12  A    between atoms: C_15  and  C_16 
REMARK   13  A    between atoms: C_16  and  C_17 
REMARK   14  A    between atoms: C_18  and  C_19 
ROOT
HETATM    1  C   UNK N   1      25.960  23.843  -5.855  0.00  0.00     0.027 C 
ENDROOT
BRANCH   1   2
HETATM    2  C   UNK N   1      25.979  24.477  -7.230  0.00  0.00     0.004 C 
BRANCH   2   3
HETATM    3  C   UNK N   1      27.200  25.364  -7.337  0.00  0.00     0.000 C 
BRANCH   3   4
HETATM    4  C   UNK N   1      26.811  26.760  -7.773  0.00  0.00     0.000 C 
BRANCH   4   5
HETATM    5  C   UNK N   1      27.510  27.757  -6.867  0.00  0.00     0.001 C 
BRANCH   5   6
HETATM    6  C   UNK N   1      26.603  28.136  -5.714  0.00  0.00     0.010 C 
BRANCH   6   7
HETATM    7  C   UNK N   1      27.401  28.797  -4.606  0.00  0.00     0.110 C 
BRANCH   7   8
HETATM    8  C   UNK N   1      26.659  28.687  -3.316  0.00  0.00     0.139 C 
HETATM    9  O   UNK N   1      27.229  28.921  -2.261  0.00  0.00    -0.650 OA
BRANCH   8  10
HETATM   10  O   UNK N   1      25.359  28.342  -3.313  0.00  0.00    -0.776 OA
HETATM   11  H   UNK N   1      24.992  27.857  -2.600  0.00  0.00     0.167 HD
ENDBRANCH   8  10
ENDBRANCH   7   8
ENDBRANCH   6   7
ENDBRANCH   5   6
ENDBRANCH   4   5
ENDBRANCH   3   4
ENDBRANCH   2   3
ENDBRANCH   1   2
BRANCH   1  12
HETATM   12  C   UNK N   1      25.717  24.883  -4.810  0.00  0.00    -0.030 C 
HETATM   13  C   UNK N   1      26.461  24.970  -3.701  0.00  0.00    -0.027 C 
BRANCH  13  14
HETATM   14  C   UNK N   1      27.590  24.028  -3.412  0.00  0.00     0.053 C 
BRANCH  14  15
HETATM   15  C   UNK N   1      28.898  24.674  -3.747  0.00  0.00    -0.027 C 
HETATM   16  C   UNK N   1      30.071  24.181  -3.335  0.00  0.00    -0.027 C 
BRANCH  16  17
HETATM   17  C   UNK N   1      30.166  22.933  -2.519  0.00  0.00     0.053 C 
BRANCH  17  18
HETATM   18  C   UNK N   1      30.270  21.745  -3.420  0.00  0.00    -0.027 C 
HETATM   19  C   UNK N   1      31.420  21.084  -3.588  0.00  0.00    -0.031 C 
BRANCH  19  20
HETATM   20  C   UNK N   1      32.676  21.479  -2.880  0.00  0.00     0.022 C 
HETATM   21  C   UNK N   1      33.829  20.633  -3.376  0.00  0.00     0.009 C 
ENDBRANCH  19  20
ENDBRANCH  17  18
ENDBRANCH  16  17
ENDBRANCH  14  15
ENDBRANCH  13  14
ENDBRANCH   1  12
TORSDOF 14
ENDMDL
MODEL 6
REMARK VINA RESULT:      -4.8      1.389      4.099
REMARK  14 active torsions:
REMARK  status: ('A' for Active; 'I' for Inactive)
REMARK    1  A    between atoms: O_1  and  C_11 
REMARK    2  A    between atoms: C_3  and  C_4 
REMARK    3  A    between atoms: C_3  and  C_5 
REMARK    4  A    between atoms: C_4  and  C_6 
REMARK    5  A    between atoms: C_5  and  C_7 
REMARK    6  A    between atoms: C_6  and  C_8 
REMARK    7  A    between atoms: C_7  and  C_9 
REMARK    8  A    between atoms: C_8  and  C_10 
REMARK    9  A    between atoms: C_9  and  C_11 
REMARK   10  A    between atoms: C_12  and  C_13 
REMARK   11  A    between atoms: C_13  and  C_14 
REMARK   12  A    between atoms: C_15  and  C_16 
REMARK   13  A    between atoms: C_16  and  C_17 
REMARK   14  A    between atoms: C_18  and  C_19 
ROOT
HETATM    1  C   UNK N   1      35.044  13.270  16.445  0.00  0.00     0.027 C 
ENDROOT
BRANCH   1   2
HETATM    2  C   UNK N   1      36.337  13.824  15.883  0.00  0.00     0.004 C 
BRANCH   2   3
HETATM    3  C   UNK N   1      36.998  12.751  15.045  0.00  0.00     0.000 C 
BRANCH   3   4
HETATM    4  C   UNK N   1      36.619  12.900  13.587  0.00  0.00     0.000 C 
BRANCH   4   5
HETATM    5  C   UNK N   1      36.386  14.372  13.302  0.00  0.00     0.001 C 
BRANCH   5   6
HETATM    6  C   UNK N   1      35.464  14.531  12.111  0.00  0.00     0.010 C 
BRANCH   6   7
HETATM    7  C   UNK N   1      35.586  15.925  11.525  0.00  0.00     0.110 C 
BRANCH   7   8
HETATM    8  C   UNK N   1      34.703  16.048  10.328  0.00  0.00     0.139 C 
HETATM    9  O   UNK N   1      34.244  15.047   9.802  0.00  0.00    -0.650 OA
BRANCH   8  10
HETATM   10  O   UNK N   1      34.401  17.263   9.835  0.00  0.00    -0.776 OA
HETATM   11  H   UNK N   1      34.190  17.975  10.407  0.00  0.00     0.167 HD
ENDBRANCH   8  10
ENDBRANCH   7   8
ENDBRANCH   6   7
ENDBRANCH   5   6
ENDBRANCH   4   5
ENDBRANCH   3   4
ENDBRANCH   2   3
ENDBRANCH   1   2
BRANCH   1  12
HETATM   12  C   UNK N   1      35.041  13.378  17.936  0.00  0.00    -0.030 C 
HETATM   13  C   UNK N   1      35.480  12.390  18.725  0.00  0.00    -0.027 C 
BRANCH  13  14
HETATM   14  C   UNK N   1      36.001  11.096  18.180  0.00  0.00     0.053 C 
BRANCH  14  15
HETATM   15  C   UNK N   1      34.950  10.034  18.281  0.00  0.00    -0.027 C 
HETATM   16  C   UNK N   1      34.459   9.404  17.209  0.00  0.00    -0.027 C 
BRANCH  16  17
HETATM   17  C   UNK N   1      34.935   9.701  15.825  0.00  0.00     0.053 C 
BRANCH  17  18
HETATM   18  C   UNK N   1      33.939  10.566  15.122  0.00  0.00    -0.027 C 
HETATM   19  C   UNK N   1      33.800  10.547  13.792  0.00  0.00    -0.031 C 
BRANCH  19  20
HETATM   20  C   UNK N   1      34.623   9.655  12.918  0.00  0.00     0.022 C 
HETATM   21  C   UNK N   1      34.142   9.760  11.486  0.00  0.00     0.009 C 
ENDBRANCH  19  20
ENDBRANCH  17  18
ENDBRANCH  16  17
ENDBRANCH  14  15
ENDBRANCH  13  14
ENDBRANCH   1  12
TORSDOF 14
ENDMDL
MODEL 7
REMARK VINA RESULT:      -4.8     20.667     25.097
REMARK  14 active torsions:
REMARK  status: ('A' for Active; 'I' for Inactive)
REMARK    1  A    between atoms: O_1  and  C_11 
REMARK    2  A    between atoms: C_3  and  C_4 
REMARK    3  A    between atoms: C_3  and  C_5 
REMARK    4  A    between atoms: C_4  and  C_6 
REMARK    5  A    between atoms: C_5  and  C_7 
REMARK    6  A    between atoms: C_6  and  C_8 
REMARK    7  A    between atoms: C_7  and  C_9 
REMARK    8  A    between atoms: C_8  and  C_10 
REMARK    9  A    between atoms: C_9  and  C_11 
REMARK   10  A    between atoms: C_12  and  C_13 
REMARK   11  A    between atoms: C_13  and  C_14 
REMARK   12  A    between atoms: C_15  and  C_16 
REMARK   13  A    between atoms: C_16  and  C_17 
REMARK   14  A    between atoms: C_18  and  C_19 
ROOT
HETATM    1  C   UNK N   1      27.614  28.434  -4.225  0.00  0.00     0.027 C 
ENDROOT
BRANCH   1   2
HETATM    2  C   UNK N   1      26.202  27.944  -3.976  0.00  0.00     0.004 C 
BRANCH   2   3
HETATM    3  C   UNK N   1      26.272  26.598  -3.288  0.00  0.00     0.000 C 
BRANCH   3   4
HETATM    4  C   UNK N   1      26.047  25.477  -4.281  0.00  0.00     0.000 C 
BRANCH   4   5
HETATM    5  C   UNK N   1      26.872  24.280  -3.846  0.00  0.00     0.001 C 
BRANCH   5   6
HETATM    6  C   UNK N   1      28.337  24.658  -3.771  0.00  0.00     0.010 C 
BRANCH   6   7
HETATM    7  C   UNK N   1      29.191  23.429  -3.522  0.00  0.00     0.110 C 
BRANCH   7   8
HETATM    8  C   UNK N   1      29.231  23.132  -2.060  0.00  0.00     0.139 C 
HETATM    9  O   UNK N   1      28.191  23.035  -1.427  0.00  0.00    -0.650 OA
BRANCH   8  10
HETATM   10  O   UNK N   1      30.412  22.957  -1.439  0.00  0.00    -0.776 OA
HETATM   11  H   UNK N   1      30.822  22.114  -1.416  0.00  0.00     0.167 HD
ENDBRANCH   8  10
ENDBRANCH   7   8
ENDBRANCH   6   7
ENDBRANCH   5   6
ENDBRANCH   4   5
ENDBRANCH   3   4
ENDBRANCH   2   3
ENDBRANCH   1   2
BRANCH   1  12
HETATM   12  C   UNK N   1      27.642  29.348  -5.407  0.00  0.00    -0.030 C 
HETATM   13  C   UNK N   1      27.860  28.902  -6.650  0.00  0.00    -0.027 C 
BRANCH  13  14
HETATM   14  C   UNK N   1      28.101  27.455  -6.956  0.00  0.00     0.053 C 
BRANCH  14  15
HETATM   15  C   UNK N   1      26.912  26.872  -7.656  0.00  0.00    -0.027 C 
HETATM   16  C   UNK N   1      26.794  25.564  -7.906  0.00  0.00    -0.027 C 
BRANCH  16  17
HETATM   17  C   UNK N   1      27.837  24.578  -7.491  0.00  0.00     0.053 C 
BRANCH  17  18
HETATM   18  C   UNK N   1      27.213  23.235  -7.290  0.00  0.00    -0.027 C 
HETATM   19  C   UNK N   1      27.945  22.144  -7.040  0.00  0.00    -0.031 C 
BRANCH  19  20
HETATM   20  C   UNK N   1      29.436  22.195  -6.933  0.00  0.00     0.022 C 
HETATM   21  C   UNK N   1      29.946  20.910  -6.314  0.00  0.00     0.009 C 
ENDBRANCH  19  20
ENDBRANCH  17  18
ENDBRANCH  16  17
ENDBRANCH  14  15
ENDBRANCH  13  14
ENDBRANCH   1  12
TORSDOF 14
ENDMDL
MODEL 8
REMARK VINA RESULT:      -4.7     21.020     24.485
REMARK  14 active torsions:
REMARK  status: ('A' for Active; 'I' for Inactive)
REMARK    1  A    between atoms: O_1  and  C_11 
REMARK    2  A    between atoms: C_3  and  C_4 
REMARK    3  A    between atoms: C_3  and  C_5 
REMARK    4  A    between atoms: C_4  and  C_6 
REMARK    5  A    between atoms: C_5  and  C_7 
REMARK    6  A    between atoms: C_6  and  C_8 
REMARK    7  A    between atoms: C_7  and  C_9 
REMARK    8  A    between atoms: C_8  and  C_10 
REMARK    9  A    between atoms: C_9  and  C_11 
REMARK   10  A    between atoms: C_12  and  C_13 
REMARK   11  A    between atoms: C_13  and  C_14 
REMARK   12  A    between atoms: C_15  and  C_16 
REMARK   13  A    between atoms: C_16  and  C_17 
REMARK   14  A    between atoms: C_18  and  C_19 
ROOT
HETATM    1  C   UNK N   1      27.818  24.619  -4.324  0.00  0.00     0.027 C 
ENDROOT
BRANCH   1   2
HETATM    2  C   UNK N   1      26.820  24.032  -5.300  0.00  0.00     0.004 C 
BRANCH   2   3
HETATM    3  C   UNK N   1      25.555  24.862  -5.255  0.00  0.00     0.000 C 
BRANCH   3   4
HETATM    4  C   UNK N   1      25.657  26.045  -6.195  0.00  0.00     0.000 C 
BRANCH   4   5
HETATM    5  C   UNK N   1      24.744  27.144  -5.683  0.00  0.00     0.001 C 
BRANCH   5   6
HETATM    6  C   UNK N   1      25.342  27.780  -4.445  0.00  0.00     0.010 C 
BRANCH   6   7
HETATM    7  C   UNK N   1      26.554  28.617  -4.811  0.00  0.00     0.110 C 
BRANCH   7   8
HETATM    8  C   UNK N   1      26.786  29.653  -3.762  0.00  0.00     0.139 C 
HETATM    9  O   UNK N   1      27.782  29.596  -3.057  0.00  0.00    -0.650 OA
BRANCH   8  10
HETATM   10  O   UNK N   1      25.907  30.658  -3.600  0.00  0.00    -0.776 OA
HETATM   11  H   UNK N   1      26.052  31.493  -4.001  0.00  0.00     0.167 HD
ENDBRANCH   8  10
ENDBRANCH   7   8
ENDBRANCH   6   7
ENDBRANCH   5   6
ENDBRANCH   4   5
ENDBRANCH   3   4
ENDBRANCH   2   3
ENDBRANCH   1   2
BRANCH   1  12
HETATM   12  C   UNK N   1      27.706  23.938  -2.999  0.00  0.00    -0.030 C 
HETATM   13  C   UNK N   1      28.743  23.314  -2.426  0.00  0.00    -0.027 C 
BRANCH  13  14
HETATM   14  C   UNK N   1      30.095  23.242  -3.068  0.00  0.00     0.053 C 
BRANCH  14  15
HETATM   15  C   UNK N   1      30.560  21.821  -3.129  0.00  0.00    -0.027 C 
HETATM   16  C   UNK N   1      30.471  21.081  -4.240  0.00  0.00    -0.027 C 
BRANCH  16  17
HETATM   17  C   UNK N   1      29.910  21.624  -5.513  0.00  0.00     0.053 C 
BRANCH  17  18
HETATM   18  C   UNK N   1      29.894  20.553  -6.556  0.00  0.00    -0.027 C 
HETATM   19  C   UNK N   1      29.133  20.645  -7.652  0.00  0.00    -0.031 C 
BRANCH  19  20
HETATM   20  C   UNK N   1      28.257  21.827  -7.916  0.00  0.00     0.022 C 
HETATM   21  C   UNK N   1      26.810  21.384  -7.981  0.00  0.00     0.009 C 
ENDBRANCH  19  20
ENDBRANCH  17  18
ENDBRANCH  16  17
ENDBRANCH  14  15
ENDBRANCH  13  14
ENDBRANCH   1  12
TORSDOF 14
ENDMDL
MODEL 9
REMARK VINA RESULT:      -4.7     21.209     24.413
REMARK  14 active torsions:
REMARK  status: ('A' for Active; 'I' for Inactive)
REMARK    1  A    between atoms: O_1  and  C_11 
REMARK    2  A    between atoms: C_3  and  C_4 
REMARK    3  A    between atoms: C_3  and  C_5 
REMARK    4  A    between atoms: C_4  and  C_6 
REMARK    5  A    between atoms: C_5  and  C_7 
REMARK    6  A    between atoms: C_6  and  C_8 
REMARK    7  A    between atoms: C_7  and  C_9 
REMARK    8  A    between atoms: C_8  and  C_10 
REMARK    9  A    between atoms: C_9  and  C_11 
REMARK   10  A    between atoms: C_12  and  C_13 
REMARK   11  A    between atoms: C_13  and  C_14 
REMARK   12  A    between atoms: C_15  and  C_16 
REMARK   13  A    between atoms: C_16  and  C_17 
REMARK   14  A    between atoms: C_18  and  C_19 
ROOT
HETATM    1  C   UNK N   1      27.159  26.384  -3.844  0.00  0.00     0.027 C 
ENDROOT
BRANCH   1   2
HETATM    2  C   UNK N   1      25.945  27.285  -3.762  0.00  0.00     0.004 C 
BRANCH   2   3
HETATM    3  C   UNK N   1      25.369  27.447  -5.152  0.00  0.00     0.000 C 
BRANCH   3   4
HETATM    4  C   UNK N   1      26.345  26.950  -6.197  0.00  0.00     0.000 C 
BRANCH   4   5
HETATM    5  C   UNK N   1      25.667  25.859  -7.005  0.00  0.00     0.001 C 
BRANCH   5   6
HETATM    6  C   UNK N   1      26.589  24.665  -7.141  0.00  0.00     0.010 C 
BRANCH   6   7
HETATM    7  C   UNK N   1      25.945  23.426  -6.546  0.00  0.00     0.110 C 
BRANCH   7   8
HETATM    8  C   UNK N   1      25.546  22.491  -7.639  0.00  0.00     0.139 C 
HETATM    9  O   UNK N   1      26.263  21.545  -7.926  0.00  0.00    -0.650 OA
BRANCH   8  10
HETATM   10  O   UNK N   1      24.390  22.681  -8.300  0.00  0.00    -0.776 OA
HETATM   11  H   UNK N   1      24.383  22.814  -9.228  0.00  0.00     0.167 HD
ENDBRANCH   8  10
ENDBRANCH   7   8
ENDBRANCH   6   7
ENDBRANCH   5   6
ENDBRANCH   4   5
ENDBRANCH   3   4
ENDBRANCH   2   3
ENDBRANCH   1   2
BRANCH   1  12
HETATM   12  C   UNK N   1      26.851  25.047  -3.250  0.00  0.00    -0.030 C 
HETATM   13  C   UNK N   1      27.696  24.013  -3.340  0.00  0.00    -0.027 C 
BRANCH  13  14
HETATM   14  C   UNK N   1      29.013  24.108  -4.048  0.00  0.00     0.053 C 
BRANCH  14  15
HETATM   15  C   UNK N   1      30.136  23.967  -3.069  0.00  0.00    -0.027 C 
HETATM   16  C   UNK N   1      30.693  22.787  -2.778  0.00  0.00    -0.027 C 
BRANCH  16  17
HETATM   17  C   UNK N   1      30.246  21.516  -3.422  0.00  0.00     0.053 C 
BRANCH  17  18
HETATM   18  C   UNK N   1      31.277  21.053  -4.400  0.00  0.00    -0.027 C 
HETATM   19  C   UNK N   1      30.993  20.866  -5.693  0.00  0.00    -0.031 C 
BRANCH  19  20
HETATM   20  C   UNK N   1      29.629  21.117  -6.252  0.00  0.00     0.022 C 
HETATM   21  C   UNK N   1      29.665  22.328  -7.160  0.00  0.00     0.009 C 
ENDBRANCH  19  20
ENDBRANCH  17  18
ENDBRANCH  16  17
ENDBRANCH  14  15
ENDBRANCH  13  14
ENDBRANCH   1  12
TORSDOF 14
ENDMDL
