MODEL 1
REMARK VINA RESULT:      -3.9      0.000      0.000
REMARK  6 active torsions:
REMARK  status: ('A' for Active; 'I' for Inactive)
REMARK    1  A    between atoms: S_1  and  C_7 
REMARK    2  A    between atoms: O_2  and  C_8 
REMARK    3  A    between atoms: C_6  and  N_4 
REMARK    4  A    between atoms: C_5  and  C_6 
REMARK    5  A    between atoms: C_5  and  C_7 
REMARK    6  A    between atoms: C_6  and  C_8 
ROOT
HETATM    1  C   UNK N   1      34.118  17.227   9.134  0.00  0.00     0.174 C 
ENDROOT
BRANCH   1   2
HETATM    2  N   UNK N   1      34.946  17.191  10.331  0.00  0.00    -0.418 N 
HETATM    3  H   UNK N   1      35.383  16.329  10.655  0.00  0.00     0.150 HD
HETATM    4  H   UNK N   1      35.090  18.051  10.860  0.00  0.00     0.150 HD
ENDBRANCH   1   2
BRANCH   1   5
HETATM    5  C   UNK N   1      34.043  15.838   8.516  0.00  0.00     0.045 C 
BRANCH   5   6
HETATM    6  C   UNK N   1      32.609  15.342   8.587  0.00  0.00     0.076 C 
BRANCH   6   7
HETATM    7  S   UNK N   1      31.895  15.242   6.923  0.00  0.00    -0.173 SA
HETATM    8  C   UNK N   1      30.974  16.790   7.146  0.00  0.00     0.089 C 
ENDBRANCH   6   7
ENDBRANCH   5   6
ENDBRANCH   1   5
BRANCH   1   9
HETATM    9  C   UNK N   1      34.626  18.237   8.146  0.00  0.00     0.163 C 
HETATM   10  O   UNK N   1      34.421  18.090   6.944  0.00  0.00    -0.648 OA
BRANCH   9  11
HETATM   11  O   UNK N   1      35.343  19.290   8.569  0.00  0.00    -0.775 OA
HETATM   12  H   UNK N   1      36.249  19.196   8.790  0.00  0.00     0.167 HD
ENDBRANCH   9  11
ENDBRANCH   1   9
TORSDOF 6
ENDMDL
MODEL 2
REMARK VINA RESULT:      -3.8      1.985      2.262
REMARK  6 active torsions:
REMARK  status: ('A' for Active; 'I' for Inactive)
REMARK    1  A    between atoms: S_1  and  C_7 
REMARK    2  A    between atoms: O_2  and  C_8 
REMARK    3  A    between atoms: C_6  and  N_4 
REMARK    4  A    between atoms: C_5  and  C_6 
REMARK    5  A    between atoms: C_5  and  C_7 
REMARK    6  A    between atoms: C_6  and  C_8 
ROOT
HETATM    1  C   UNK N   1      33.213  17.770   8.719  0.00  0.00     0.174 C 
ENDROOT
BRANCH   1   2
HETATM    2  N   UNK N   1      33.579  16.550   9.424  0.00  0.00    -0.418 N 
HETATM    3  H   UNK N   1      33.727  16.537  10.432  0.00  0.00     0.150 HD
HETATM    4  H   UNK N   1      33.689  15.685   8.894  0.00  0.00     0.150 HD
ENDBRANCH   1   2
BRANCH   1   5
HETATM    5  C   UNK N   1      31.995  17.515   7.842  0.00  0.00     0.045 C 
BRANCH   5   6
HETATM    6  C   UNK N   1      30.750  17.518   8.713  0.00  0.00     0.076 C 
BRANCH   6   7
HETATM    7  S   UNK N   1      29.260  17.565   7.680  0.00  0.00    -0.173 SA
HETATM    8  C   UNK N   1      28.196  17.931   9.104  0.00  0.00     0.089 C 
ENDBRANCH   6   7
ENDBRANCH   5   6
ENDBRANCH   1   5
BRANCH   1   9
HETATM    9  C   UNK N   1      34.363  18.304   7.913  0.00  0.00     0.163 C 
HETATM   10  O   UNK N   1      34.524  17.950   6.748  0.00  0.00    -0.648 OA
BRANCH   9  11
HETATM   11  O   UNK N   1      35.245  19.145   8.476  0.00  0.00    -0.775 OA
HETATM   12  H   UNK N   1      35.515  19.030   9.366  0.00  0.00     0.167 HD
ENDBRANCH   9  11
ENDBRANCH   1   9
TORSDOF 6
ENDMDL
MODEL 3
REMARK VINA RESULT:      -3.8      2.137      2.938
REMARK  6 active torsions:
REMARK  status: ('A' for Active; 'I' for Inactive)
REMARK    1  A    between atoms: S_1  and  C_7 
REMARK    2  A    between atoms: O_2  and  C_8 
REMARK    3  A    between atoms: C_6  and  N_4 
REMARK    4  A    between atoms: C_5  and  C_6 
REMARK    5  A    between atoms: C_5  and  C_7 
REMARK    6  A    between atoms: C_6  and  C_8 
ROOT
HETATM    1  C   UNK N   1      34.360  17.058   9.053  0.00  0.00     0.174 C 
ENDROOT
BRANCH   1   2
HETATM    2  N   UNK N   1      34.973  17.252  10.359  0.00  0.00    -0.418 N 
HETATM    3  H   UNK N   1      35.663  17.984  10.524  0.00  0.00     0.150 HD
HETATM    4  H   UNK N   1      34.705  16.638  11.129  0.00  0.00     0.150 HD
ENDBRANCH   1   2
BRANCH   1   5
HETATM    5  C   UNK N   1      34.803  15.725   8.467  0.00  0.00     0.045 C 
BRANCH   5   6
HETATM    6  C   UNK N   1      35.570  14.950   9.524  0.00  0.00     0.076 C 
BRANCH   6   7
HETATM    7  S   UNK N   1      34.610  13.511  10.069  0.00  0.00    -0.173 SA
HETATM    8  C   UNK N   1      35.010  13.812  11.813  0.00  0.00     0.089 C 
ENDBRANCH   6   7
ENDBRANCH   5   6
ENDBRANCH   1   5
BRANCH   1   9
HETATM    9  C   UNK N   1      34.676  18.195   8.124  0.00  0.00     0.163 C 
HETATM   10  O   UNK N   1      34.389  18.123   6.932  0.00  0.00    -0.648 OA
BRANCH   9  11
HETATM   11  O   UNK N   1      35.312  19.284   8.585  0.00  0.00    -0.775 OA
HETATM   12  H   UNK N   1      34.929  19.815   9.255  0.00  0.00     0.167 HD
ENDBRANCH   9  11
ENDBRANCH   1   9
TORSDOF 6
ENDMDL
MODEL 4
REMARK VINA RESULT:      -3.8      1.996      2.621
REMARK  6 active torsions:
REMARK  status: ('A' for Active; 'I' for Inactive)
REMARK    1  A    between atoms: S_1  and  C_7 
REMARK    2  A    between atoms: O_2  and  C_8 
REMARK    3  A    between atoms: C_6  and  N_4 
REMARK    4  A    between atoms: C_5  and  C_6 
REMARK    5  A    between atoms: C_5  and  C_7 
REMARK    6  A    between atoms: C_6  and  C_8 
ROOT
HETATM    1  C   UNK N   1      34.098  17.225   9.067  0.00  0.00     0.174 C 
ENDROOT
BRANCH   1   2
HETATM    2  N   UNK N   1      34.868  17.163  10.301  0.00  0.00    -0.418 N 
HETATM    3  H   UNK N   1      35.885  17.233  10.301  0.00  0.00     0.150 HD
HETATM    4  H   UNK N   1      34.377  17.047  11.187  0.00  0.00     0.150 HD
ENDBRANCH   1   2
BRANCH   1   5
HETATM    5  C   UNK N   1      34.050  15.848   8.418  0.00  0.00     0.045 C 
BRANCH   5   6
HETATM    6  C   UNK N   1      34.808  14.864   9.291  0.00  0.00     0.076 C 
BRANCH   6   7
HETATM    7  S   UNK N   1      36.153  14.094   8.349  0.00  0.00    -0.173 SA
HETATM    8  C   UNK N   1      35.491  14.697   6.771  0.00  0.00     0.089 C 
ENDBRANCH   6   7
ENDBRANCH   5   6
ENDBRANCH   1   5
BRANCH   1   9
HETATM    9  C   UNK N   1      34.654  18.253   8.124  0.00  0.00     0.163 C 
HETATM   10  O   UNK N   1      35.275  19.221   8.554  0.00  0.00    -0.648 OA
BRANCH   9  11
HETATM   11  O   UNK N   1      34.440  18.140   6.803  0.00  0.00    -0.775 OA
HETATM   12  H   UNK N   1      34.198  17.317   6.426  0.00  0.00     0.167 HD
ENDBRANCH   9  11
ENDBRANCH   1   9
TORSDOF 6
ENDMDL
MODEL 5
REMARK VINA RESULT:      -3.8     13.531     14.444
REMARK  6 active torsions:
REMARK  status: ('A' for Active; 'I' for Inactive)
REMARK    1  A    between atoms: S_1  and  C_7 
REMARK    2  A    between atoms: O_2  and  C_8 
REMARK    3  A    between atoms: C_6  and  N_4 
REMARK    4  A    between atoms: C_5  and  C_6 
REMARK    5  A    between atoms: C_5  and  C_7 
REMARK    6  A    between atoms: C_6  and  C_8 
ROOT
HETATM    1  C   UNK N   1      20.433  19.081   2.303  0.00  0.00     0.174 C 
ENDROOT
BRANCH   1   2
HETATM    2  N   UNK N   1      19.017  18.751   2.243  0.00  0.00    -0.418 N 
HETATM    3  H   UNK N   1      18.637  18.151   1.512  0.00  0.00     0.150 HD
HETATM    4  H   UNK N   1      18.389  19.132   2.951  0.00  0.00     0.150 HD
ENDBRANCH   1   2
BRANCH   1   5
HETATM    5  C   UNK N   1      20.819  19.446   3.730  0.00  0.00     0.045 C 
BRANCH   5   6
HETATM    6  C   UNK N   1      22.052  18.653   4.127  0.00  0.00     0.076 C 
BRANCH   6   7
HETATM    7  S   UNK N   1      21.860  17.989   5.804  0.00  0.00    -0.173 SA
HETATM    8  C   UNK N   1      20.567  16.830   5.275  0.00  0.00     0.089 C 
ENDBRANCH   6   7
ENDBRANCH   5   6
ENDBRANCH   1   5
BRANCH   1   9
HETATM    9  C   UNK N   1      20.781  20.184   1.345  0.00  0.00     0.163 C 
HETATM   10  O   UNK N   1      21.162  21.274   1.762  0.00  0.00    -0.648 OA
BRANCH   9  11
HETATM   11  O   UNK N   1      20.641  19.995   0.023  0.00  0.00    -0.775 OA
HETATM   12  H   UNK N   1      20.027  20.502  -0.471  0.00  0.00     0.167 HD
ENDBRANCH   9  11
ENDBRANCH   1   9
TORSDOF 6
ENDMDL
MODEL 6
REMARK VINA RESULT:      -3.6      1.258      1.699
REMARK  6 active torsions:
REMARK  status: ('A' for Active; 'I' for Inactive)
REMARK    1  A    between atoms: S_1  and  C_7 
REMARK    2  A    between atoms: O_2  and  C_8 
REMARK    3  A    between atoms: C_6  and  N_4 
REMARK    4  A    between atoms: C_5  and  C_6 
REMARK    5  A    between atoms: C_5  and  C_7 
REMARK    6  A    between atoms: C_6  and  C_8 
ROOT
HETATM    1  C   UNK N   1      33.180  17.794   8.689  0.00  0.00     0.174 C 
ENDROOT
BRANCH   1   2
HETATM    2  N   UNK N   1      33.532  16.629   9.487  0.00  0.00    -0.418 N 
HETATM    3  H   UNK N   1      33.967  16.720  10.405  0.00  0.00     0.150 HD
HETATM    4  H   UNK N   1      33.340  15.698   9.118  0.00  0.00     0.150 HD
ENDBRANCH   1   2
BRANCH   1   5
HETATM    5  C   UNK N   1      32.000  17.464   7.785  0.00  0.00     0.045 C 
BRANCH   5   6
HETATM    6  C   UNK N   1      31.712  15.975   7.873  0.00  0.00     0.076 C 
BRANCH   6   7
HETATM    7  S   UNK N   1      31.802  15.218   6.228  0.00  0.00    -0.173 SA
HETATM    8  C   UNK N   1      33.397  14.435   6.596  0.00  0.00     0.089 C 
ENDBRANCH   6   7
ENDBRANCH   5   6
ENDBRANCH   1   5
BRANCH   1   9
HETATM    9  C   UNK N   1      34.354  18.291   7.895  0.00  0.00     0.163 C 
HETATM   10  O   UNK N   1      34.535  17.905   6.743  0.00  0.00    -0.648 OA
BRANCH   9  11
HETATM   11  O   UNK N   1      35.237  19.133   8.455  0.00  0.00    -0.775 OA
HETATM   12  H   UNK N   1      36.060  19.308   8.043  0.00  0.00     0.167 HD
ENDBRANCH   9  11
ENDBRANCH   1   9
TORSDOF 6
ENDMDL
MODEL 7
REMARK VINA RESULT:      -3.5     14.099     14.440
REMARK  6 active torsions:
REMARK  status: ('A' for Active; 'I' for Inactive)
REMARK    1  A    between atoms: S_1  and  C_7 
REMARK    2  A    between atoms: O_2  and  C_8 
REMARK    3  A    between atoms: C_6  and  N_4 
REMARK    4  A    between atoms: C_5  and  C_6 
REMARK    5  A    between atoms: C_5  and  C_7 
REMARK    6  A    between atoms: C_6  and  C_8 
ROOT
HETATM    1  C   UNK N   1      20.385  19.879   3.102  0.00  0.00     0.174 C 
ENDROOT
BRANCH   1   2
HETATM    2  N   UNK N   1      21.112  19.369   4.256  0.00  0.00    -0.418 N 
HETATM    3  H   UNK N   1      20.629  19.032   5.088  0.00  0.00     0.150 HD
HETATM    4  H   UNK N   1      22.132  19.349   4.230  0.00  0.00     0.150 HD
ENDBRANCH   1   2
BRANCH   1   5
HETATM    5  C   UNK N   1      19.762  18.724   2.332  0.00  0.00     0.045 C 
BRANCH   5   6
HETATM    6  C   UNK N   1      19.948  17.442   3.126  0.00  0.00     0.076 C 
BRANCH   6   7
HETATM    7  S   UNK N   1      20.491  16.099   2.035  0.00  0.00    -0.173 SA
HETATM    8  C   UNK N   1      20.036  17.028   0.544  0.00  0.00     0.089 C 
ENDBRANCH   6   7
ENDBRANCH   5   6
ENDBRANCH   1   5
BRANCH   1   9
HETATM    9  C   UNK N   1      21.272  20.709   2.218  0.00  0.00     0.163 C 
HETATM   10  O   UNK N   1      21.353  20.469   1.016  0.00  0.00    -0.648 OA
BRANCH   9  11
HETATM   11  O   UNK N   1      22.012  21.697   2.745  0.00  0.00    -0.775 OA
HETATM   12  H   UNK N   1      22.202  22.470   2.251  0.00  0.00     0.167 HD
ENDBRANCH   9  11
ENDBRANCH   1   9
TORSDOF 6
ENDMDL
MODEL 8
REMARK VINA RESULT:      -3.4      4.692      5.425
REMARK  6 active torsions:
REMARK  status: ('A' for Active; 'I' for Inactive)
REMARK    1  A    between atoms: S_1  and  C_7 
REMARK    2  A    between atoms: O_2  and  C_8 
REMARK    3  A    between atoms: C_6  and  N_4 
REMARK    4  A    between atoms: C_5  and  C_6 
REMARK    5  A    between atoms: C_5  and  C_7 
REMARK    6  A    between atoms: C_6  and  C_8 
ROOT
HETATM    1  C   UNK N   1      34.997  14.838  10.358  0.00  0.00     0.174 C 
ENDROOT
BRANCH   1   2
HETATM    2  N   UNK N   1      33.655  15.031  10.887  0.00  0.00    -0.418 N 
HETATM    3  H   UNK N   1      33.336  15.940  11.222  0.00  0.00     0.150 HD
HETATM    4  H   UNK N   1      33.017  14.236  10.924  0.00  0.00     0.150 HD
ENDBRANCH   1   2
BRANCH   1   5
HETATM    5  C   UNK N   1      35.630  13.607  10.990  0.00  0.00     0.045 C 
BRANCH   5   6
HETATM    6  C   UNK N   1      35.032  13.397  12.370  0.00  0.00     0.076 C 
BRANCH   6   7
HETATM    7  S   UNK N   1      36.228  13.861  13.652  0.00  0.00    -0.173 SA
HETATM    8  C   UNK N   1      36.614  12.128  14.022  0.00  0.00     0.089 C 
ENDBRANCH   6   7
ENDBRANCH   5   6
ENDBRANCH   1   5
BRANCH   1   9
HETATM    9  C   UNK N   1      35.850  16.057  10.565  0.00  0.00     0.163 C 
HETATM   10  O   UNK N   1      35.365  17.181  10.463  0.00  0.00    -0.648 OA
BRANCH   9  11
HETATM   11  O   UNK N   1      37.160  15.925  10.827  0.00  0.00    -0.775 OA
HETATM   12  H   UNK N   1      37.766  15.717  10.144  0.00  0.00     0.167 HD
ENDBRANCH   9  11
ENDBRANCH   1   9
TORSDOF 6
ENDMDL
MODEL 9
REMARK VINA RESULT:      -3.3     14.055     14.628
REMARK  6 active torsions:
REMARK  status: ('A' for Active; 'I' for Inactive)
REMARK    1  A    between atoms: S_1  and  C_7 
REMARK    2  A    between atoms: O_2  and  C_8 
REMARK    3  A    between atoms: C_6  and  N_4 
REMARK    4  A    between atoms: C_5  and  C_6 
REMARK    5  A    between atoms: C_5  and  C_7 
REMARK    6  A    between atoms: C_6  and  C_8 
ROOT
HETATM    1  C   UNK N   1      20.169  18.952   2.383  0.00  0.00     0.174 C 
ENDROOT
BRANCH   1   2
HETATM    2  N   UNK N   1      18.716  18.876   2.361  0.00  0.00    -0.418 N 
HETATM    3  H   UNK N   1      18.225  18.139   1.855  0.00  0.00     0.150 HD
HETATM    4  H   UNK N   1      18.175  19.578   2.865  0.00  0.00     0.150 HD
ENDBRANCH   1   2
BRANCH   1   5
HETATM    5  C   UNK N   1      20.721  18.005   3.440  0.00  0.00     0.045 C 
BRANCH   5   6
HETATM    6  C   UNK N   1      20.124  16.625   3.227  0.00  0.00     0.076 C 
BRANCH   6   7
HETATM    7  S   UNK N   1      19.334  16.039   4.751  0.00  0.00    -0.173 SA
HETATM    8  C   UNK N   1      20.709  16.629   5.777  0.00  0.00     0.089 C 
ENDBRANCH   6   7
ENDBRANCH   5   6
ENDBRANCH   1   5
BRANCH   1   9
HETATM    9  C   UNK N   1      20.642  20.359   2.611  0.00  0.00     0.163 C 
HETATM   10  O   UNK N   1      21.390  20.904   1.803  0.00  0.00    -0.648 OA
BRANCH   9  11
HETATM   11  O   UNK N   1      20.280  21.018   3.723  0.00  0.00    -0.775 OA
HETATM   12  H   UNK N   1      20.900  21.180   4.407  0.00  0.00     0.167 HD
ENDBRANCH   9  11
ENDBRANCH   1   9
TORSDOF 6
ENDMDL
