MODEL 1
REMARK VINA RESULT:      -5.5      0.000      0.000
REMARK  6 active torsions:
REMARK  status: ('A' for Active; 'I' for Inactive)
REMARK    1  A    between atoms: O_1  and  C_10 
REMARK    2  A    between atoms: O_2  and  C_13 
REMARK    3  A    between atoms: C_6  and  N_4 
REMARK    4  A    between atoms: C_5  and  C_6 
REMARK    5  A    between atoms: C_5  and  C_7 
REMARK    6  A    between atoms: C_6  and  C_10 
ROOT
HETATM    1  C   UNK N   1      32.419  16.766   7.998  0.00  0.00     0.074 C 
ENDROOT
BRANCH   1   2
HETATM    2  C   UNK N   1      33.570  17.385   8.818  0.00  0.00     0.177 C 
BRANCH   2   3
HETATM    3  N   UNK N   1      34.410  16.375   9.438  0.00  0.00    -0.417 N 
HETATM    4  H   UNK N   1      34.813  16.387  10.376  0.00  0.00     0.150 HD
HETATM    5  H   UNK N   1      34.621  15.556   8.869  0.00  0.00     0.150 HD
ENDBRANCH   2   3
BRANCH   2   6
HETATM    6  C   UNK N   1      34.442  18.248   7.943  0.00  0.00     0.163 C 
HETATM    7  O   UNK N   1      34.466  18.096   6.733  0.00  0.00    -0.648 OA
BRANCH   6   8
HETATM    8  O   UNK N   1      35.237  19.178   8.509  0.00  0.00    -0.775 OA
HETATM    9  H   UNK N   1      35.286  20.044   8.154  0.00  0.00     0.167 HD
ENDBRANCH   6   8
ENDBRANCH   2   6
ENDBRANCH   1   2
BRANCH   1  10
HETATM   10  C   UNK N   1      31.034  17.353   8.085  0.00  0.00    -0.056 A 
HETATM   11  C   UNK N   1      30.117  17.293   7.025  0.00  0.00     0.010 A 
HETATM   12  C   UNK N   1      28.876  17.929   7.125  0.00  0.00     0.037 A 
HETATM   13  C   UNK N   1      28.542  18.628   8.287  0.00  0.00     0.065 A 
HETATM   14  C   UNK N   1      29.445  18.682   9.352  0.00  0.00     0.037 A 
HETATM   15  C   UNK N   1      30.688  18.052   9.247  0.00  0.00     0.010 A 
BRANCH  13  16
HETATM   16  O   UNK N   1      27.358  19.252   8.377  0.00  0.00    -0.361 OA
HETATM   17  H   UNK N   1      27.324  20.174   8.546  0.00  0.00     0.217 HD
ENDBRANCH  13  16
ENDBRANCH   1  10
TORSDOF 6
ENDMDL
MODEL 2
REMARK VINA RESULT:      -5.4      9.415     10.846
REMARK  6 active torsions:
REMARK  status: ('A' for Active; 'I' for Inactive)
REMARK    1  A    between atoms: O_1  and  C_10 
REMARK    2  A    between atoms: O_2  and  C_13 
REMARK    3  A    between atoms: C_6  and  N_4 
REMARK    4  A    between atoms: C_5  and  C_6 
REMARK    5  A    between atoms: C_5  and  C_7 
REMARK    6  A    between atoms: C_6  and  C_10 
ROOT
HETATM    1  C   UNK N   1      35.754  12.077  15.054  0.00  0.00     0.074 C 
ENDROOT
BRANCH   1   2
HETATM    2  C   UNK N   1      36.697  12.984  14.237  0.00  0.00     0.177 C 
BRANCH   2   3
HETATM    3  N   UNK N   1      37.577  12.224  13.366  0.00  0.00    -0.417 N 
HETATM    4  H   UNK N   1      38.483  12.507  12.992  0.00  0.00     0.150 HD
HETATM    5  H   UNK N   1      37.249  11.296  13.097  0.00  0.00     0.150 HD
ENDBRANCH   2   3
BRANCH   2   6
HETATM    6  C   UNK N   1      35.905  13.941  13.383  0.00  0.00     0.163 C 
HETATM    7  O   UNK N   1      34.765  13.681  13.037  0.00  0.00    -0.648 OA
BRANCH   6   8
HETATM    8  O   UNK N   1      36.478  15.087  12.965  0.00  0.00    -0.775 OA
HETATM    9  H   UNK N   1      35.981  15.724  12.489  0.00  0.00     0.167 HD
ENDBRANCH   6   8
ENDBRANCH   2   6
ENDBRANCH   1   2
BRANCH   1  10
HETATM   10  C   UNK N   1      35.609  12.288  16.539  0.00  0.00    -0.056 A 
HETATM   11  C   UNK N   1      35.605  11.228  17.458  0.00  0.00     0.010 A 
HETATM   12  C   UNK N   1      35.379  11.469  18.816  0.00  0.00     0.037 A 
HETATM   13  C   UNK N   1      35.157  12.773  19.266  0.00  0.00     0.065 A 
HETATM   14  C   UNK N   1      35.171  13.836  18.358  0.00  0.00     0.037 A 
HETATM   15  C   UNK N   1      35.389  13.591  16.999  0.00  0.00     0.010 A 
BRANCH  13  16
HETATM   16  O   UNK N   1      34.924  13.004  20.567  0.00  0.00    -0.361 OA
HETATM   17  H   UNK N   1      35.463  13.607  21.041  0.00  0.00     0.217 HD
ENDBRANCH  13  16
ENDBRANCH   1  10
TORSDOF 6
ENDMDL
MODEL 3
REMARK VINA RESULT:      -5.1      3.088      3.831
REMARK  6 active torsions:
REMARK  status: ('A' for Active; 'I' for Inactive)
REMARK    1  A    between atoms: O_1  and  C_10 
REMARK    2  A    between atoms: O_2  and  C_13 
REMARK    3  A    between atoms: C_6  and  N_4 
REMARK    4  A    between atoms: C_5  and  C_6 
REMARK    5  A    between atoms: C_5  and  C_7 
REMARK    6  A    between atoms: C_6  and  C_10 
ROOT
HETATM    1  C   UNK N   1      33.030  17.383   8.256  0.00  0.00     0.074 C 
ENDROOT
BRANCH   1   2
HETATM    2  C   UNK N   1      34.536  17.524   8.561  0.00  0.00     0.177 C 
BRANCH   2   3
HETATM    3  N   UNK N   1      34.969  18.910   8.568  0.00  0.00    -0.417 N 
HETATM    4  H   UNK N   1      34.432  19.732   8.848  0.00  0.00     0.150 HD
HETATM    5  H   UNK N   1      35.925  19.083   8.257  0.00  0.00     0.150 HD
ENDBRANCH   2   3
BRANCH   2   6
HETATM    6  C   UNK N   1      34.864  16.923   9.903  0.00  0.00     0.163 C 
HETATM    7  O   UNK N   1      35.858  17.267  10.522  0.00  0.00    -0.648 OA
BRANCH   6   8
HETATM    8  O   UNK N   1      34.066  15.964  10.414  0.00  0.00    -0.775 OA
HETATM    9  H   UNK N   1      34.057  15.103  10.045  0.00  0.00     0.167 HD
ENDBRANCH   6   8
ENDBRANCH   2   6
ENDBRANCH   1   2
BRANCH   1  10
HETATM   10  C   UNK N   1      32.558  17.293   6.828  0.00  0.00    -0.056 A 
HETATM   11  C   UNK N   1      33.419  17.461   5.733  0.00  0.00     0.010 A 
HETATM   12  C   UNK N   1      32.916  17.454   4.429  0.00  0.00     0.037 A 
HETATM   13  C   UNK N   1      31.548  17.277   4.210  0.00  0.00     0.065 A 
HETATM   14  C   UNK N   1      30.685  17.097   5.294  0.00  0.00     0.037 A 
HETATM   15  C   UNK N   1      31.189  17.111   6.598  0.00  0.00     0.010 A 
BRANCH  13  16
HETATM   16  O   UNK N   1      31.062  17.286   2.959  0.00  0.00    -0.361 OA
HETATM   17  H   UNK N   1      31.550  16.891   2.262  0.00  0.00     0.217 HD
ENDBRANCH  13  16
ENDBRANCH   1  10
TORSDOF 6
ENDMDL
MODEL 4
REMARK VINA RESULT:      -4.9     15.850     17.073
REMARK  6 active torsions:
REMARK  status: ('A' for Active; 'I' for Inactive)
REMARK    1  A    between atoms: O_1  and  C_10 
REMARK    2  A    between atoms: O_2  and  C_13 
REMARK    3  A    between atoms: C_6  and  N_4 
REMARK    4  A    between atoms: C_5  and  C_6 
REMARK    5  A    between atoms: C_5  and  C_7 
REMARK    6  A    between atoms: C_6  and  C_10 
ROOT
HETATM    1  C   UNK N   1      25.938  23.632  -5.555  0.00  0.00     0.074 C 
ENDROOT
BRANCH   1   2
HETATM    2  C   UNK N   1      26.397  23.388  -7.008  0.00  0.00     0.177 C 
BRANCH   2   3
HETATM    3  N   UNK N   1      27.643  22.645  -7.075  0.00  0.00    -0.417 N 
HETATM    4  H   UNK N   1      27.817  21.688  -6.765  0.00  0.00     0.150 HD
HETATM    5  H   UNK N   1      28.438  23.138  -7.481  0.00  0.00     0.150 HD
ENDBRANCH   2   3
BRANCH   2   6
HETATM    6  C   UNK N   1      25.350  22.619  -7.773  0.00  0.00     0.163 C 
HETATM    7  O   UNK N   1      25.253  21.408  -7.664  0.00  0.00    -0.648 OA
BRANCH   6   8
HETATM    8  O   UNK N   1      24.531  23.274  -8.619  0.00  0.00    -0.775 OA
HETATM    9  H   UNK N   1      23.602  23.251  -8.499  0.00  0.00     0.167 HD
ENDBRANCH   6   8
ENDBRANCH   2   6
ENDBRANCH   1   2
BRANCH   1  10
HETATM   10  C   UNK N   1      25.900  25.034  -5.005  0.00  0.00    -0.056 A 
HETATM   11  C   UNK N   1      26.473  25.380  -3.772  0.00  0.00     0.010 A 
HETATM   12  C   UNK N   1      26.334  26.676  -3.266  0.00  0.00     0.037 A 
HETATM   13  C   UNK N   1      25.623  27.636  -3.990  0.00  0.00     0.065 A 
HETATM   14  C   UNK N   1      25.059  27.302  -5.224  0.00  0.00     0.037 A 
HETATM   15  C   UNK N   1      25.193  26.004  -5.726  0.00  0.00     0.010 A 
BRANCH  13  16
HETATM   16  O   UNK N   1      25.476  28.875  -3.497  0.00  0.00    -0.361 OA
HETATM   17  H   UNK N   1      24.634  29.168  -3.204  0.00  0.00     0.217 HD
ENDBRANCH  13  16
ENDBRANCH   1  10
TORSDOF 6
ENDMDL
MODEL 5
REMARK VINA RESULT:      -4.9      9.833     11.668
REMARK  6 active torsions:
REMARK  status: ('A' for Active; 'I' for Inactive)
REMARK    1  A    between atoms: O_1  and  C_10 
REMARK    2  A    between atoms: O_2  and  C_13 
REMARK    3  A    between atoms: C_6  and  N_4 
REMARK    4  A    between atoms: C_5  and  C_6 
REMARK    5  A    between atoms: C_5  and  C_7 
REMARK    6  A    between atoms: C_6  and  C_10 
ROOT
HETATM    1  C   UNK N   1      20.997  13.303   8.193  0.00  0.00     0.074 C 
ENDROOT
BRANCH   1   2
HETATM    2  C   UNK N   1      20.953  14.752   7.663  0.00  0.00     0.177 C 
BRANCH   2   3
HETATM    3  N   UNK N   1      20.265  14.852   6.388  0.00  0.00    -0.417 N 
HETATM    4  H   UNK N   1      20.471  14.347   5.525  0.00  0.00     0.150 HD
HETATM    5  H   UNK N   1      19.482  15.505   6.351  0.00  0.00     0.150 HD
ENDBRANCH   2   3
BRANCH   2   6
HETATM    6  C   UNK N   1      20.253  15.655   8.646  0.00  0.00     0.163 C 
HETATM    7  O   UNK N   1      20.624  16.804   8.821  0.00  0.00    -0.648 OA
BRANCH   6   8
HETATM    8  O   UNK N   1      19.221  15.175   9.369  0.00  0.00    -0.775 OA
HETATM    9  H   UNK N   1      19.191  15.297  10.298  0.00  0.00     0.167 HD
ENDBRANCH   6   8
ENDBRANCH   2   6
ENDBRANCH   1   2
BRANCH   1  10
HETATM   10  C   UNK N   1      22.064  12.894   9.175  0.00  0.00    -0.056 A 
HETATM   11  C   UNK N   1      21.766  12.385  10.448  0.00  0.00     0.010 A 
HETATM   12  C   UNK N   1      22.792  12.103  11.355  0.00  0.00     0.037 A 
HETATM   13  C   UNK N   1      24.123  12.326  10.995  0.00  0.00     0.065 A 
HETATM   14  C   UNK N   1      24.428  12.821   9.724  0.00  0.00     0.037 A 
HETATM   15  C   UNK N   1      23.400  13.110   8.821  0.00  0.00     0.010 A 
BRANCH  13  16
HETATM   16  O   UNK N   1      25.107  12.070  11.870  0.00  0.00    -0.361 OA
HETATM   17  H   UNK N   1      25.237  11.198  12.189  0.00  0.00     0.217 HD
ENDBRANCH  13  16
ENDBRANCH   1  10
TORSDOF 6
ENDMDL
MODEL 6
REMARK VINA RESULT:      -4.8     12.964     13.905
REMARK  6 active torsions:
REMARK  status: ('A' for Active; 'I' for Inactive)
REMARK    1  A    between atoms: O_1  and  C_10 
REMARK    2  A    between atoms: O_2  and  C_13 
REMARK    3  A    between atoms: C_6  and  N_4 
REMARK    4  A    between atoms: C_5  and  C_6 
REMARK    5  A    between atoms: C_5  and  C_7 
REMARK    6  A    between atoms: C_6  and  C_10 
ROOT
HETATM    1  C   UNK N   1      30.267  22.950  -4.632  0.00  0.00     0.074 C 
ENDROOT
BRANCH   1   2
HETATM    2  C   UNK N   1      30.529  21.682  -3.793  0.00  0.00     0.177 C 
BRANCH   2   3
HETATM    3  N   UNK N   1      31.331  20.704  -4.508  0.00  0.00    -0.417 N 
HETATM    4  H   UNK N   1      32.223  20.853  -4.981  0.00  0.00     0.150 HD
HETATM    5  H   UNK N   1      30.958  19.756  -4.541  0.00  0.00     0.150 HD
ENDBRANCH   2   3
BRANCH   2   6
HETATM    6  C   UNK N   1      31.247  22.031  -2.514  0.00  0.00     0.163 C 
HETATM    7  O   UNK N   1      30.835  22.915  -1.782  0.00  0.00    -0.648 OA
BRANCH   6   8
HETATM    8  O   UNK N   1      32.382  21.379  -2.191  0.00  0.00    -0.775 OA
HETATM    9  H   UNK N   1      33.217  21.717  -2.450  0.00  0.00     0.167 HD
ENDBRANCH   6   8
ENDBRANCH   2   6
ENDBRANCH   1   2
BRANCH   1  10
HETATM   10  C   UNK N   1      28.855  23.439  -4.831  0.00  0.00    -0.056 A 
HETATM   11  C   UNK N   1      28.125  24.078  -3.818  0.00  0.00     0.010 A 
HETATM   12  C   UNK N   1      26.789  24.435  -4.025  0.00  0.00     0.037 A 
HETATM   13  C   UNK N   1      26.175  24.157  -5.249  0.00  0.00     0.065 A 
HETATM   14  C   UNK N   1      26.900  23.532  -6.267  0.00  0.00     0.037 A 
HETATM   15  C   UNK N   1      28.233  23.169  -6.055  0.00  0.00     0.010 A 
BRANCH  13  16
HETATM   16  O   UNK N   1      24.889  24.485  -5.443  0.00  0.00    -0.361 OA
HETATM   17  H   UNK N   1      24.349  24.723  -4.715  0.00  0.00     0.217 HD
ENDBRANCH  13  16
ENDBRANCH   1  10
TORSDOF 6
ENDMDL
MODEL 7
REMARK VINA RESULT:      -4.7     13.270     14.774
REMARK  6 active torsions:
REMARK  status: ('A' for Active; 'I' for Inactive)
REMARK    1  A    between atoms: O_1  and  C_10 
REMARK    2  A    between atoms: O_2  and  C_13 
REMARK    3  A    between atoms: C_6  and  N_4 
REMARK    4  A    between atoms: C_5  and  C_6 
REMARK    5  A    between atoms: C_5  and  C_7 
REMARK    6  A    between atoms: C_6  and  C_10 
ROOT
HETATM    1  C   UNK N   1      28.387  23.413  -5.568  0.00  0.00     0.074 C 
ENDROOT
BRANCH   1   2
HETATM    2  C   UNK N   1      27.668  24.712  -5.149  0.00  0.00     0.177 C 
BRANCH   2   3
HETATM    3  N   UNK N   1      27.458  25.612  -6.270  0.00  0.00    -0.417 N 
HETATM    4  H   UNK N   1      27.535  25.399  -7.265  0.00  0.00     0.150 HD
HETATM    5  H   UNK N   1      27.204  26.571  -6.034  0.00  0.00     0.150 HD
ENDBRANCH   2   3
BRANCH   2   6
HETATM    6  C   UNK N   1      26.324  24.401  -4.540  0.00  0.00     0.163 C 
HETATM    7  O   UNK N   1      26.220  24.103  -3.362  0.00  0.00    -0.648 OA
BRANCH   6   8
HETATM    8  O   UNK N   1      25.223  24.420  -5.318  0.00  0.00    -0.775 OA
HETATM    9  H   UNK N   1      24.579  25.093  -5.219  0.00  0.00     0.167 HD
ENDBRANCH   6   8
ENDBRANCH   2   6
ENDBRANCH   1   2
BRANCH   1  10
HETATM   10  C   UNK N   1      29.492  22.856  -4.708  0.00  0.00    -0.056 A 
HETATM   11  C   UNK N   1      30.079  21.604  -4.946  0.00  0.00     0.010 A 
HETATM   12  C   UNK N   1      31.040  21.094  -4.068  0.00  0.00     0.037 A 
HETATM   13  C   UNK N   1      31.422  21.833  -2.946  0.00  0.00     0.065 A 
HETATM   14  C   UNK N   1      30.851  23.087  -2.709  0.00  0.00     0.037 A 
HETATM   15  C   UNK N   1      29.885  23.591  -3.584  0.00  0.00     0.010 A 
BRANCH  13  16
HETATM   16  O   UNK N   1      32.333  21.338  -2.094  0.00  0.00    -0.361 OA
HETATM   17  H   UNK N   1      33.202  21.690  -2.078  0.00  0.00     0.217 HD
ENDBRANCH  13  16
ENDBRANCH   1  10
TORSDOF 6
ENDMDL
MODEL 8
REMARK VINA RESULT:      -4.7      2.705      5.434
REMARK  6 active torsions:
REMARK  status: ('A' for Active; 'I' for Inactive)
REMARK    1  A    between atoms: O_1  and  C_10 
REMARK    2  A    between atoms: O_2  and  C_13 
REMARK    3  A    between atoms: C_6  and  N_4 
REMARK    4  A    between atoms: C_5  and  C_6 
REMARK    5  A    between atoms: C_5  and  C_7 
REMARK    6  A    between atoms: C_6  and  C_10 
ROOT
HETATM    1  C   UNK N   1      29.203  17.681   7.167  0.00  0.00     0.074 C 
ENDROOT
BRANCH   1   2
HETATM    2  C   UNK N   1      28.768  18.618   8.313  0.00  0.00     0.177 C 
BRANCH   2   3
HETATM    3  N   UNK N   1      27.493  19.261   8.046  0.00  0.00    -0.417 N 
HETATM    4  H   UNK N   1      26.581  18.816   7.932  0.00  0.00     0.150 HD
HETATM    5  H   UNK N   1      27.511  20.277   7.963  0.00  0.00     0.150 HD
ENDBRANCH   2   3
BRANCH   2   6
HETATM    6  C   UNK N   1      28.646  17.854   9.606  0.00  0.00     0.163 C 
HETATM    7  O   UNK N   1      27.785  17.004   9.757  0.00  0.00    -0.648 OA
BRANCH   6   8
HETATM    8  O   UNK N   1      29.480  18.139  10.626  0.00  0.00    -0.775 OA
HETATM    9  H   UNK N   1      29.200  18.683  11.335  0.00  0.00     0.167 HD
ENDBRANCH   6   8
ENDBRANCH   2   6
ENDBRANCH   1   2
BRANCH   1  10
HETATM   10  C   UNK N   1      30.667  17.423   6.922  0.00  0.00    -0.056 A 
HETATM   11  C   UNK N   1      31.635  17.540   7.930  0.00  0.00     0.010 A 
HETATM   12  C   UNK N   1      32.991  17.375   7.632  0.00  0.00     0.037 A 
HETATM   13  C   UNK N   1      33.388  17.089   6.323  0.00  0.00     0.065 A 
HETATM   14  C   UNK N   1      32.428  16.959   5.316  0.00  0.00     0.037 A 
HETATM   15  C   UNK N   1      31.073  17.132   5.615  0.00  0.00     0.010 A 
BRANCH  13  16
HETATM   16  O   UNK N   1      34.690  16.946   6.033  0.00  0.00    -0.361 OA
HETATM   17  H   UNK N   1      35.339  17.360   6.568  0.00  0.00     0.217 HD
ENDBRANCH  13  16
ENDBRANCH   1  10
TORSDOF 6
ENDMDL
MODEL 9
REMARK VINA RESULT:      -4.6     11.657     12.607
REMARK  6 active torsions:
REMARK  status: ('A' for Active; 'I' for Inactive)
REMARK    1  A    between atoms: O_1  and  C_10 
REMARK    2  A    between atoms: O_2  and  C_13 
REMARK    3  A    between atoms: C_6  and  N_4 
REMARK    4  A    between atoms: C_5  and  C_6 
REMARK    5  A    between atoms: C_5  and  C_7 
REMARK    6  A    between atoms: C_6  and  C_10 
ROOT
HETATM    1  C   UNK N   1      21.393  18.733   3.167  0.00  0.00     0.074 C 
ENDROOT
BRANCH   1   2
HETATM    2  C   UNK N   1      20.447  19.069   1.996  0.00  0.00     0.177 C 
BRANCH   2   3
HETATM    3  N   UNK N   1      19.081  19.292   2.438  0.00  0.00    -0.417 N 
HETATM    4  H   UNK N   1      18.747  19.978   3.116  0.00  0.00     0.150 HD
HETATM    5  H   UNK N   1      18.371  18.690   2.021  0.00  0.00     0.150 HD
ENDBRANCH   2   3
BRANCH   2   6
HETATM    6  C   UNK N   1      20.914  20.308   1.275  0.00  0.00     0.163 C 
HETATM    7  O   UNK N   1      21.540  21.178   1.858  0.00  0.00    -0.648 OA
BRANCH   6   8
HETATM    8  O   UNK N   1      20.604  20.474  -0.026  0.00  0.00    -0.775 OA
HETATM    9  H   UNK N   1      21.270  20.433  -0.685  0.00  0.00     0.167 HD
ENDBRANCH   6   8
ENDBRANCH   2   6
ENDBRANCH   1   2
BRANCH   1  10
HETATM   10  C   UNK N   1      20.914  17.851   4.292  0.00  0.00    -0.056 A 
HETATM   11  C   UNK N   1      21.248  18.086   5.634  0.00  0.00     0.010 A 
HETATM   12  C   UNK N   1      20.851  17.188   6.629  0.00  0.00     0.037 A 
HETATM   13  C   UNK N   1      20.114  16.051   6.290  0.00  0.00     0.065 A 
HETATM   14  C   UNK N   1      19.766  15.817   4.957  0.00  0.00     0.037 A 
HETATM   15  C   UNK N   1      20.171  16.711   3.962  0.00  0.00     0.010 A 
BRANCH  13  16
HETATM   16  O   UNK N   1      19.745  15.182   7.243  0.00  0.00    -0.361 OA
HETATM   17  H   UNK N   1      19.134  15.441   7.906  0.00  0.00     0.217 HD
ENDBRANCH  13  16
ENDBRANCH   1  10
TORSDOF 6
ENDMDL
