MODEL 1
REMARK VINA RESULT:      -4.3      0.000      0.000
REMARK  5 active torsions:
REMARK  status: ('A' for Active; 'I' for Inactive)
REMARK    1  A    between atoms: O_1  and  C_7 
REMARK    2  A    between atoms: O_2  and  C_8 
REMARK    3  A    between atoms: C_5  and  C_6 
REMARK    4  A    between atoms: C_5  and  C_7 
REMARK    5  A    between atoms: C_6  and  C_8 
ROOT
HETATM    1  C   UNK N   1      35.013  16.122   9.332  0.00  0.00     0.120 C 
ENDROOT
BRANCH   1   2
HETATM    2  C   UNK N   1      34.001  17.201   8.970  0.00  0.00     0.120 C 
BRANCH   2   3
HETATM    3  C   UNK N   1      34.572  18.225   8.039  0.00  0.00     0.139 C 
HETATM    4  O   UNK N   1      34.393  18.147   6.832  0.00  0.00    -0.650 OA
BRANCH   3   5
HETATM    5  O   UNK N   1      35.291  19.242   8.541  0.00  0.00    -0.776 OA
HETATM    6  H   UNK N   1      34.866  20.041   8.785  0.00  0.00     0.167 HD
ENDBRANCH   3   5
ENDBRANCH   2   3
ENDBRANCH   1   2
BRANCH   1   7
HETATM    7  C   UNK N   1      35.727  16.420  10.610  0.00  0.00     0.139 C 
HETATM    8  O   UNK N   1      35.187  17.067  11.497  0.00  0.00    -0.650 OA
BRANCH   7   9
HETATM    9  O   UNK N   1      36.981  15.969  10.786  0.00  0.00    -0.776 OA
HETATM   10  H   UNK N   1      37.620  16.515  11.200  0.00  0.00     0.167 HD
ENDBRANCH   7   9
ENDBRANCH   1   7
TORSDOF 5
ENDMDL
MODEL 2
REMARK VINA RESULT:      -4.2     13.501     14.124
REMARK  5 active torsions:
REMARK  status: ('A' for Active; 'I' for Inactive)
REMARK    1  A    between atoms: O_1  and  C_7 
REMARK    2  A    between atoms: O_2  and  C_8 
REMARK    3  A    between atoms: C_5  and  C_6 
REMARK    4  A    between atoms: C_5  and  C_7 
REMARK    5  A    between atoms: C_6  and  C_8 
ROOT
HETATM    1  C   UNK N   1      22.920  11.705  10.694  0.00  0.00     0.120 C 
ENDROOT
BRANCH   1   2
HETATM    2  C   UNK N   1      22.042  12.887  10.305  0.00  0.00     0.120 C 
BRANCH   2   3
HETATM    3  C   UNK N   1      20.631  12.725  10.777  0.00  0.00     0.139 C 
HETATM    4  O   UNK N   1      19.712  13.317  10.228  0.00  0.00    -0.650 OA
BRANCH   3   5
HETATM    5  O   UNK N   1      20.374  11.918  11.819  0.00  0.00    -0.776 OA
HETATM    6  H   UNK N   1      19.824  11.168  11.706  0.00  0.00     0.167 HD
ENDBRANCH   3   5
ENDBRANCH   2   3
ENDBRANCH   1   2
BRANCH   1   7
HETATM    7  C   UNK N   1      23.721  11.976  11.927  0.00  0.00     0.139 C 
HETATM    8  O   UNK N   1      23.207  11.925  13.035  0.00  0.00    -0.650 OA
BRANCH   7   9
HETATM    9  O   UNK N   1      25.026  12.278  11.812  0.00  0.00    -0.776 OA
HETATM   10  H   UNK N   1      25.286  13.145  11.571  0.00  0.00     0.167 HD
ENDBRANCH   7   9
ENDBRANCH   1   7
TORSDOF 5
ENDMDL
MODEL 3
REMARK VINA RESULT:      -4.2     16.266     17.018
REMARK  5 active torsions:
REMARK  status: ('A' for Active; 'I' for Inactive)
REMARK    1  A    between atoms: O_1  and  C_7 
REMARK    2  A    between atoms: O_2  and  C_8 
REMARK    3  A    between atoms: C_5  and  C_6 
REMARK    4  A    between atoms: C_5  and  C_7 
REMARK    5  A    between atoms: C_6  and  C_8 
ROOT
HETATM    1  C   UNK N   1      20.245  20.017   3.179  0.00  0.00     0.120 C 
ENDROOT
BRANCH   1   2
HETATM    2  C   UNK N   1      21.379  20.472   2.271  0.00  0.00     0.120 C 
BRANCH   2   3
HETATM    3  C   UNK N   1      20.882  21.000   0.962  0.00  0.00     0.139 C 
HETATM    4  O   UNK N   1      20.880  20.298  -0.040  0.00  0.00    -0.650 OA
BRANCH   3   5
HETATM    5  O   UNK N   1      20.431  22.263   0.890  0.00  0.00    -0.776 OA
HETATM    6  H   UNK N   1      20.282  22.660   0.055  0.00  0.00     0.167 HD
ENDBRANCH   3   5
ENDBRANCH   2   3
ENDBRANCH   1   2
BRANCH   1   7
HETATM    7  C   UNK N   1      19.581  18.774   2.679  0.00  0.00     0.139 C 
HETATM    8  O   UNK N   1      20.216  17.740   2.527  0.00  0.00    -0.650 OA
BRANCH   7   9
HETATM    9  O   UNK N   1      18.268  18.797   2.394  0.00  0.00    -0.776 OA
HETATM   10  H   UNK N   1      17.783  19.592   2.489  0.00  0.00     0.167 HD
ENDBRANCH   7   9
ENDBRANCH   1   7
TORSDOF 5
ENDMDL
MODEL 4
REMARK VINA RESULT:      -4.1     13.299     14.320
REMARK  5 active torsions:
REMARK  status: ('A' for Active; 'I' for Inactive)
REMARK    1  A    between atoms: O_1  and  C_7 
REMARK    2  A    between atoms: O_2  and  C_8 
REMARK    3  A    between atoms: C_5  and  C_6 
REMARK    4  A    between atoms: C_5  and  C_7 
REMARK    5  A    between atoms: C_6  and  C_8 
ROOT
HETATM    1  C   UNK N   1      21.263  12.309  11.031  0.00  0.00     0.120 C 
ENDROOT
BRANCH   1   2
HETATM    2  C   UNK N   1      22.672  11.782  10.794  0.00  0.00     0.120 C 
BRANCH   2   3
HETATM    3  C   UNK N   1      23.565  11.999  11.975  0.00  0.00     0.139 C 
HETATM    4  O   UNK N   1      23.141  11.875  13.116  0.00  0.00    -0.650 OA
BRANCH   3   5
HETATM    5  O   UNK N   1      24.850  12.334  11.776  0.00  0.00    -0.776 OA
HETATM    6  H   UNK N   1      25.504  11.667  11.707  0.00  0.00     0.167 HD
ENDBRANCH   3   5
ENDBRANCH   2   3
ENDBRANCH   1   2
BRANCH   1   7
HETATM    7  C   UNK N   1      20.932  13.464  10.141  0.00  0.00     0.139 C 
HETATM    8  O   UNK N   1      21.813  14.174   9.678  0.00  0.00    -0.650 OA
BRANCH   7   9
HETATM    9  O   UNK N   1      19.646  13.723   9.848  0.00  0.00    -0.776 OA
HETATM   10  H   UNK N   1      19.419  14.511   9.395  0.00  0.00     0.167 HD
ENDBRANCH   7   9
ENDBRANCH   1   7
TORSDOF 5
ENDMDL
MODEL 5
REMARK VINA RESULT:      -4.1     16.085     17.070
REMARK  5 active torsions:
REMARK  status: ('A' for Active; 'I' for Inactive)
REMARK    1  A    between atoms: O_1  and  C_7 
REMARK    2  A    between atoms: O_2  and  C_8 
REMARK    3  A    between atoms: C_5  and  C_6 
REMARK    4  A    between atoms: C_5  and  C_7 
REMARK    5  A    between atoms: C_6  and  C_8 
ROOT
HETATM    1  C   UNK N   1      20.627  17.954   2.075  0.00  0.00     0.120 C 
ENDROOT
BRANCH   1   2
HETATM    2  C   UNK N   1      20.070  19.370   2.124  0.00  0.00     0.120 C 
BRANCH   2   3
HETATM    3  C   UNK N   1      20.889  20.331   1.321  0.00  0.00     0.139 C 
HETATM    4  O   UNK N   1      21.784  20.983   1.841  0.00  0.00    -0.650 OA
BRANCH   3   5
HETATM    5  O   UNK N   1      20.635  20.477   0.011  0.00  0.00    -0.776 OA
HETATM    6  H   UNK N   1      21.164  20.032  -0.622  0.00  0.00     0.167 HD
ENDBRANCH   3   5
ENDBRANCH   2   3
ENDBRANCH   1   2
BRANCH   1   7
HETATM    7  C   UNK N   1      20.055  17.159   0.945  0.00  0.00     0.139 C 
HETATM    8  O   UNK N   1      20.364  17.400  -0.213  0.00  0.00    -0.650 OA
BRANCH   7   9
HETATM    9  O   UNK N   1      19.190  16.165   1.210  0.00  0.00    -0.776 OA
HETATM   10  H   UNK N   1      18.277  16.353   1.307  0.00  0.00     0.167 HD
ENDBRANCH   7   9
ENDBRANCH   1   7
TORSDOF 5
ENDMDL
MODEL 6
REMARK VINA RESULT:      -4.0      2.570      3.655
REMARK  5 active torsions:
REMARK  status: ('A' for Active; 'I' for Inactive)
REMARK    1  A    between atoms: O_1  and  C_7 
REMARK    2  A    between atoms: O_2  and  C_8 
REMARK    3  A    between atoms: C_5  and  C_6 
REMARK    4  A    between atoms: C_5  and  C_7 
REMARK    5  A    between atoms: C_6  and  C_8 
ROOT
HETATM    1  C   UNK N   1      35.390  14.039  11.709  0.00  0.00     0.120 C 
ENDROOT
BRANCH   1   2
HETATM    2  C   UNK N   1      34.776  15.362  11.272  0.00  0.00     0.120 C 
BRANCH   2   3
HETATM    3  C   UNK N   1      35.806  16.335  10.791  0.00  0.00     0.139 C 
HETATM    4  O   UNK N   1      35.480  17.416  10.320  0.00  0.00    -0.650 OA
BRANCH   3   5
HETATM    5  O   UNK N   1      37.107  16.014  10.880  0.00  0.00    -0.776 OA
HETATM    6  H   UNK N   1      37.504  15.480  10.220  0.00  0.00     0.167 HD
ENDBRANCH   3   5
ENDBRANCH   2   3
ENDBRANCH   1   2
BRANCH   1   7
HETATM    7  C   UNK N   1      35.668  14.001  13.178  0.00  0.00     0.139 C 
HETATM    8  O   UNK N   1      34.880  13.477  13.953  0.00  0.00    -0.650 OA
BRANCH   7   9
HETATM    9  O   UNK N   1      36.799  14.551  13.650  0.00  0.00    -0.776 OA
HETATM   10  H   UNK N   1      37.148  15.322  13.247  0.00  0.00     0.167 HD
ENDBRANCH   7   9
ENDBRANCH   1   7
TORSDOF 5
ENDMDL
MODEL 7
REMARK VINA RESULT:      -4.0      0.902      3.675
REMARK  5 active torsions:
REMARK  status: ('A' for Active; 'I' for Inactive)
REMARK    1  A    between atoms: O_1  and  C_7 
REMARK    2  A    between atoms: O_2  and  C_8 
REMARK    3  A    between atoms: C_5  and  C_6 
REMARK    4  A    between atoms: C_5  and  C_7 
REMARK    5  A    between atoms: C_6  and  C_8 
ROOT
HETATM    1  C   UNK N   1      33.479  17.374   8.699  0.00  0.00     0.120 C 
ENDROOT
BRANCH   1   2
HETATM    2  C   UNK N   1      34.188  16.090   9.110  0.00  0.00     0.120 C 
BRANCH   2   3
HETATM    3  C   UNK N   1      34.892  16.226  10.423  0.00  0.00     0.139 C 
HETATM    4  O   UNK N   1      34.703  15.423  11.325  0.00  0.00    -0.650 OA
BRANCH   3   5
HETATM    5  O   UNK N   1      35.744  17.247  10.610  0.00  0.00    -0.776 OA
HETATM    6  H   UNK N   1      36.452  17.162  11.217  0.00  0.00     0.167 HD
ENDBRANCH   3   5
ENDBRANCH   2   3
ENDBRANCH   1   2
BRANCH   1   7
HETATM    7  C   UNK N   1      34.344  18.253   7.854  0.00  0.00     0.139 C 
HETATM    8  O   UNK N   1      35.028  19.133   8.357  0.00  0.00    -0.650 OA
BRANCH   7   9
HETATM    9  O   UNK N   1      34.367  18.072   6.522  0.00  0.00    -0.776 OA
HETATM   10  H   UNK N   1      34.310  17.206   6.167  0.00  0.00     0.167 HD
ENDBRANCH   7   9
ENDBRANCH   1   7
TORSDOF 5
ENDMDL
MODEL 8
REMARK VINA RESULT:      -3.9      2.315      2.968
REMARK  5 active torsions:
REMARK  status: ('A' for Active; 'I' for Inactive)
REMARK    1  A    between atoms: O_1  and  C_7 
REMARK    2  A    between atoms: O_2  and  C_8 
REMARK    3  A    between atoms: C_5  and  C_6 
REMARK    4  A    between atoms: C_5  and  C_7 
REMARK    5  A    between atoms: C_6  and  C_8 
ROOT
HETATM    1  C   UNK N   1      32.877  16.435   8.677  0.00  0.00     0.120 C 
ENDROOT
BRANCH   1   2
HETATM    2  C   UNK N   1      34.194  17.080   9.089  0.00  0.00     0.120 C 
BRANCH   2   3
HETATM    3  C   UNK N   1      34.628  18.145   8.132  0.00  0.00     0.139 C 
HETATM    4  O   UNK N   1      35.217  19.143   8.526  0.00  0.00    -0.650 OA
BRANCH   3   5
HETATM    5  O   UNK N   1      34.365  18.001   6.823  0.00  0.00    -0.776 OA
HETATM    6  H   UNK N   1      34.506  17.174   6.405  0.00  0.00     0.167 HD
ENDBRANCH   3   5
ENDBRANCH   2   3
ENDBRANCH   1   2
BRANCH   1   7
HETATM    7  C   UNK N   1      32.622  15.153   9.402  0.00  0.00     0.139 C 
HETATM    8  O   UNK N   1      32.277  14.147   8.798  0.00  0.00    -0.650 OA
BRANCH   7   9
HETATM    9  O   UNK N   1      32.775  15.108  10.736  0.00  0.00    -0.776 OA
HETATM   10  H   UNK N   1      32.185  14.600  11.258  0.00  0.00     0.167 HD
ENDBRANCH   7   9
ENDBRANCH   1   7
TORSDOF 5
ENDMDL
MODEL 9
REMARK VINA RESULT:      -3.8     13.211     14.018
REMARK  5 active torsions:
REMARK  status: ('A' for Active; 'I' for Inactive)
REMARK    1  A    between atoms: O_1  and  C_7 
REMARK    2  A    between atoms: O_2  and  C_8 
REMARK    3  A    between atoms: C_5  and  C_6 
REMARK    4  A    between atoms: C_5  and  C_7 
REMARK    5  A    between atoms: C_6  and  C_8 
ROOT
HETATM    1  C   UNK N   1      29.989  22.680  -3.392  0.00  0.00     0.120 C 
ENDROOT
BRANCH   1   2
HETATM    2  C   UNK N   1      30.479  21.246  -3.549  0.00  0.00     0.120 C 
BRANCH   2   3
HETATM    3  C   UNK N   1      31.963  21.133  -3.391  0.00  0.00     0.139 C 
HETATM    4  O   UNK N   1      32.683  20.905  -4.353  0.00  0.00    -0.650 OA
BRANCH   3   5
HETATM    5  O   UNK N   1      32.509  21.286  -2.173  0.00  0.00    -0.776 OA
HETATM    6  H   UNK N   1      33.217  20.735  -1.905  0.00  0.00     0.167 HD
ENDBRANCH   3   5
ENDBRANCH   2   3
ENDBRANCH   1   2
BRANCH   1   7
HETATM    7  C   UNK N   1      29.461  22.952  -2.021  0.00  0.00     0.139 C 
HETATM    8  O   UNK N   1      30.217  23.075  -1.068  0.00  0.00    -0.650 OA
BRANCH   7   9
HETATM    9  O   UNK N   1      28.134  23.063  -1.835  0.00  0.00    -0.776 OA
HETATM   10  H   UNK N   1      27.674  23.804  -2.179  0.00  0.00     0.167 HD
ENDBRANCH   7   9
ENDBRANCH   1   7
TORSDOF 5
ENDMDL
