MODEL 1
REMARK VINA RESULT:      -4.6      0.000      0.000
REMARK  7 active torsions:
REMARK  status: ('A' for Active; 'I' for Inactive)
REMARK    1  A    between atoms: O_1  and  C_9 
REMARK    2  A    between atoms: O_2  and  C_10 
REMARK    3  A    between atoms: C_7  and  N_5 
REMARK    4  A    between atoms: C_6  and  C_7 
REMARK    5  A    between atoms: C_6  and  C_8 
REMARK    6  A    between atoms: C_7  and  C_9 
REMARK    7  A    between atoms: C_8  and  C_10 
ROOT
HETATM    1  C   UNK N   1      34.453  15.719  10.139  0.00  0.00     0.173 C 
ENDROOT
BRANCH   1   2
HETATM    2  N   UNK N   1      33.778  14.875  11.117  0.00  0.00    -0.418 N 
HETATM    3  H   UNK N   1      34.304  14.168  11.630  0.00  0.00     0.150 HD
HETATM    4  H   UNK N   1      32.779  14.992  11.287  0.00  0.00     0.150 HD
ENDBRANCH   1   2
BRANCH   1   5
HETATM    5  C   UNK N   1      33.851  15.965   8.766  0.00  0.00     0.046 C 
BRANCH   5   6
HETATM    6  C   UNK N   1      33.269  17.350   8.535  0.00  0.00     0.112 C 
BRANCH   6   7
HETATM    7  C   UNK N   1      34.225  18.188   7.729  0.00  0.00     0.139 C 
HETATM    8  O   UNK N   1      34.343  18.023   6.523  0.00  0.00    -0.650 OA
BRANCH   7   9
HETATM    9  O   UNK N   1      34.961  19.133   8.341  0.00  0.00    -0.776 OA
HETATM   10  H   UNK N   1      34.542  19.878   8.725  0.00  0.00     0.167 HD
ENDBRANCH   7   9
ENDBRANCH   6   7
ENDBRANCH   5   6
ENDBRANCH   1   5
BRANCH   1  11
HETATM   11  C   UNK N   1      35.761  16.351  10.500  0.00  0.00     0.163 C 
HETATM   12  O   UNK N   1      35.853  17.556  10.634  0.00  0.00    -0.648 OA
BRANCH  11  13
HETATM   13  O   UNK N   1      36.848  15.571  10.676  0.00  0.00    -0.775 OA
HETATM   14  H   UNK N   1      36.843  14.901  11.331  0.00  0.00     0.167 HD
ENDBRANCH  11  13
ENDBRANCH   1  11
TORSDOF 7
ENDMDL
MODEL 2
REMARK VINA RESULT:      -4.6      1.925      4.222
REMARK  7 active torsions:
REMARK  status: ('A' for Active; 'I' for Inactive)
REMARK    1  A    between atoms: O_1  and  C_9 
REMARK    2  A    between atoms: O_2  and  C_10 
REMARK    3  A    between atoms: C_7  and  N_5 
REMARK    4  A    between atoms: C_6  and  C_7 
REMARK    5  A    between atoms: C_6  and  C_8 
REMARK    6  A    between atoms: C_7  and  C_9 
REMARK    7  A    between atoms: C_8  and  C_10 
ROOT
HETATM    1  C   UNK N   1      34.017  17.112   8.810  0.00  0.00     0.173 C 
ENDROOT
BRANCH   1   2
HETATM    2  N   UNK N   1      32.607  17.082   9.179  0.00  0.00    -0.418 N 
HETATM    3  H   UNK N   1      31.901  16.862   8.478  0.00  0.00     0.150 HD
HETATM    4  H   UNK N   1      32.328  17.282  10.140  0.00  0.00     0.150 HD
ENDBRANCH   1   2
BRANCH   1   5
HETATM    5  C   UNK N   1      34.980  16.047   9.305  0.00  0.00     0.046 C 
BRANCH   5   6
HETATM    6  C   UNK N   1      35.265  16.053  10.798  0.00  0.00     0.112 C 
BRANCH   6   7
HETATM    7  C   UNK N   1      34.463  14.980  11.486  0.00  0.00     0.139 C 
HETATM    8  O   UNK N   1      34.972  14.262  12.335  0.00  0.00    -0.650 OA
BRANCH   7   9
HETATM    9  O   UNK N   1      33.169  14.807  11.165  0.00  0.00    -0.776 OA
HETATM   10  H   UNK N   1      32.931  14.204  10.488  0.00  0.00     0.167 HD
ENDBRANCH   7   9
ENDBRANCH   6   7
ENDBRANCH   5   6
ENDBRANCH   1   5
BRANCH   1  11
HETATM   11  C   UNK N   1      34.518  18.212   7.928  0.00  0.00     0.163 C 
HETATM   12  O   UNK N   1      35.078  19.182   8.401  0.00  0.00    -0.648 OA
BRANCH  11  13
HETATM   13  O   UNK N   1      34.343  18.123   6.592  0.00  0.00    -0.775 OA
HETATM   14  H   UNK N   1      34.874  18.636   6.015  0.00  0.00     0.167 HD
ENDBRANCH  11  13
ENDBRANCH   1  11
TORSDOF 7
ENDMDL
MODEL 3
REMARK VINA RESULT:      -4.4     13.005     13.391
REMARK  7 active torsions:
REMARK  status: ('A' for Active; 'I' for Inactive)
REMARK    1  A    between atoms: O_1  and  C_9 
REMARK    2  A    between atoms: O_2  and  C_10 
REMARK    3  A    between atoms: C_7  and  N_5 
REMARK    4  A    between atoms: C_6  and  C_7 
REMARK    5  A    between atoms: C_6  and  C_8 
REMARK    6  A    between atoms: C_7  and  C_9 
REMARK    7  A    between atoms: C_8  and  C_10 
ROOT
HETATM    1  C   UNK N   1      22.520  12.328  11.338  0.00  0.00     0.173 C 
ENDROOT
BRANCH   1   2
HETATM    2  N   UNK N   1      21.227  11.792  11.744  0.00  0.00    -0.418 N 
HETATM    3  H   UNK N   1      21.139  11.283  12.623  0.00  0.00     0.150 HD
HETATM    4  H   UNK N   1      20.410  11.926  11.148  0.00  0.00     0.150 HD
ENDBRANCH   1   2
BRANCH   1   5
HETATM    5  C   UNK N   1      22.683  13.068  10.021  0.00  0.00     0.046 C 
BRANCH   5   6
HETATM    6  C   UNK N   1      21.480  13.044   9.092  0.00  0.00     0.112 C 
BRANCH   6   7
HETATM    7  C   UNK N   1      20.548  14.181   9.419  0.00  0.00     0.139 C 
HETATM    8  O   UNK N   1      19.470  13.974   9.957  0.00  0.00    -0.650 OA
BRANCH   7   9
HETATM    9  O   UNK N   1      20.903  15.442   9.115  0.00  0.00    -0.776 OA
HETATM   10  H   UNK N   1      21.809  15.682   9.101  0.00  0.00     0.167 HD
ENDBRANCH   7   9
ENDBRANCH   6   7
ENDBRANCH   5   6
ENDBRANCH   1   5
BRANCH   1  11
HETATM   11  C   UNK N   1      23.702  12.144  12.237  0.00  0.00     0.163 C 
HETATM   12  O   UNK N   1      23.554  11.965  13.430  0.00  0.00    -0.648 OA
BRANCH  11  13
HETATM   13  O   UNK N   1      24.946  12.179  11.712  0.00  0.00    -0.775 OA
HETATM   14  H   UNK N   1      25.121  11.757  10.895  0.00  0.00     0.167 HD
ENDBRANCH  11  13
ENDBRANCH   1  11
TORSDOF 7
ENDMDL
MODEL 4
REMARK VINA RESULT:      -4.4      1.201      3.711
REMARK  7 active torsions:
REMARK  status: ('A' for Active; 'I' for Inactive)
REMARK    1  A    between atoms: O_1  and  C_9 
REMARK    2  A    between atoms: O_2  and  C_10 
REMARK    3  A    between atoms: C_7  and  N_5 
REMARK    4  A    between atoms: C_6  and  C_7 
REMARK    5  A    between atoms: C_6  and  C_8 
REMARK    6  A    between atoms: C_7  and  C_9 
REMARK    7  A    between atoms: C_8  and  C_10 
ROOT
HETATM    1  C   UNK N   1      33.497  17.107   8.497  0.00  0.00     0.173 C 
ENDROOT
BRANCH   1   2
HETATM    2  N   UNK N   1      32.144  17.444   8.921  0.00  0.00    -0.418 N 
HETATM    3  H   UNK N   1      31.460  16.705   9.080  0.00  0.00     0.150 HD
HETATM    4  H   UNK N   1      31.882  18.420   9.059  0.00  0.00     0.150 HD
ENDBRANCH   1   2
BRANCH   1   5
HETATM    5  C   UNK N   1      34.117  15.765   8.848  0.00  0.00     0.046 C 
BRANCH   5   6
HETATM    6  C   UNK N   1      34.533  15.586  10.299  0.00  0.00     0.112 C 
BRANCH   6   7
HETATM    7  C   UNK N   1      35.833  16.298  10.560  0.00  0.00     0.139 C 
HETATM    8  O   UNK N   1      35.871  17.515  10.679  0.00  0.00    -0.650 OA
BRANCH   7   9
HETATM    9  O   UNK N   1      36.971  15.589  10.666  0.00  0.00    -0.776 OA
HETATM   10  H   UNK N   1      37.046  14.918  11.315  0.00  0.00     0.167 HD
ENDBRANCH   7   9
ENDBRANCH   6   7
ENDBRANCH   5   6
ENDBRANCH   1   5
BRANCH   1  11
HETATM   11  C   UNK N   1      34.283  18.102   7.702  0.00  0.00     0.163 C 
HETATM   12  O   UNK N   1      34.315  18.043   6.488  0.00  0.00    -0.648 OA
BRANCH  11  13
HETATM   13  O   UNK N   1      34.963  19.075   8.345  0.00  0.00    -0.775 OA
HETATM   14  H   UNK N   1      35.694  18.855   8.888  0.00  0.00     0.167 HD
ENDBRANCH  11  13
ENDBRANCH   1  11
TORSDOF 7
ENDMDL
MODEL 5
REMARK VINA RESULT:      -4.3      1.675      2.014
REMARK  7 active torsions:
REMARK  status: ('A' for Active; 'I' for Inactive)
REMARK    1  A    between atoms: O_1  and  C_9 
REMARK    2  A    between atoms: O_2  and  C_10 
REMARK    3  A    between atoms: C_7  and  N_5 
REMARK    4  A    between atoms: C_6  and  C_7 
REMARK    5  A    between atoms: C_6  and  C_8 
REMARK    6  A    between atoms: C_7  and  C_9 
REMARK    7  A    between atoms: C_8  and  C_10 
ROOT
HETATM    1  C   UNK N   1      34.442  15.778  10.180  0.00  0.00     0.173 C 
ENDROOT
BRANCH   1   2
HETATM    2  N   UNK N   1      35.079  16.847  10.938  0.00  0.00    -0.418 N 
HETATM    3  H   UNK N   1      34.560  17.334  11.668  0.00  0.00     0.150 HD
HETATM    4  H   UNK N   1      36.045  17.108  10.739  0.00  0.00     0.150 HD
ENDBRANCH   1   2
BRANCH   1   5
HETATM    5  C   UNK N   1      33.739  16.062   8.863  0.00  0.00     0.046 C 
BRANCH   5   6
HETATM    6  C   UNK N   1      33.318  17.505   8.633  0.00  0.00     0.112 C 
BRANCH   6   7
HETATM    7  C   UNK N   1      34.378  18.239   7.855  0.00  0.00     0.139 C 
HETATM    8  O   UNK N   1      34.494  18.080   6.648  0.00  0.00    -0.650 OA
BRANCH   7   9
HETATM    9  O   UNK N   1      35.209  19.082   8.493  0.00  0.00    -0.776 OA
HETATM   10  H   UNK N   1      35.712  18.779   9.224  0.00  0.00     0.167 HD
ENDBRANCH   7   9
ENDBRANCH   6   7
ENDBRANCH   5   6
ENDBRANCH   1   5
BRANCH   1  11
HETATM   11  C   UNK N   1      34.483  14.380  10.712  0.00  0.00     0.163 C 
HETATM   12  O   UNK N   1      34.696  13.439   9.972  0.00  0.00    -0.648 OA
BRANCH  11  13
HETATM   13  O   UNK N   1      34.282  14.165  12.030  0.00  0.00    -0.775 OA
HETATM   14  H   UNK N   1      33.415  14.198  12.382  0.00  0.00     0.167 HD
ENDBRANCH  11  13
ENDBRANCH   1  11
TORSDOF 7
ENDMDL
MODEL 6
REMARK VINA RESULT:      -4.3      3.075      4.019
REMARK  7 active torsions:
REMARK  status: ('A' for Active; 'I' for Inactive)
REMARK    1  A    between atoms: O_1  and  C_9 
REMARK    2  A    between atoms: O_2  and  C_10 
REMARK    3  A    between atoms: C_7  and  N_5 
REMARK    4  A    between atoms: C_6  and  C_7 
REMARK    5  A    between atoms: C_6  and  C_8 
REMARK    6  A    between atoms: C_7  and  C_9 
REMARK    7  A    between atoms: C_8  and  C_10 
ROOT
HETATM    1  C   UNK N   1      33.607  17.425   8.845  0.00  0.00     0.173 C 
ENDROOT
BRANCH   1   2
HETATM    2  N   UNK N   1      34.194  16.881  10.063  0.00  0.00    -0.418 N 
HETATM    3  H   UNK N   1      34.232  17.450  10.909  0.00  0.00     0.150 HD
HETATM    4  H   UNK N   1      34.567  15.932  10.069  0.00  0.00     0.150 HD
ENDBRANCH   1   2
BRANCH   1   5
HETATM    5  C   UNK N   1      32.156  17.154   8.486  0.00  0.00     0.046 C 
BRANCH   5   6
HETATM    6  C   UNK N   1      31.209  18.337   8.611  0.00  0.00     0.112 C 
BRANCH   6   7
HETATM    7  C   UNK N   1      29.974  17.936   9.373  0.00  0.00     0.139 C 
HETATM    8  O   UNK N   1      28.948  18.598   9.300  0.00  0.00    -0.650 OA
BRANCH   7   9
HETATM    9  O   UNK N   1      29.995  16.834  10.144  0.00  0.00    -0.776 OA
HETATM   10  H   UNK N   1      29.333  16.179  10.043  0.00  0.00     0.167 HD
ENDBRANCH   7   9
ENDBRANCH   6   7
ENDBRANCH   5   6
ENDBRANCH   1   5
BRANCH   1  11
HETATM   11  C   UNK N   1      34.452  18.263   7.938  0.00  0.00     0.163 C 
HETATM   12  O   UNK N   1      34.412  18.109   6.732  0.00  0.00    -0.648 OA
BRANCH  11  13
HETATM   13  O   UNK N   1      35.266  19.200   8.468  0.00  0.00    -0.775 OA
HETATM   14  H   UNK N   1      36.117  19.342   8.103  0.00  0.00     0.167 HD
ENDBRANCH  11  13
ENDBRANCH   1  11
TORSDOF 7
ENDMDL
MODEL 7
REMARK VINA RESULT:      -4.3     15.242     16.294
REMARK  7 active torsions:
REMARK  status: ('A' for Active; 'I' for Inactive)
REMARK    1  A    between atoms: O_1  and  C_9 
REMARK    2  A    between atoms: O_2  and  C_10 
REMARK    3  A    between atoms: C_7  and  N_5 
REMARK    4  A    between atoms: C_6  and  C_7 
REMARK    5  A    between atoms: C_6  and  C_8 
REMARK    6  A    between atoms: C_7  and  C_9 
REMARK    7  A    between atoms: C_8  and  C_10 
ROOT
HETATM    1  C   UNK N   1      21.157  19.337   2.877  0.00  0.00     0.173 C 
ENDROOT
BRANCH   1   2
HETATM    2  N   UNK N   1      22.059  18.987   3.966  0.00  0.00    -0.418 N 
HETATM    3  H   UNK N   1      22.829  19.610   4.211  0.00  0.00     0.150 HD
HETATM    4  H   UNK N   1      21.922  18.119   4.483  0.00  0.00     0.150 HD
ENDBRANCH   1   2
BRANCH   1   5
HETATM    5  C   UNK N   1      19.942  18.481   2.559  0.00  0.00     0.046 C 
BRANCH   5   6
HETATM    6  C   UNK N   1      20.233  17.095   2.005  0.00  0.00     0.112 C 
BRANCH   6   7
HETATM    7  C   UNK N   1      19.925  17.048   0.532  0.00  0.00     0.139 C 
HETATM    8  O   UNK N   1      19.271  16.131   0.056  0.00  0.00    -0.650 OA
BRANCH   7   9
HETATM    9  O   UNK N   1      20.374  18.027  -0.274  0.00  0.00    -0.776 OA
HETATM   10  H   UNK N   1      19.779  18.476  -0.841  0.00  0.00     0.167 HD
ENDBRANCH   7   9
ENDBRANCH   6   7
ENDBRANCH   5   6
ENDBRANCH   1   5
BRANCH   1  11
HETATM   11  C   UNK N   1      21.435  20.560   2.061  0.00  0.00     0.163 C 
HETATM   12  O   UNK N   1      21.382  20.523   0.847  0.00  0.00    -0.648 OA
BRANCH  11  13
HETATM   13  O   UNK N   1      21.749  21.716   2.684  0.00  0.00    -0.775 OA
HETATM   14  H   UNK N   1      21.881  22.496   2.184  0.00  0.00     0.167 HD
ENDBRANCH  11  13
ENDBRANCH   1  11
TORSDOF 7
ENDMDL
MODEL 8
REMARK VINA RESULT:      -4.2      2.734      5.169
REMARK  7 active torsions:
REMARK  status: ('A' for Active; 'I' for Inactive)
REMARK    1  A    between atoms: O_1  and  C_9 
REMARK    2  A    between atoms: O_2  and  C_10 
REMARK    3  A    between atoms: C_7  and  N_5 
REMARK    4  A    between atoms: C_6  and  C_7 
REMARK    5  A    between atoms: C_6  and  C_8 
REMARK    6  A    between atoms: C_7  and  C_9 
REMARK    7  A    between atoms: C_8  and  C_10 
ROOT
HETATM    1  C   UNK N   1      34.744  15.006  11.062  0.00  0.00     0.173 C 
ENDROOT
BRANCH   1   2
HETATM    2  N   UNK N   1      33.322  15.107  10.758  0.00  0.00    -0.418 N 
HETATM    3  H   UNK N   1      32.924  16.002  10.475  0.00  0.00     0.150 HD
HETATM    4  H   UNK N   1      32.726  14.283  10.829  0.00  0.00     0.150 HD
ENDBRANCH   1   2
BRANCH   1   5
HETATM    5  C   UNK N   1      35.345  13.709  11.579  0.00  0.00     0.046 C 
BRANCH   5   6
HETATM    6  C   UNK N   1      35.126  13.419  13.055  0.00  0.00     0.112 C 
BRANCH   6   7
HETATM    7  C   UNK N   1      36.377  13.721  13.836  0.00  0.00     0.139 C 
HETATM    8  O   UNK N   1      36.983  12.833  14.419  0.00  0.00    -0.650 OA
BRANCH   7   9
HETATM    9  O   UNK N   1      36.837  14.983  13.895  0.00  0.00    -0.776 OA
HETATM   10  H   UNK N   1      36.243  15.702  13.809  0.00  0.00     0.167 HD
ENDBRANCH   7   9
ENDBRANCH   6   7
ENDBRANCH   5   6
ENDBRANCH   1   5
BRANCH   1  11
HETATM   11  C   UNK N   1      35.622  16.200  10.858  0.00  0.00     0.163 C 
HETATM   12  O   UNK N   1      35.143  17.284  10.586  0.00  0.00    -0.648 OA
BRANCH  11  13
HETATM   13  O   UNK N   1      36.960  16.068  10.979  0.00  0.00    -0.775 OA
HETATM   14  H   UNK N   1      37.503  16.830  11.023  0.00  0.00     0.167 HD
ENDBRANCH  11  13
ENDBRANCH   1  11
TORSDOF 7
ENDMDL
MODEL 9
REMARK VINA RESULT:      -4.2      2.121      3.266
REMARK  7 active torsions:
REMARK  status: ('A' for Active; 'I' for Inactive)
REMARK    1  A    between atoms: O_1  and  C_9 
REMARK    2  A    between atoms: O_2  and  C_10 
REMARK    3  A    between atoms: C_7  and  N_5 
REMARK    4  A    between atoms: C_6  and  C_7 
REMARK    5  A    between atoms: C_6  and  C_8 
REMARK    6  A    between atoms: C_7  and  C_9 
REMARK    7  A    between atoms: C_8  and  C_10 
ROOT
HETATM    1  C   UNK N   1      34.501  17.069   9.091  0.00  0.00     0.173 C 
ENDROOT
BRANCH   1   2
HETATM    2  N   UNK N   1      34.951  17.172  10.473  0.00  0.00    -0.418 N 
HETATM    3  H   UNK N   1      34.285  17.052  11.236  0.00  0.00     0.150 HD
HETATM    4  H   UNK N   1      35.932  17.364  10.677  0.00  0.00     0.150 HD
ENDBRANCH   1   2
BRANCH   1   5
HETATM    5  C   UNK N   1      33.811  15.814   8.582  0.00  0.00     0.046 C 
BRANCH   5   6
HETATM    6  C   UNK N   1      32.301  15.772   8.750  0.00  0.00     0.112 C 
BRANCH   6   7
HETATM    7  C   UNK N   1      31.623  16.057   7.437  0.00  0.00     0.139 C 
HETATM    8  O   UNK N   1      31.220  15.146   6.727  0.00  0.00    -0.650 OA
BRANCH   7   9
HETATM    9  O   UNK N   1      31.456  17.330   7.035  0.00  0.00    -0.776 OA
HETATM   10  H   UNK N   1      31.364  18.013   7.670  0.00  0.00     0.167 HD
ENDBRANCH   7   9
ENDBRANCH   6   7
ENDBRANCH   5   6
ENDBRANCH   1   5
BRANCH   1  11
HETATM   11  C   UNK N   1      34.726  18.220   8.162  0.00  0.00     0.163 C 
HETATM   12  O   UNK N   1      34.355  18.167   7.005  0.00  0.00    -0.648 OA
BRANCH  11  13
HETATM   13  O   UNK N   1      35.348  19.328   8.617  0.00  0.00    -0.775 OA
HETATM   14  H   UNK N   1      35.531  20.036   8.032  0.00  0.00     0.167 HD
ENDBRANCH  11  13
ENDBRANCH   1  11
TORSDOF 7
ENDMDL
