MODEL 1
REMARK VINA RESULT:      -6.3      0.000      0.000
REMARK  13 active torsions:
REMARK  status: ('A' for Active; 'I' for Inactive)
REMARK    1  A    between atoms: S_1  and  C_16 
REMARK    2  A    between atoms: O_4  and  C_18 
REMARK    3  A    between atoms: O_6  and  C_20 
REMARK    4  A    between atoms: C_13  and  N_8 
REMARK       I    between atoms: N_8  and  C_15 
REMARK    5  A    between atoms: C_14  and  N_9 
REMARK       I    between atoms: N_10  and  C_17 
REMARK    6  A    between atoms: N_10  and  C_19 
REMARK    7  A    between atoms: C_11  and  C_12 
REMARK    8  A    between atoms: C_11  and  C_14 
REMARK    9  A    between atoms: C_12  and  C_15 
REMARK   10  A    between atoms: C_13  and  C_16 
REMARK   11  A    between atoms: C_13  and  C_17 
REMARK   12  A    between atoms: C_14  and  C_18 
REMARK   13  A    between atoms: C_19  and  C_20 
ROOT
HETATM    1  O   UNK N   1      19.596  14.267   9.743  0.00  0.00    -0.274 OA
HETATM    2  N   UNK N   1      20.891  15.606   8.492  0.00  0.00    -0.347 N 
HETATM    3  C   UNK N   1      20.710  14.566   9.341  0.00  0.00     0.218 C 
HETATM    4  H   UNK N   1      21.813  15.857   8.256  0.00  0.00     0.163 HD
ENDROOT
BRANCH   2   5
HETATM    5  C   UNK N   1      19.805  16.373   7.911  0.00  0.00     0.185 C 
BRANCH   5   6
HETATM    6  C   UNK N   1      19.735  16.052   6.423  0.00  0.00     0.105 C 
BRANCH   6   7
HETATM    7  S   UNK N   1      21.277  15.254   5.890  0.00  0.00    -0.180 SA
HETATM    8  H   UNK N   1      21.501  14.510   4.773  0.00  0.00     0.101 HD
ENDBRANCH   6   7
ENDBRANCH   5   6
BRANCH   5   9
HETATM    9  C   UNK N   1      20.057  17.858   8.130  0.00  0.00     0.241 C 
HETATM   10  O   UNK N   1      20.887  18.432   7.445  0.00  0.00    -0.271 OA
HETATM   11  N   UNK N   1      19.386  18.572   9.073  0.00  0.00    -0.349 N 
HETATM   12  H   UNK N   1      19.612  19.524   9.183  0.00  0.00     0.163 HD
BRANCH  11  13
HETATM   13  C   UNK N   1      18.362  18.014   9.922  0.00  0.00     0.232 C 
BRANCH  13  14
HETATM   14  C   UNK N   1      18.053  18.936  11.062  0.00  0.00     0.158 C 
HETATM   15  O   UNK N   1      16.938  18.932  11.554  0.00  0.00    -0.649 OA
BRANCH  14  16
HETATM   16  O   UNK N   1      18.991  19.778  11.541  0.00  0.00    -0.775 OA
HETATM   17  H   UNK N   1      18.927  20.707  11.446  0.00  0.00     0.167 HD
ENDBRANCH  14  16
ENDBRANCH  13  14
ENDBRANCH  11  13
ENDBRANCH   5   9
ENDBRANCH   2   5
BRANCH   3  18
HETATM   18  C   UNK N   1      21.891  13.752   9.754  0.00  0.00     0.105 C 
BRANCH  18  19
HETATM   19  C   UNK N   1      21.460  12.535  10.549  0.00  0.00     0.044 C 
BRANCH  19  20
HETATM   20  C   UNK N   1      22.632  11.575  10.716  0.00  0.00     0.173 C 
BRANCH  20  21
HETATM   21  N   UNK N   1      23.412  11.560   9.491  0.00  0.00    -0.418 N 
HETATM   22  H   UNK N   1      24.153  12.186   9.181  0.00  0.00     0.150 HD
HETATM   23  H   UNK N   1      23.182  10.806   8.842  0.00  0.00     0.150 HD
ENDBRANCH  20  21
BRANCH  20  24
HETATM   24  C   UNK N   1      23.523  11.946  11.874  0.00  0.00     0.163 C 
HETATM   25  O   UNK N   1      23.097  11.945  13.020  0.00  0.00    -0.648 OA
BRANCH  24  26
HETATM   26  O   UNK N   1      24.805  12.287  11.645  0.00  0.00    -0.775 OA
HETATM   27  H   UNK N   1      25.520  11.864  12.078  0.00  0.00     0.167 HD
ENDBRANCH  24  26
ENDBRANCH  20  24
ENDBRANCH  19  20
ENDBRANCH  18  19
ENDBRANCH   3  18
TORSDOF 13
ENDMDL
MODEL 2
REMARK VINA RESULT:      -5.7      3.994      7.601
REMARK  13 active torsions:
REMARK  status: ('A' for Active; 'I' for Inactive)
REMARK    1  A    between atoms: S_1  and  C_16 
REMARK    2  A    between atoms: O_4  and  C_18 
REMARK    3  A    between atoms: O_6  and  C_20 
REMARK    4  A    between atoms: C_13  and  N_8 
REMARK       I    between atoms: N_8  and  C_15 
REMARK    5  A    between atoms: C_14  and  N_9 
REMARK       I    between atoms: N_10  and  C_17 
REMARK    6  A    between atoms: N_10  and  C_19 
REMARK    7  A    between atoms: C_11  and  C_12 
REMARK    8  A    between atoms: C_11  and  C_14 
REMARK    9  A    between atoms: C_12  and  C_15 
REMARK   10  A    between atoms: C_13  and  C_16 
REMARK   11  A    between atoms: C_13  and  C_17 
REMARK   12  A    between atoms: C_14  and  C_18 
REMARK   13  A    between atoms: C_19  and  C_20 
ROOT
HETATM    1  O   UNK N   1      21.460  18.950   6.381  0.00  0.00    -0.274 OA
HETATM    2  N   UNK N   1      21.410  16.773   5.840  0.00  0.00    -0.347 N 
HETATM    3  C   UNK N   1      21.627  18.077   5.543  0.00  0.00     0.218 C 
HETATM    4  H   UNK N   1      21.484  16.114   5.112  0.00  0.00     0.163 HD
ENDROOT
BRANCH   2   5
HETATM    5  C   UNK N   1      21.073  16.292   7.166  0.00  0.00     0.185 C 
BRANCH   5   6
HETATM    6  C   UNK N   1      21.678  14.903   7.340  0.00  0.00     0.105 C 
BRANCH   6   7
HETATM    7  S   UNK N   1      21.382  14.309   9.031  0.00  0.00    -0.180 SA
HETATM    8  H   UNK N   1      21.225  15.039  10.168  0.00  0.00     0.101 HD
ENDBRANCH   6   7
ENDBRANCH   5   6
BRANCH   5   9
HETATM    9  C   UNK N   1      19.559  16.242   7.320  0.00  0.00     0.241 C 
HETATM   10  O   UNK N   1      18.911  15.487   6.616  0.00  0.00    -0.271 OA
HETATM   11  N   UNK N   1      18.901  17.019   8.221  0.00  0.00    -0.349 N 
HETATM   12  H   UNK N   1      17.918  16.958   8.255  0.00  0.00     0.163 HD
BRANCH  11  13
HETATM   13  C   UNK N   1      19.558  17.926   9.129  0.00  0.00     0.232 C 
BRANCH  13  14
HETATM   14  C   UNK N   1      18.571  18.549  10.069  0.00  0.00     0.158 C 
HETATM   15  O   UNK N   1      17.510  17.989  10.286  0.00  0.00    -0.649 OA
BRANCH  14  16
HETATM   16  O   UNK N   1      18.840  19.726  10.669  0.00  0.00    -0.775 OA
HETATM   17  H   UNK N   1      19.272  19.779  11.498  0.00  0.00     0.167 HD
ENDBRANCH  14  16
ENDBRANCH  13  14
ENDBRANCH  11  13
ENDBRANCH   5   9
ENDBRANCH   2   5
BRANCH   3  18
HETATM   18  C   UNK N   1      22.119  18.439   4.182  0.00  0.00     0.105 C 
BRANCH  18  19
HETATM   19  C   UNK N   1      21.344  19.615   3.619  0.00  0.00     0.044 C 
BRANCH  19  20
HETATM   20  C   UNK N   1      20.740  19.249   2.269  0.00  0.00     0.173 C 
BRANCH  20  21
HETATM   21  N   UNK N   1      19.327  18.962   2.443  0.00  0.00    -0.418 N 
HETATM   22  H   UNK N   1      18.582  19.551   2.814  0.00  0.00     0.150 HD
HETATM   23  H   UNK N   1      19.036  18.029   2.149  0.00  0.00     0.150 HD
ENDBRANCH  20  21
BRANCH  20  24
HETATM   24  C   UNK N   1      20.909  20.341   1.244  0.00  0.00     0.163 C 
HETATM   25  O   UNK N   1      21.277  21.459   1.572  0.00  0.00    -0.648 OA
BRANCH  24  26
HETATM   26  O   UNK N   1      20.647  20.084  -0.051  0.00  0.00    -0.775 OA
HETATM   27  H   UNK N   1      19.791  20.185  -0.418  0.00  0.00     0.167 HD
ENDBRANCH  24  26
ENDBRANCH  20  24
ENDBRANCH  19  20
ENDBRANCH  18  19
ENDBRANCH   3  18
TORSDOF 13
ENDMDL
MODEL 3
REMARK VINA RESULT:      -5.5      6.949      8.848
REMARK  13 active torsions:
REMARK  status: ('A' for Active; 'I' for Inactive)
REMARK    1  A    between atoms: S_1  and  C_16 
REMARK    2  A    between atoms: O_4  and  C_18 
REMARK    3  A    between atoms: O_6  and  C_20 
REMARK    4  A    between atoms: C_13  and  N_8 
REMARK       I    between atoms: N_8  and  C_15 
REMARK    5  A    between atoms: C_14  and  N_9 
REMARK       I    between atoms: N_10  and  C_17 
REMARK    6  A    between atoms: N_10  and  C_19 
REMARK    7  A    between atoms: C_11  and  C_12 
REMARK    8  A    between atoms: C_11  and  C_14 
REMARK    9  A    between atoms: C_12  and  C_15 
REMARK   10  A    between atoms: C_13  and  C_16 
REMARK   11  A    between atoms: C_13  and  C_17 
REMARK   12  A    between atoms: C_14  and  C_18 
REMARK   13  A    between atoms: C_19  and  C_20 
ROOT
HETATM    1  O   UNK N   1      21.631  17.936   4.926  0.00  0.00    -0.274 OA
HETATM    2  N   UNK N   1      21.884  16.580   3.156  0.00  0.00    -0.347 N 
HETATM    3  C   UNK N   1      22.362  17.238   4.240  0.00  0.00     0.218 C 
HETATM    4  H   UNK N   1      22.525  16.092   2.591  0.00  0.00     0.163 HD
ENDROOT
BRANCH   2   5
HETATM    5  C   UNK N   1      20.484  16.555   2.779  0.00  0.00     0.185 C 
BRANCH   5   6
HETATM    6  C   UNK N   1      19.952  15.144   3.006  0.00  0.00     0.105 C 
BRANCH   6   7
HETATM    7  S   UNK N   1      19.176  15.035   4.645  0.00  0.00    -0.180 SA
HETATM    8  H   UNK N   1      19.778  14.996   5.864  0.00  0.00     0.101 HD
ENDBRANCH   6   7
ENDBRANCH   5   6
BRANCH   5   9
HETATM    9  C   UNK N   1      20.343  16.954   1.316  0.00  0.00     0.241 C 
HETATM   10  O   UNK N   1      20.344  16.088   0.458  0.00  0.00    -0.271 OA
HETATM   11  N   UNK N   1      20.220  18.252   0.932  0.00  0.00    -0.349 N 
HETATM   12  H   UNK N   1      20.158  18.447  -0.032  0.00  0.00     0.163 HD
BRANCH  11  13
HETATM   13  C   UNK N   1      20.174  19.360   1.854  0.00  0.00     0.232 C 
BRANCH  13  14
HETATM   14  C   UNK N   1      20.906  20.545   1.301  0.00  0.00     0.158 C 
HETATM   15  O   UNK N   1      21.588  21.231   2.043  0.00  0.00    -0.649 OA
BRANCH  14  16
HETATM   16  O   UNK N   1      20.810  20.865  -0.005  0.00  0.00    -0.775 OA
HETATM   17  H   UNK N   1      21.145  21.670  -0.350  0.00  0.00     0.167 HD
ENDBRANCH  14  16
ENDBRANCH  13  14
ENDBRANCH  11  13
ENDBRANCH   5   9
ENDBRANCH   2   5
BRANCH   3  18
HETATM   18  C   UNK N   1      23.795  17.068   4.620  0.00  0.00     0.105 C 
BRANCH  18  19
HETATM   19  C   UNK N   1      24.696  17.891   3.720  0.00  0.00     0.044 C 
BRANCH  19  20
HETATM   20  C   UNK N   1      24.667  19.354   4.145  0.00  0.00     0.173 C 
BRANCH  20  21
HETATM   21  N   UNK N   1      25.379  19.497   5.403  0.00  0.00    -0.418 N 
HETATM   22  H   UNK N   1      26.203  20.053   5.628  0.00  0.00     0.150 HD
HETATM   23  H   UNK N   1      24.994  18.958   6.180  0.00  0.00     0.150 HD
ENDBRANCH  20  21
BRANCH  20  24
HETATM   24  C   UNK N   1      25.279  20.268   3.115  0.00  0.00     0.163 C 
HETATM   25  O   UNK N   1      26.485  20.470   3.090  0.00  0.00    -0.648 OA
BRANCH  24  26
HETATM   26  O   UNK N   1      24.488  20.876   2.211  0.00  0.00    -0.775 OA
HETATM   27  H   UNK N   1      24.364  21.805   2.199  0.00  0.00     0.167 HD
ENDBRANCH  24  26
ENDBRANCH  20  24
ENDBRANCH  19  20
ENDBRANCH  18  19
ENDBRANCH   3  18
TORSDOF 13
ENDMDL
MODEL 4
REMARK VINA RESULT:      -5.5      6.938      8.801
REMARK  13 active torsions:
REMARK  status: ('A' for Active; 'I' for Inactive)
REMARK    1  A    between atoms: S_1  and  C_16 
REMARK    2  A    between atoms: O_4  and  C_18 
REMARK    3  A    between atoms: O_6  and  C_20 
REMARK    4  A    between atoms: C_13  and  N_8 
REMARK       I    between atoms: N_8  and  C_15 
REMARK    5  A    between atoms: C_14  and  N_9 
REMARK       I    between atoms: N_10  and  C_17 
REMARK    6  A    between atoms: N_10  and  C_19 
REMARK    7  A    between atoms: C_11  and  C_12 
REMARK    8  A    between atoms: C_11  and  C_14 
REMARK    9  A    between atoms: C_12  and  C_15 
REMARK   10  A    between atoms: C_13  and  C_16 
REMARK   11  A    between atoms: C_13  and  C_17 
REMARK   12  A    between atoms: C_14  and  C_18 
REMARK   13  A    between atoms: C_19  and  C_20 
ROOT
HETATM    1  O   UNK N   1      23.919  20.372   3.599  0.00  0.00    -0.274 OA
HETATM    2  N   UNK N   1      23.157  18.298   3.988  0.00  0.00    -0.347 N 
HETATM    3  C   UNK N   1      24.149  19.178   3.708  0.00  0.00     0.218 C 
HETATM    4  H   UNK N   1      23.376  17.338   3.991  0.00  0.00     0.163 HD
ENDROOT
BRANCH   2   5
HETATM    5  C   UNK N   1      21.790  18.687   4.280  0.00  0.00     0.185 C 
BRANCH   5   6
HETATM    6  C   UNK N   1      21.359  17.992   5.567  0.00  0.00     0.105 C 
BRANCH   6   7
HETATM    7  S   UNK N   1      22.522  16.654   5.964  0.00  0.00    -0.180 SA
HETATM    8  H   UNK N   1      22.541  15.381   5.484  0.00  0.00     0.101 HD
ENDBRANCH   6   7
ENDBRANCH   5   6
BRANCH   5   9
HETATM    9  C   UNK N   1      20.887  18.286   3.123  0.00  0.00     0.241 C 
HETATM   10  O   UNK N   1      20.590  17.113   2.975  0.00  0.00    -0.271 OA
HETATM   11  N   UNK N   1      20.400  19.197   2.240  0.00  0.00    -0.349 N 
HETATM   12  H   UNK N   1      19.840  18.871   1.497  0.00  0.00     0.163 HD
BRANCH  11  13
HETATM   13  C   UNK N   1      20.654  20.614   2.327  0.00  0.00     0.232 C 
BRANCH  13  14
HETATM   14  C   UNK N   1      20.757  21.223   0.962  0.00  0.00     0.158 C 
HETATM   15  O   UNK N   1      21.155  20.547   0.030  0.00  0.00    -0.649 OA
BRANCH  14  16
HETATM   16  O   UNK N   1      20.426  22.515   0.757  0.00  0.00    -0.775 OA
HETATM   17  H   UNK N   1      19.611  22.875   1.045  0.00  0.00     0.167 HD
ENDBRANCH  14  16
ENDBRANCH  13  14
ENDBRANCH  11  13
ENDBRANCH   5   9
ENDBRANCH   2   5
BRANCH   3  18
HETATM   18  C   UNK N   1      25.548  18.676   3.575  0.00  0.00     0.105 C 
BRANCH  18  19
HETATM   19  C   UNK N   1      26.161  18.411   4.936  0.00  0.00     0.044 C 
BRANCH  19  20
HETATM   20  C   UNK N   1      27.362  19.323   5.158  0.00  0.00     0.173 C 
BRANCH  20  21
HETATM   21  N   UNK N   1      27.810  19.837   3.876  0.00  0.00    -0.418 N 
HETATM   22  H   UNK N   1      27.330  19.859   2.977  0.00  0.00     0.150 HD
HETATM   23  H   UNK N   1      28.749  20.238   3.875  0.00  0.00     0.150 HD
ENDBRANCH  20  21
BRANCH  20  24
HETATM   24  C   UNK N   1      27.053  20.474   6.080  0.00  0.00     0.163 C 
HETATM   25  O   UNK N   1      27.810  21.429   6.169  0.00  0.00    -0.648 OA
BRANCH  24  26
HETATM   26  O   UNK N   1      25.929  20.448   6.822  0.00  0.00    -0.775 OA
HETATM   27  H   UNK N   1      25.862  20.895   7.643  0.00  0.00     0.167 HD
ENDBRANCH  24  26
ENDBRANCH  20  24
ENDBRANCH  19  20
ENDBRANCH  18  19
ENDBRANCH   3  18
TORSDOF 13
ENDMDL
MODEL 5
REMARK VINA RESULT:      -5.3      9.084     10.083
REMARK  13 active torsions:
REMARK  status: ('A' for Active; 'I' for Inactive)
REMARK    1  A    between atoms: S_1  and  C_16 
REMARK    2  A    between atoms: O_4  and  C_18 
REMARK    3  A    between atoms: O_6  and  C_20 
REMARK    4  A    between atoms: C_13  and  N_8 
REMARK       I    between atoms: N_8  and  C_15 
REMARK    5  A    between atoms: C_14  and  N_9 
REMARK       I    between atoms: N_10  and  C_17 
REMARK    6  A    between atoms: N_10  and  C_19 
REMARK    7  A    between atoms: C_11  and  C_12 
REMARK    8  A    between atoms: C_11  and  C_14 
REMARK    9  A    between atoms: C_12  and  C_15 
REMARK   10  A    between atoms: C_13  and  C_16 
REMARK   11  A    between atoms: C_13  and  C_17 
REMARK   12  A    between atoms: C_14  and  C_18 
REMARK   13  A    between atoms: C_19  and  C_20 
ROOT
HETATM    1  O   UNK N   1      28.247  18.707   8.856  0.00  0.00    -0.274 OA
HETATM    2  N   UNK N   1      29.264  17.543   7.230  0.00  0.00    -0.347 N 
HETATM    3  C   UNK N   1      29.238  18.114   8.459  0.00  0.00     0.218 C 
HETATM    4  H   UNK N   1      30.110  17.142   6.923  0.00  0.00     0.163 HD
ENDROOT
BRANCH   2   5
HETATM    5  C   UNK N   1      28.121  17.489   6.340  0.00  0.00     0.185 C 
BRANCH   5   6
HETATM    6  C   UNK N   1      27.893  16.035   5.940  0.00  0.00     0.105 C 
BRANCH   6   7
HETATM    7  S   UNK N   1      26.247  15.851   5.192  0.00  0.00    -0.180 SA
HETATM    8  H   UNK N   1      25.247  15.002   5.550  0.00  0.00     0.101 HD
ENDBRANCH   6   7
ENDBRANCH   5   6
BRANCH   5   9
HETATM    9  C   UNK N   1      28.389  18.349   5.113  0.00  0.00     0.241 C 
HETATM   10  O   UNK N   1      29.356  18.105   4.411  0.00  0.00    -0.271 OA
HETATM   11  N   UNK N   1      27.583  19.389   4.771  0.00  0.00    -0.349 N 
HETATM   12  H   UNK N   1      27.824  19.923   3.979  0.00  0.00     0.163 HD
BRANCH  11  13
HETATM   13  C   UNK N   1      26.394  19.755   5.502  0.00  0.00     0.232 C 
BRANCH  13  14
HETATM   14  C   UNK N   1      26.699  20.806   6.525  0.00  0.00     0.158 C 
HETATM   15  O   UNK N   1      27.289  21.819   6.191  0.00  0.00    -0.649 OA
BRANCH  14  16
HETATM   16  O   UNK N   1      26.338  20.638   7.814  0.00  0.00    -0.775 OA
HETATM   17  H   UNK N   1      25.906  19.864   8.116  0.00  0.00     0.167 HD
ENDBRANCH  14  16
ENDBRANCH  13  14
ENDBRANCH  11  13
ENDBRANCH   5   9
ENDBRANCH   2   5
BRANCH   3  18
HETATM   18  C   UNK N   1      30.427  17.975   9.349  0.00  0.00     0.105 C 
BRANCH  18  19
HETATM   19  C   UNK N   1      31.469  17.067   8.725  0.00  0.00     0.044 C 
BRANCH  19  20
HETATM   20  C   UNK N   1      32.700  17.874   8.329  0.00  0.00     0.173 C 
BRANCH  20  21
HETATM   21  N   UNK N   1      33.820  17.470   9.160  0.00  0.00    -0.418 N 
HETATM   22  H   UNK N   1      34.607  16.859   8.944  0.00  0.00     0.150 HD
HETATM   23  H   UNK N   1      33.819  17.857  10.105  0.00  0.00     0.150 HD
ENDBRANCH  20  21
BRANCH  20  24
HETATM   24  C   UNK N   1      33.063  17.699   6.877  0.00  0.00     0.163 C 
HETATM   25  O   UNK N   1      34.214  17.850   6.494  0.00  0.00    -0.648 OA
BRANCH  24  26
HETATM   26  O   UNK N   1      32.106  17.378   5.986  0.00  0.00    -0.775 OA
HETATM   27  H   UNK N   1      31.466  16.715   6.156  0.00  0.00     0.167 HD
ENDBRANCH  24  26
ENDBRANCH  20  24
ENDBRANCH  19  20
ENDBRANCH  18  19
ENDBRANCH   3  18
TORSDOF 13
ENDMDL
MODEL 6
REMARK VINA RESULT:      -5.2     11.372     13.207
REMARK  13 active torsions:
REMARK  status: ('A' for Active; 'I' for Inactive)
REMARK    1  A    between atoms: S_1  and  C_16 
REMARK    2  A    between atoms: O_4  and  C_18 
REMARK    3  A    between atoms: O_6  and  C_20 
REMARK    4  A    between atoms: C_13  and  N_8 
REMARK       I    between atoms: N_8  and  C_15 
REMARK    5  A    between atoms: C_14  and  N_9 
REMARK       I    between atoms: N_10  and  C_17 
REMARK    6  A    between atoms: N_10  and  C_19 
REMARK    7  A    between atoms: C_11  and  C_12 
REMARK    8  A    between atoms: C_11  and  C_14 
REMARK    9  A    between atoms: C_12  and  C_15 
REMARK   10  A    between atoms: C_13  and  C_16 
REMARK   11  A    between atoms: C_13  and  C_17 
REMARK   12  A    between atoms: C_14  and  C_18 
REMARK   13  A    between atoms: C_19  and  C_20 
ROOT
HETATM    1  O   UNK N   1      32.556  13.603   7.955  0.00  0.00    -0.274 OA
HETATM    2  N   UNK N   1      34.212  14.971   7.304  0.00  0.00    -0.347 N 
HETATM    3  C   UNK N   1      33.697  14.011   8.110  0.00  0.00     0.218 C 
HETATM    4  H   UNK N   1      35.107  15.322   7.514  0.00  0.00     0.163 HD
ENDROOT
BRANCH   2   5
HETATM    5  C   UNK N   1      33.520  15.513   6.149  0.00  0.00     0.185 C 
BRANCH   5   6
HETATM    6  C   UNK N   1      34.365  15.235   4.911  0.00  0.00     0.105 C 
BRANCH   6   7
HETATM    7  S   UNK N   1      33.347  15.416   3.417  0.00  0.00    -0.180 SA
HETATM    8  H   UNK N   1      33.670  15.107   2.132  0.00  0.00     0.101 HD
ENDBRANCH   6   7
ENDBRANCH   5   6
BRANCH   5   9
HETATM    9  C   UNK N   1      33.314  17.009   6.335  0.00  0.00     0.241 C 
HETATM   10  O   UNK N   1      34.194  17.781   5.995  0.00  0.00    -0.271 OA
HETATM   11  N   UNK N   1      32.174  17.518   6.874  0.00  0.00    -0.349 N 
HETATM   12  H   UNK N   1      32.112  18.494   6.991  0.00  0.00     0.163 HD
BRANCH  11  13
HETATM   13  C   UNK N   1      31.052  16.711   7.285  0.00  0.00     0.232 C 
BRANCH  13  14
HETATM   14  C   UNK N   1      30.667  17.012   8.701  0.00  0.00     0.158 C 
HETATM   15  O   UNK N   1      29.967  17.980   8.942  0.00  0.00    -0.649 OA
BRANCH  14  16
HETATM   16  O   UNK N   1      31.097  16.230   9.713  0.00  0.00    -0.775 OA
HETATM   17  H   UNK N   1      32.000  16.173   9.954  0.00  0.00     0.167 HD
ENDBRANCH  14  16
ENDBRANCH  13  14
ENDBRANCH  11  13
ENDBRANCH   5   9
ENDBRANCH   2   5
BRANCH   3  18
HETATM   18  C   UNK N   1      34.559  13.420   9.175  0.00  0.00     0.105 C 
BRANCH  18  19
HETATM   19  C   UNK N   1      35.713  14.342   9.514  0.00  0.00     0.044 C 
BRANCH  19  20
HETATM   20  C   UNK N   1      35.337  15.249  10.680  0.00  0.00     0.173 C 
BRANCH  20  21
HETATM   21  N   UNK N   1      36.409  15.233  11.659  0.00  0.00    -0.418 N 
HETATM   22  H   UNK N   1      37.411  15.370  11.533  0.00  0.00     0.150 HD
HETATM   23  H   UNK N   1      36.114  15.058  12.620  0.00  0.00     0.150 HD
ENDBRANCH  20  21
BRANCH  20  24
HETATM   24  C   UNK N   1      35.072  16.668  10.247  0.00  0.00     0.163 C 
HETATM   25  O   UNK N   1      35.911  17.542  10.409  0.00  0.00    -0.648 OA
BRANCH  24  26
HETATM   26  O   UNK N   1      33.893  16.981   9.678  0.00  0.00    -0.775 OA
HETATM   27  H   UNK N   1      33.830  17.299   8.799  0.00  0.00     0.167 HD
ENDBRANCH  24  26
ENDBRANCH  20  24
ENDBRANCH  19  20
ENDBRANCH  18  19
ENDBRANCH   3  18
TORSDOF 13
ENDMDL
MODEL 7
REMARK VINA RESULT:      -5.2      9.852     11.002
REMARK  13 active torsions:
REMARK  status: ('A' for Active; 'I' for Inactive)
REMARK    1  A    between atoms: S_1  and  C_16 
REMARK    2  A    between atoms: O_4  and  C_18 
REMARK    3  A    between atoms: O_6  and  C_20 
REMARK    4  A    between atoms: C_13  and  N_8 
REMARK       I    between atoms: N_8  and  C_15 
REMARK    5  A    between atoms: C_14  and  N_9 
REMARK       I    between atoms: N_10  and  C_17 
REMARK    6  A    between atoms: N_10  and  C_19 
REMARK    7  A    between atoms: C_11  and  C_12 
REMARK    8  A    between atoms: C_11  and  C_14 
REMARK    9  A    between atoms: C_12  and  C_15 
REMARK   10  A    between atoms: C_13  and  C_16 
REMARK   11  A    between atoms: C_13  and  C_17 
REMARK   12  A    between atoms: C_14  and  C_18 
REMARK   13  A    between atoms: C_19  and  C_20 
ROOT
HETATM    1  O   UNK N   1      30.852  14.436   6.117  0.00  0.00    -0.274 OA
HETATM    2  N   UNK N   1      30.492  16.630   5.814  0.00  0.00    -0.347 N 
HETATM    3  C   UNK N   1      31.197  15.590   6.321  0.00  0.00     0.218 C 
HETATM    4  H   UNK N   1      30.764  17.542   6.069  0.00  0.00     0.163 HD
ENDROOT
BRANCH   2   5
HETATM    5  C   UNK N   1      29.360  16.480   4.920  0.00  0.00     0.185 C 
BRANCH   5   6
HETATM    6  C   UNK N   1      29.883  16.416   3.490  0.00  0.00     0.105 C 
BRANCH   6   7
HETATM    7  S   UNK N   1      29.255  14.921   2.670  0.00  0.00    -0.180 SA
HETATM    8  H   UNK N   1      29.356  14.571   1.360  0.00  0.00     0.101 HD
ENDBRANCH   6   7
ENDBRANCH   5   6
BRANCH   5   9
HETATM    9  C   UNK N   1      28.414  17.660   5.094  0.00  0.00     0.241 C 
HETATM   10  O   UNK N   1      28.342  18.504   4.217  0.00  0.00    -0.271 OA
HETATM   11  N   UNK N   1      27.643  17.808   6.204  0.00  0.00    -0.349 N 
HETATM   12  H   UNK N   1      27.069  18.607   6.268  0.00  0.00     0.163 HD
BRANCH  11  13
HETATM   13  C   UNK N   1      27.616  16.863   7.293  0.00  0.00     0.232 C 
BRANCH  13  14
HETATM   14  C   UNK N   1      28.215  17.458   8.531  0.00  0.00     0.158 C 
HETATM   15  O   UNK N   1      29.423  17.418   8.694  0.00  0.00    -0.649 OA
BRANCH  14  16
HETATM   16  O   UNK N   1      27.433  18.027   9.471  0.00  0.00    -0.775 OA
HETATM   17  H   UNK N   1      27.283  17.629  10.305  0.00  0.00     0.167 HD
ENDBRANCH  14  16
ENDBRANCH  13  14
ENDBRANCH  11  13
ENDBRANCH   5   9
ENDBRANCH   2   5
BRANCH   3  18
HETATM   18  C   UNK N   1      32.436  15.866   7.105  0.00  0.00     0.105 C 
BRANCH  18  19
HETATM   19  C   UNK N   1      33.034  17.205   6.721  0.00  0.00     0.044 C 
BRANCH  19  20
HETATM   20  C   UNK N   1      33.175  18.090   7.954  0.00  0.00     0.173 C 
BRANCH  20  21
HETATM   21  N   UNK N   1      32.315  17.578   9.006  0.00  0.00    -0.418 N 
HETATM   22  H   UNK N   1      31.821  16.689   9.071  0.00  0.00     0.150 HD
HETATM   23  H   UNK N   1      32.187  18.204   9.803  0.00  0.00     0.150 HD
ENDBRANCH  20  21
BRANCH  20  24
HETATM   24  C   UNK N   1      34.594  18.163   8.455  0.00  0.00     0.163 C 
HETATM   25  O   UNK N   1      35.224  19.210   8.408  0.00  0.00    -0.648 OA
BRANCH  24  26
HETATM   26  O   UNK N   1      35.180  17.060   8.957  0.00  0.00    -0.775 OA
HETATM   27  H   UNK N   1      34.698  16.278   9.143  0.00  0.00     0.167 HD
ENDBRANCH  24  26
ENDBRANCH  20  24
ENDBRANCH  19  20
ENDBRANCH  18  19
ENDBRANCH   3  18
TORSDOF 13
ENDMDL
MODEL 8
REMARK VINA RESULT:      -5.2     10.481     13.096
REMARK  13 active torsions:
REMARK  status: ('A' for Active; 'I' for Inactive)
REMARK    1  A    between atoms: S_1  and  C_16 
REMARK    2  A    between atoms: O_4  and  C_18 
REMARK    3  A    between atoms: O_6  and  C_20 
REMARK    4  A    between atoms: C_13  and  N_8 
REMARK       I    between atoms: N_8  and  C_15 
REMARK    5  A    between atoms: C_14  and  N_9 
REMARK       I    between atoms: N_10  and  C_17 
REMARK    6  A    between atoms: N_10  and  C_19 
REMARK    7  A    between atoms: C_11  and  C_12 
REMARK    8  A    between atoms: C_11  and  C_14 
REMARK    9  A    between atoms: C_12  and  C_15 
REMARK   10  A    between atoms: C_13  and  C_16 
REMARK   11  A    between atoms: C_13  and  C_17 
REMARK   12  A    between atoms: C_14  and  C_18 
REMARK   13  A    between atoms: C_19  and  C_20 
ROOT
HETATM    1  O   UNK N   1      31.938  17.791   8.372  0.00  0.00    -0.274 OA
HETATM    2  N   UNK N   1      32.459  15.876   7.326  0.00  0.00    -0.347 N 
HETATM    3  C   UNK N   1      31.576  16.828   7.714  0.00  0.00     0.218 C 
HETATM    4  H   UNK N   1      32.109  15.080   6.864  0.00  0.00     0.163 HD
ENDROOT
BRANCH   2   5
HETATM    5  C   UNK N   1      33.889  15.959   7.553  0.00  0.00     0.185 C 
BRANCH   5   6
HETATM    6  C   UNK N   1      34.577  16.161   6.208  0.00  0.00     0.105 C 
BRANCH   6   7
HETATM    7  S   UNK N   1      33.442  15.713   4.861  0.00  0.00    -0.180 SA
HETATM    8  H   UNK N   1      33.696  15.655   3.526  0.00  0.00     0.101 HD
ENDBRANCH   6   7
ENDBRANCH   5   6
BRANCH   5   9
HETATM    9  C   UNK N   1      34.375  14.680   8.220  0.00  0.00     0.241 C 
HETATM   10  O   UNK N   1      34.581  13.691   7.537  0.00  0.00    -0.271 OA
HETATM   11  N   UNK N   1      34.584  14.601   9.560  0.00  0.00    -0.349 N 
HETATM   12  H   UNK N   1      34.875  13.737   9.934  0.00  0.00     0.163 HD
BRANCH  11  13
HETATM   13  C   UNK N   1      34.406  15.708  10.466  0.00  0.00     0.232 C 
BRANCH  13  14
HETATM   14  C   UNK N   1      35.637  16.562  10.513  0.00  0.00     0.158 C 
HETATM   15  O   UNK N   1      35.579  17.723  10.145  0.00  0.00    -0.649 OA
BRANCH  14  16
HETATM   16  O   UNK N   1      36.810  16.058  10.949  0.00  0.00    -0.775 OA
HETATM   17  H   UNK N   1      36.903  15.666  11.794  0.00  0.00     0.167 HD
ENDBRANCH  14  16
ENDBRANCH  13  14
ENDBRANCH  11  13
ENDBRANCH   5   9
ENDBRANCH   2   5
BRANCH   3  18
HETATM   18  C   UNK N   1      30.150  16.710   7.292  0.00  0.00     0.105 C 
BRANCH  18  19
HETATM   19  C   UNK N   1      29.448  18.052   7.373  0.00  0.00     0.044 C 
BRANCH  19  20
HETATM   20  C   UNK N   1      28.310  17.989   8.384  0.00  0.00     0.173 C 
BRANCH  20  21
HETATM   21  N   UNK N   1      27.379  16.948   7.987  0.00  0.00    -0.418 N 
HETATM   22  H   UNK N   1      26.474  17.023   7.524  0.00  0.00     0.150 HD
HETATM   23  H   UNK N   1      27.676  15.996   8.204  0.00  0.00     0.150 HD
ENDBRANCH  20  21
BRANCH  20  24
HETATM   24  C   UNK N   1      28.795  17.721   9.786  0.00  0.00     0.163 C 
HETATM   25  O   UNK N   1      28.402  16.748  10.412  0.00  0.00    -0.648 OA
BRANCH  24  26
HETATM   26  O   UNK N   1      29.671  18.567  10.359  0.00  0.00    -0.775 OA
HETATM   27  H   UNK N   1      30.065  18.391  11.191  0.00  0.00     0.167 HD
ENDBRANCH  24  26
ENDBRANCH  20  24
ENDBRANCH  19  20
ENDBRANCH  18  19
ENDBRANCH   3  18
TORSDOF 13
ENDMDL
MODEL 9
REMARK VINA RESULT:      -5.2     13.019     15.542
REMARK  13 active torsions:
REMARK  status: ('A' for Active; 'I' for Inactive)
REMARK    1  A    between atoms: S_1  and  C_16 
REMARK    2  A    between atoms: O_4  and  C_18 
REMARK    3  A    between atoms: O_6  and  C_20 
REMARK    4  A    between atoms: C_13  and  N_8 
REMARK       I    between atoms: N_8  and  C_15 
REMARK    5  A    between atoms: C_14  and  N_9 
REMARK       I    between atoms: N_10  and  C_17 
REMARK    6  A    between atoms: N_10  and  C_19 
REMARK    7  A    between atoms: C_11  and  C_12 
REMARK    8  A    between atoms: C_11  and  C_14 
REMARK    9  A    between atoms: C_12  and  C_15 
REMARK   10  A    between atoms: C_13  and  C_16 
REMARK   11  A    between atoms: C_13  and  C_17 
REMARK   12  A    between atoms: C_14  and  C_18 
REMARK   13  A    between atoms: C_19  and  C_20 
ROOT
HETATM    1  O   UNK N   1      34.643  12.240  11.026  0.00  0.00    -0.274 OA
HETATM    2  N   UNK N   1      36.449  13.485  11.495  0.00  0.00    -0.347 N 
HETATM    3  C   UNK N   1      35.512  12.562  11.820  0.00  0.00     0.218 C 
HETATM    4  H   UNK N   1      37.083  13.768  12.193  0.00  0.00     0.163 HD
ENDROOT
BRANCH   2   5
HETATM    5  C   UNK N   1      36.572  14.082  10.179  0.00  0.00     0.185 C 
BRANCH   5   6
HETATM    6  C   UNK N   1      38.053  14.153   9.821  0.00  0.00     0.105 C 
BRANCH   6   7
HETATM    7  S   UNK N   1      38.316  13.485   8.153  0.00  0.00    -0.180 SA
HETATM    8  H   UNK N   1      37.394  13.251   7.180  0.00  0.00     0.101 HD
ENDBRANCH   6   7
ENDBRANCH   5   6
BRANCH   5   9
HETATM    9  C   UNK N   1      35.954  15.473  10.191  0.00  0.00     0.241 C 
HETATM   10  O   UNK N   1      36.454  16.344  10.884  0.00  0.00    -0.271 OA
HETATM   11  N   UNK N   1      34.855  15.780   9.453  0.00  0.00    -0.349 N 
HETATM   12  H   UNK N   1      34.488  16.692   9.523  0.00  0.00     0.163 HD
BRANCH  11  13
HETATM   13  C   UNK N   1      34.194  14.847   8.573  0.00  0.00     0.232 C 
BRANCH  13  14
HETATM   14  C   UNK N   1      32.790  14.587   9.028  0.00  0.00     0.158 C 
HETATM   15  O   UNK N   1      32.016  15.519   9.154  0.00  0.00    -0.649 OA
BRANCH  14  16
HETATM   16  O   UNK N   1      32.379  13.334   9.309  0.00  0.00    -0.775 OA
HETATM   17  H   UNK N   1      31.486  13.066   9.213  0.00  0.00     0.167 HD
ENDBRANCH  14  16
ENDBRANCH  13  14
ENDBRANCH  11  13
ENDBRANCH   5   9
ENDBRANCH   2   5
BRANCH   3  18
HETATM   18  C   UNK N   1      35.577  11.903  13.158  0.00  0.00     0.105 C 
BRANCH  18  19
HETATM   19  C   UNK N   1      35.259  12.889  14.265  0.00  0.00     0.044 C 
BRANCH  19  20
HETATM   20  C   UNK N   1      36.503  13.154  15.105  0.00  0.00     0.173 C 
BRANCH  20  21
HETATM   21  N   UNK N   1      37.555  12.239  14.697  0.00  0.00    -0.418 N 
HETATM   22  H   UNK N   1      38.075  11.556  15.246  0.00  0.00     0.150 HD
HETATM   23  H   UNK N   1      37.811  12.287  13.710  0.00  0.00     0.150 HD
ENDBRANCH  20  21
BRANCH  20  24
HETATM   24  C   UNK N   1      36.995  14.573  14.979  0.00  0.00     0.163 C 
HETATM   25  O   UNK N   1      37.575  15.122  15.904  0.00  0.00    -0.648 OA
BRANCH  24  26
HETATM   26  O   UNK N   1      36.790  15.249  13.833  0.00  0.00    -0.775 OA
HETATM   27  H   UNK N   1      37.486  15.447  13.237  0.00  0.00     0.167 HD
ENDBRANCH  24  26
ENDBRANCH  20  24
ENDBRANCH  19  20
ENDBRANCH  18  19
ENDBRANCH   3  18
TORSDOF 13
ENDMDL
