MODEL 1
REMARK VINA RESULT:      -5.0      0.000      0.000
REMARK  4 active torsions:
REMARK  status: ('A' for Active; 'I' for Inactive)
REMARK    1  A    between atoms: O_1  and  C_8 
REMARK    2  A    between atoms: O_2  and  C_10 
REMARK    3  A    between atoms: C_6  and  C_10 
REMARK    4  A    between atoms: C_7  and  C_13 
ROOT
HETATM    1  N   UNK N   1      21.615  12.097  11.595  0.00  0.00    -0.367 N 
ATOM      2  HN  UNK N   1      20.920  11.918  12.318  1.00  0.00     0.165 HD
HETATM    3  C   UNK N   1      22.111  12.580   9.291  0.00  0.00    -0.003 A 
HETATM    4  C   UNK N   1      23.515  12.590   9.611  0.00  0.00     0.046 A 
HETATM    5  C   UNK N   1      23.896  12.344  10.950  0.00  0.00     0.101 A 
HETATM    6  C   UNK N   1      22.926  12.100  11.927  0.00  0.00     0.039 A 
HETATM    7  C   UNK N   1      21.203  12.328  10.325  0.00  0.00     0.098 A 
HETATM    8  C   UNK N   1      23.318  11.840  13.342  0.00  0.00     0.071 C 
ENDROOT
BRANCH   3   9
HETATM    9  C   UNK N   1      21.430  12.809   7.956  0.00  0.00     0.205 C 
BRANCH   9  10
HETATM   10  O   UNK N   1      20.334  13.659   7.925  0.00  0.00    -0.396 OA
HETATM   11  H   UNK N   1      19.963  13.942   7.075  0.00  0.00     0.209 HD
ENDBRANCH   9  10
ENDBRANCH   3   9
BRANCH   4  12
HETATM   12  C   UNK N   1      24.644  12.835   8.671  0.00  0.00     0.273 C 
HETATM   13  O   UNK N   1      25.334  13.834   8.649  0.00  0.00    -0.301 OA
ENDBRANCH   4  12
BRANCH   5  14
HETATM   14  O   UNK N   1      25.199  12.343  11.296  0.00  0.00    -0.358 OA
HETATM   15  H   UNK N   1      25.467  11.964  12.110  0.00  0.00     0.217 HD
ENDBRANCH   5  14
TORSDOF 4
ENDMDL
MODEL 2
REMARK VINA RESULT:      -4.9      1.444      3.579
REMARK  4 active torsions:
REMARK  status: ('A' for Active; 'I' for Inactive)
REMARK    1  A    between atoms: O_1  and  C_8 
REMARK    2  A    between atoms: O_2  and  C_10 
REMARK    3  A    between atoms: C_6  and  C_10 
REMARK    4  A    between atoms: C_7  and  C_13 
ROOT
HETATM    1  N   UNK N   1      22.069  11.709  11.809  0.00  0.00    -0.367 N 
ATOM      2  HN  UNK N   1      22.081  11.063  12.597  1.00  0.00     0.165 HD
HETATM    3  C   UNK N   1      23.286  12.930  10.131  0.00  0.00    -0.003 A 
HETATM    4  C   UNK N   1      22.044  13.477   9.650  0.00  0.00     0.046 A 
HETATM    5  C   UNK N   1      20.849  13.093  10.301  0.00  0.00     0.101 A 
HETATM    6  C   UNK N   1      20.887  12.205  11.381  0.00  0.00     0.039 A 
HETATM    7  C   UNK N   1      23.240  12.049  11.216  0.00  0.00     0.098 A 
HETATM    8  C   UNK N   1      19.632  11.794  12.073  0.00  0.00     0.071 C 
ENDROOT
BRANCH   3   9
HETATM    9  C   UNK N   1      24.697  13.167   9.628  0.00  0.00     0.205 C 
BRANCH   9  10
HETATM   10  O   UNK N   1      25.671  13.489  10.561  0.00  0.00    -0.396 OA
HETATM   11  H   UNK N   1      26.566  13.125  10.474  0.00  0.00     0.209 HD
ENDBRANCH   9  10
ENDBRANCH   3   9
BRANCH   4  12
HETATM   12  C   UNK N   1      21.865  14.427   8.516  0.00  0.00     0.273 C 
HETATM   13  O   UNK N   1      21.210  15.449   8.554  0.00  0.00    -0.301 OA
ENDBRANCH   4  12
BRANCH   5  14
HETATM   14  O   UNK N   1      19.663  13.580   9.885  0.00  0.00    -0.358 OA
HETATM   15  H   UNK N   1      19.628  14.391   9.417  0.00  0.00     0.217 HD
ENDBRANCH   5  14
TORSDOF 4
ENDMDL
MODEL 3
REMARK VINA RESULT:      -4.8     10.116     11.563
REMARK  4 active torsions:
REMARK  status: ('A' for Active; 'I' for Inactive)
REMARK    1  A    between atoms: O_1  and  C_8 
REMARK    2  A    between atoms: O_2  and  C_10 
REMARK    3  A    between atoms: C_6  and  C_10 
REMARK    4  A    between atoms: C_7  and  C_13 
ROOT
HETATM    1  N   UNK N   1      33.034  15.017  10.218  0.00  0.00    -0.367 N 
ATOM      2  HN  UNK N   1      32.686  14.221  10.750  1.00  0.00     0.165 HD
HETATM    3  C   UNK N   1      32.727  16.583   8.417  0.00  0.00    -0.003 A 
HETATM    4  C   UNK N   1      33.983  17.199   8.758  0.00  0.00     0.046 A 
HETATM    5  C   UNK N   1      34.713  16.668   9.847  0.00  0.00     0.101 A 
HETATM    6  C   UNK N   1      34.217  15.574  10.563  0.00  0.00     0.039 A 
HETATM    7  C   UNK N   1      32.300  15.492   9.183  0.00  0.00     0.098 A 
HETATM    8  C   UNK N   1      34.980  15.007  11.712  0.00  0.00     0.071 C 
ENDROOT
BRANCH   3   9
HETATM    9  C   UNK N   1      31.751  16.941   7.314  0.00  0.00     0.205 C 
BRANCH   9  10
HETATM   10  O   UNK N   1      30.573  17.580   7.673  0.00  0.00    -0.396 OA
HETATM   11  H   UNK N   1      30.491  17.991   8.548  0.00  0.00     0.209 HD
ENDBRANCH   9  10
ENDBRANCH   3   9
BRANCH   4  12
HETATM   12  C   UNK N   1      34.621  18.362   8.081  0.00  0.00     0.273 C 
HETATM   13  O   UNK N   1      35.218  19.260   8.641  0.00  0.00    -0.301 OA
ENDBRANCH   4  12
BRANCH   5  14
HETATM   14  O   UNK N   1      35.894  17.213  10.202  0.00  0.00    -0.358 OA
HETATM   15  H   UNK N   1      36.390  16.839  10.904  0.00  0.00     0.217 HD
ENDBRANCH   5  14
TORSDOF 4
ENDMDL
MODEL 4
REMARK VINA RESULT:      -4.7     21.575     23.408
REMARK  4 active torsions:
REMARK  status: ('A' for Active; 'I' for Inactive)
REMARK    1  A    between atoms: O_1  and  C_8 
REMARK    2  A    between atoms: O_2  and  C_10 
REMARK    3  A    between atoms: C_6  and  C_10 
REMARK    4  A    between atoms: C_7  and  C_13 
ROOT
HETATM    1  N   UNK N   1      42.960  23.924   1.970  0.00  0.00    -0.367 N 
ATOM      2  HN  UNK N   1      43.183  24.862   1.639  1.00  0.00     0.165 HD
HETATM    3  C   UNK N   1      43.639  21.942   3.153  0.00  0.00    -0.003 A 
HETATM    4  C   UNK N   1      42.352  21.357   2.880  0.00  0.00     0.046 A 
HETATM    5  C   UNK N   1      41.415  22.117   2.143  0.00  0.00     0.101 A 
HETATM    6  C   UNK N   1      41.743  23.403   1.697  0.00  0.00     0.039 A 
HETATM    7  C   UNK N   1      43.889  23.233   2.673  0.00  0.00     0.098 A 
HETATM    8  C   UNK N   1      40.762  24.212   0.919  0.00  0.00     0.071 C 
ENDROOT
BRANCH   3   9
HETATM    9  C   UNK N   1      44.816  21.361   3.910  0.00  0.00     0.205 C 
BRANCH   9  10
HETATM   10  O   UNK N   1      45.857  22.215   4.246  0.00  0.00    -0.396 OA
HETATM   11  H   UNK N   1      46.496  22.491   3.569  0.00  0.00     0.209 HD
ENDBRANCH   9  10
ENDBRANCH   3   9
BRANCH   4  12
HETATM   12  C   UNK N   1      41.878  20.007   3.294  0.00  0.00     0.273 C 
HETATM   13  O   UNK N   1      40.873  19.783   3.938  0.00  0.00    -0.301 OA
ENDBRANCH   4  12
BRANCH   5  14
HETATM   14  O   UNK N   1      40.198  21.610   1.863  0.00  0.00    -0.358 OA
HETATM   15  H   UNK N   1      39.859  20.899   2.372  0.00  0.00     0.217 HD
ENDBRANCH   5  14
TORSDOF 4
ENDMDL
MODEL 5
REMARK VINA RESULT:      -4.7      1.670      3.169
REMARK  4 active torsions:
REMARK  status: ('A' for Active; 'I' for Inactive)
REMARK    1  A    between atoms: O_1  and  C_8 
REMARK    2  A    between atoms: O_2  and  C_10 
REMARK    3  A    between atoms: C_6  and  C_10 
REMARK    4  A    between atoms: C_7  and  C_13 
ROOT
HETATM    1  N   UNK N   1      24.789  12.508  11.318  0.00  0.00    -0.367 N 
ATOM      2  HN  UNK N   1      25.539  12.495  12.009  1.00  0.00     0.165 HD
HETATM    3  C   UNK N   1      24.087  12.897   9.050  0.00  0.00    -0.003 A 
HETATM    4  C   UNK N   1      22.741  12.548   9.423  0.00  0.00     0.046 A 
HETATM    5  C   UNK N   1      22.493  12.187  10.768  0.00  0.00     0.101 A 
HETATM    6  C   UNK N   1      23.536  12.175  11.700  0.00  0.00     0.039 A 
HETATM    7  C   UNK N   1      25.074  12.860  10.041  0.00  0.00     0.098 A 
HETATM    8  C   UNK N   1      23.284  11.797  13.119  0.00  0.00     0.071 C 
ENDROOT
BRANCH   3   9
HETATM    9  C   UNK N   1      24.630  13.317   7.698  0.00  0.00     0.205 C 
BRANCH   9  10
HETATM   10  O   UNK N   1      25.625  14.282   7.671  0.00  0.00    -0.396 OA
HETATM   11  H   UNK N   1      25.491  15.130   8.123  0.00  0.00     0.209 HD
ENDBRANCH   9  10
ENDBRANCH   3   9
BRANCH   4  12
HETATM   12  C   UNK N   1      21.546  12.520   8.534  0.00  0.00     0.273 C 
HETATM   13  O   UNK N   1      20.576  13.244   8.640  0.00  0.00    -0.301 OA
ENDBRANCH   4  12
BRANCH   5  14
HETATM   14  O   UNK N   1      21.248  11.853  11.162  0.00  0.00    -0.358 OA
HETATM   15  H   UNK N   1      21.125  11.320  11.923  0.00  0.00     0.217 HD
ENDBRANCH   5  14
TORSDOF 4
ENDMDL
MODEL 6
REMARK VINA RESULT:      -4.7      9.029     10.558
REMARK  4 active torsions:
REMARK  status: ('A' for Active; 'I' for Inactive)
REMARK    1  A    between atoms: O_1  and  C_8 
REMARK    2  A    between atoms: O_2  and  C_10 
REMARK    3  A    between atoms: C_6  and  C_10 
REMARK    4  A    between atoms: C_7  and  C_13 
ROOT
HETATM    1  N   UNK N   1      21.860  17.791   4.342  0.00  0.00    -0.367 N 
ATOM      2  HN  UNK N   1      22.034  17.046   5.016  1.00  0.00     0.165 HD
HETATM    3  C   UNK N   1      22.646  19.752   3.191  0.00  0.00    -0.003 A 
HETATM    4  C   UNK N   1      21.386  19.832   2.498  0.00  0.00     0.046 A 
HETATM    5  C   UNK N   1      20.406  18.852   2.779  0.00  0.00     0.101 A 
HETATM    6  C   UNK N   1      20.667  17.838   3.708  0.00  0.00     0.039 A 
HETATM    7  C   UNK N   1      22.828  18.708   4.105  0.00  0.00     0.098 A 
HETATM    8  C   UNK N   1      19.640  16.800   4.010  0.00  0.00     0.071 C 
ENDROOT
BRANCH   3   9
HETATM    9  C   UNK N   1      23.858  20.657   3.086  0.00  0.00     0.205 C 
BRANCH   9  10
HETATM   10  O   UNK N   1      24.530  20.701   1.874  0.00  0.00    -0.396 OA
HETATM   11  H   UNK N   1      25.223  20.051   1.679  0.00  0.00     0.209 HD
ENDBRANCH   9  10
ENDBRANCH   3   9
BRANCH   4  12
HETATM   12  C   UNK N   1      20.983  20.853   1.492  0.00  0.00     0.273 C 
HETATM   13  O   UNK N   1      21.086  20.731   0.288  0.00  0.00    -0.301 OA
ENDBRANCH   4  12
BRANCH   5  14
HETATM   14  O   UNK N   1      19.213  18.887   2.154  0.00  0.00    -0.358 OA
HETATM   15  H   UNK N   1      18.434  19.075   2.641  0.00  0.00     0.217 HD
ENDBRANCH   5  14
TORSDOF 4
ENDMDL
MODEL 7
REMARK VINA RESULT:      -4.7      8.671      9.970
REMARK  4 active torsions:
REMARK  status: ('A' for Active; 'I' for Inactive)
REMARK    1  A    between atoms: O_1  and  C_8 
REMARK    2  A    between atoms: O_2  and  C_10 
REMARK    3  A    between atoms: C_6  and  C_10 
REMARK    4  A    between atoms: C_7  and  C_13 
ROOT
HETATM    1  N   UNK N   1      20.576  18.028   3.605  0.00  0.00    -0.367 N 
ATOM      2  HN  UNK N   1      19.878  17.321   3.833  1.00  0.00     0.165 HD
HETATM    3  C   UNK N   1      21.199  19.973   2.333  0.00  0.00    -0.003 A 
HETATM    4  C   UNK N   1      22.485  19.964   2.978  0.00  0.00     0.046 A 
HETATM    5  C   UNK N   1      22.748  18.953   3.931  0.00  0.00     0.101 A 
HETATM    6  C   UNK N   1      21.775  17.993   4.228  0.00  0.00     0.039 A 
HETATM    7  C   UNK N   1      20.280  18.978   2.686  0.00  0.00     0.098 A 
HETATM    8  C   UNK N   1      22.043  16.923   5.231  0.00  0.00     0.071 C 
ENDROOT
BRANCH   3   9
HETATM    9  C   UNK N   1      20.655  20.927   1.288  0.00  0.00     0.205 C 
BRANCH   9  10
HETATM   10  O   UNK N   1      20.670  20.515  -0.037  0.00  0.00    -0.396 OA
HETATM   11  H   UNK N   1      19.894  20.662  -0.600  0.00  0.00     0.209 HD
ENDBRANCH   9  10
ENDBRANCH   3   9
BRANCH   4  12
HETATM   12  C   UNK N   1      23.604  20.922   2.754  0.00  0.00     0.273 C 
HETATM   13  O   UNK N   1      24.611  20.689   2.117  0.00  0.00    -0.301 OA
ENDBRANCH   4  12
BRANCH   5  14
HETATM   14  O   UNK N   1      23.940  18.906   4.560  0.00  0.00    -0.358 OA
HETATM   15  H   UNK N   1      24.712  18.674   4.083  0.00  0.00     0.217 HD
ENDBRANCH   5  14
TORSDOF 4
ENDMDL
MODEL 8
REMARK VINA RESULT:      -4.6      9.497     11.440
REMARK  4 active torsions:
REMARK  status: ('A' for Active; 'I' for Inactive)
REMARK    1  A    between atoms: O_1  and  C_8 
REMARK    2  A    between atoms: O_2  and  C_10 
REMARK    3  A    between atoms: C_6  and  C_10 
REMARK    4  A    between atoms: C_7  and  C_13 
ROOT
HETATM    1  N   UNK N   1      30.794  17.012   5.335  0.00  0.00    -0.367 N 
ATOM      2  HN  UNK N   1      30.146  16.806   4.575  1.00  0.00     0.165 HD
HETATM    3  C   UNK N   1      31.167  17.344   7.688  0.00  0.00    -0.003 A 
HETATM    4  C   UNK N   1      32.562  17.574   7.419  0.00  0.00     0.046 A 
HETATM    5  C   UNK N   1      33.004  17.507   6.077  0.00  0.00     0.101 A 
HETATM    6  C   UNK N   1      32.098  17.224   5.049  0.00  0.00     0.039 A 
HETATM    7  C   UNK N   1      30.326  17.066   6.605  0.00  0.00     0.098 A 
HETATM    8  C   UNK N   1      32.554  17.151   3.632  0.00  0.00     0.071 C 
ENDROOT
BRANCH   3   9
HETATM    9  C   UNK N   1      30.430  17.354   9.013  0.00  0.00     0.205 C 
BRANCH   9  10
HETATM   10  O   UNK N   1      30.323  18.562   9.686  0.00  0.00    -0.396 OA
HETATM   11  H   UNK N   1      30.142  19.378   9.193  0.00  0.00     0.209 HD
ENDBRANCH   9  10
ENDBRANCH   3   9
BRANCH   4  12
HETATM   12  C   UNK N   1      33.625  17.884   8.416  0.00  0.00     0.273 C 
HETATM   13  O   UNK N   1      34.461  18.758   8.301  0.00  0.00    -0.301 OA
ENDBRANCH   4  12
BRANCH   5  14
HETATM   14  O   UNK N   1      34.301  17.716   5.779  0.00  0.00    -0.358 OA
HETATM   15  H   UNK N   1      34.799  18.343   6.266  0.00  0.00     0.217 HD
ENDBRANCH   5  14
TORSDOF 4
ENDMDL
MODEL 9
REMARK VINA RESULT:      -4.5     11.949     12.805
REMARK  4 active torsions:
REMARK  status: ('A' for Active; 'I' for Inactive)
REMARK    1  A    between atoms: O_1  and  C_8 
REMARK    2  A    between atoms: O_2  and  C_10 
REMARK    3  A    between atoms: C_6  and  C_10 
REMARK    4  A    between atoms: C_7  and  C_13 
ROOT
HETATM    1  N   UNK N   1      34.674  14.119   7.107  0.00  0.00    -0.367 N 
ATOM      2  HN  UNK N   1      34.769  13.180   6.724  1.00  0.00     0.165 HD
HETATM    3  C   UNK N   1      34.555  15.554   9.035  0.00  0.00    -0.003 A 
HETATM    4  C   UNK N   1      34.412  16.690   8.162  0.00  0.00     0.046 A 
HETATM    5  C   UNK N   1      34.408  16.463   6.766  0.00  0.00     0.101 A 
HETATM    6  C   UNK N   1      34.541  15.165   6.261  0.00  0.00     0.039 A 
HETATM    7  C   UNK N   1      34.683  14.289   8.452  0.00  0.00     0.098 A 
HETATM    8  C   UNK N   1      34.538  14.916   4.791  0.00  0.00     0.071 C 
ENDROOT
BRANCH   3   9
HETATM    9  C   UNK N   1      34.591  15.507  10.550  0.00  0.00     0.205 C 
BRANCH   9  10
HETATM   10  O   UNK N   1      33.485  14.992  11.209  0.00  0.00    -0.396 OA
HETATM   11  H   UNK N   1      33.228  15.346  12.075  0.00  0.00     0.209 HD
ENDBRANCH   9  10
ENDBRANCH   3   9
BRANCH   4  12
HETATM   12  C   UNK N   1      34.263  18.116   8.567  0.00  0.00     0.273 C 
HETATM   13  O   UNK N   1      35.059  19.001   8.325  0.00  0.00    -0.301 OA
ENDBRANCH   4  12
BRANCH   5  14
HETATM   14  O   UNK N   1      34.277  17.497   5.910  0.00  0.00    -0.358 OA
HETATM   15  H   UNK N   1      35.032  17.985   5.647  0.00  0.00     0.217 HD
ENDBRANCH   5  14
TORSDOF 4
ENDMDL
