MODEL 1
REMARK VINA RESULT:      -6.0      0.000      0.000
REMARK  5 active torsions:
REMARK  status: ('A' for Active; 'I' for Inactive)
REMARK    1  A    between atoms: O_1  and  C_13 
REMARK    2  A    between atoms: C_8  and  N_4 
REMARK    3  A    between atoms: C_5  and  C_6 
REMARK    4  A    between atoms: C_6  and  C_8 
REMARK    5  A    between atoms: C_8  and  C_13 
ROOT
HETATM    1  N   UNK N   1      36.359  13.837  15.302  0.00  0.00    -0.365 N 
HETATM    2  C   UNK N   1      35.676  13.547  13.178  0.00  0.00    -0.028 A 
HETATM    3  C   UNK N   1      35.157  12.538  13.942  0.00  0.00    -0.002 A 
HETATM    4  C   UNK N   1      35.586  12.740  15.219  0.00  0.00     0.042 A 
HETATM    5  C   UNK N   1      36.423  14.348  14.043  0.00  0.00     0.096 A 
HETATM    6  C   UNK N   1      34.340  11.465  13.594  0.00  0.00     0.014 A 
HETATM    7  C   UNK N   1      35.231  11.879  16.255  0.00  0.00     0.030 A 
HETATM    8  C   UNK N   1      33.961  10.575  14.614  0.00  0.00     0.001 A 
HETATM    9  C   UNK N   1      34.405  10.781  15.941  0.00  0.00     0.002 A 
HETATM   10  H   UNK N   1      36.791  14.198  16.110  0.00  0.00     0.165 HD
ENDROOT
BRANCH   2  11
HETATM   11  C   UNK N   1      35.436  13.687  11.703  0.00  0.00     0.076 C 
BRANCH  11  12
HETATM   12  C   UNK N   1      34.819  14.977  11.162  0.00  0.00     0.177 C 
BRANCH  12  13
HETATM   13  N   UNK N   1      33.396  15.080  10.885  0.00  0.00    -0.417 N 
HETATM   14  H   UNK N   1      32.725  15.078  11.653  0.00  0.00     0.150 HD
HETATM   15  H   UNK N   1      33.067  15.154   9.922  0.00  0.00     0.150 HD
ENDBRANCH  12  13
BRANCH  12  16
HETATM   16  C   UNK N   1      35.681  16.174  10.904  0.00  0.00     0.163 C 
HETATM   17  O   UNK N   1      35.168  17.261  10.692  0.00  0.00    -0.648 OA
BRANCH  16  18
HETATM   18  O   UNK N   1      37.023  16.059  10.904  0.00  0.00    -0.775 OA
HETATM   19  H   UNK N   1      37.469  15.786  10.127  0.00  0.00     0.167 HD
ENDBRANCH  16  18
ENDBRANCH  12  16
ENDBRANCH  11  12
ENDBRANCH   2  11
TORSDOF 5
ENDMDL
MODEL 2
REMARK VINA RESULT:      -5.9     19.413     22.673
REMARK  5 active torsions:
REMARK  status: ('A' for Active; 'I' for Inactive)
REMARK    1  A    between atoms: O_1  and  C_13 
REMARK    2  A    between atoms: C_8  and  N_4 
REMARK    3  A    between atoms: C_5  and  C_6 
REMARK    4  A    between atoms: C_6  and  C_8 
REMARK    5  A    between atoms: C_8  and  C_13 
ROOT
HETATM    1  N   UNK N   1      25.386  24.574  -5.942  0.00  0.00    -0.365 N 
HETATM    2  C   UNK N   1      26.679  24.368  -4.113  0.00  0.00    -0.028 A 
HETATM    3  C   UNK N   1      26.232  25.659  -4.185  0.00  0.00    -0.002 A 
HETATM    4  C   UNK N   1      25.454  25.753  -5.300  0.00  0.00     0.042 A 
HETATM    5  C   UNK N   1      26.141  23.706  -5.216  0.00  0.00     0.096 A 
HETATM    6  C   UNK N   1      26.461  26.747  -3.347  0.00  0.00     0.014 A 
HETATM    7  C   UNK N   1      24.840  26.949  -5.665  0.00  0.00     0.030 A 
HETATM    8  C   UNK N   1      25.856  27.971  -3.684  0.00  0.00     0.001 A 
HETATM    9  C   UNK N   1      25.048  28.071  -4.840  0.00  0.00     0.002 A 
HETATM   10  H   UNK N   1      24.890  24.377  -6.770  0.00  0.00     0.165 HD
ENDROOT
BRANCH   2  11
HETATM   11  C   UNK N   1      27.571  23.853  -3.022  0.00  0.00     0.076 C 
BRANCH  11  12
HETATM   12  C   UNK N   1      29.085  23.835  -3.236  0.00  0.00     0.177 C 
BRANCH  12  13
HETATM   13  N   UNK N   1      29.744  24.820  -4.078  0.00  0.00    -0.417 N 
HETATM   14  H   UNK N   1      30.297  25.566  -3.655  0.00  0.00     0.150 HD
HETATM   15  H   UNK N   1      29.654  24.766  -5.093  0.00  0.00     0.150 HD
ENDBRANCH  12  13
BRANCH  12  16
HETATM   16  C   UNK N   1      29.927  22.789  -2.575  0.00  0.00     0.163 C 
HETATM   17  O   UNK N   1      30.159  21.737  -3.151  0.00  0.00    -0.648 OA
BRANCH  16  18
HETATM   18  O   UNK N   1      30.434  23.000  -1.345  0.00  0.00    -0.775 OA
HETATM   19  H   UNK N   1      29.897  23.377  -0.676  0.00  0.00     0.167 HD
ENDBRANCH  16  18
ENDBRANCH  12  16
ENDBRANCH  11  12
ENDBRANCH   2  11
TORSDOF 5
ENDMDL
MODEL 3
REMARK VINA RESULT:      -5.8     15.184     17.424
REMARK  5 active torsions:
REMARK  status: ('A' for Active; 'I' for Inactive)
REMARK    1  A    between atoms: O_1  and  C_13 
REMARK    2  A    between atoms: C_8  and  N_4 
REMARK    3  A    between atoms: C_5  and  C_6 
REMARK    4  A    between atoms: C_6  and  C_8 
REMARK    5  A    between atoms: C_8  and  C_13 
ROOT
HETATM    1  N   UNK N   1      23.776  17.387   4.841  0.00  0.00    -0.365 N 
HETATM    2  C   UNK N   1      22.318  18.867   3.977  0.00  0.00    -0.028 A 
HETATM    3  C   UNK N   1      23.588  19.303   3.712  0.00  0.00    -0.002 A 
HETATM    4  C   UNK N   1      24.446  18.388   4.246  0.00  0.00     0.042 A 
HETATM    5  C   UNK N   1      22.455  17.671   4.682  0.00  0.00     0.096 A 
HETATM    6  C   UNK N   1      24.036  20.437   3.039  0.00  0.00     0.014 A 
HETATM    7  C   UNK N   1      25.827  18.538   4.148  0.00  0.00     0.030 A 
HETATM    8  C   UNK N   1      25.425  20.621   2.922  0.00  0.00     0.001 A 
HETATM    9  C   UNK N   1      26.318  19.674   3.475  0.00  0.00     0.002 A 
HETATM   10  H   UNK N   1      24.162  16.605   5.300  0.00  0.00     0.165 HD
ENDROOT
BRANCH   2  11
HETATM   11  C   UNK N   1      21.078  19.598   3.553  0.00  0.00     0.076 C 
BRANCH  11  12
HETATM   12  C   UNK N   1      20.580  19.459   2.115  0.00  0.00     0.177 C 
BRANCH  12  13
HETATM   13  N   UNK N   1      19.919  18.249   1.654  0.00  0.00    -0.417 N 
HETATM   14  H   UNK N   1      20.286  17.741   0.849  0.00  0.00     0.150 HD
HETATM   15  H   UNK N   1      19.086  17.907   2.135  0.00  0.00     0.150 HD
ENDBRANCH  12  13
BRANCH  12  16
HETATM   16  C   UNK N   1      20.766  20.581   1.141  0.00  0.00     0.163 C 
HETATM   17  O   UNK N   1      21.085  21.690   1.541  0.00  0.00    -0.648 OA
BRANCH  16  18
HETATM   18  O   UNK N   1      20.584  20.375  -0.178  0.00  0.00    -0.775 OA
HETATM   19  H   UNK N   1      21.269  19.995  -0.691  0.00  0.00     0.167 HD
ENDBRANCH  16  18
ENDBRANCH  12  16
ENDBRANCH  11  12
ENDBRANCH   2  11
TORSDOF 5
ENDMDL
MODEL 4
REMARK VINA RESULT:      -5.8     12.655     14.268
REMARK  5 active torsions:
REMARK  status: ('A' for Active; 'I' for Inactive)
REMARK    1  A    between atoms: O_1  and  C_13 
REMARK    2  A    between atoms: C_8  and  N_4 
REMARK    3  A    between atoms: C_5  and  C_6 
REMARK    4  A    between atoms: C_6  and  C_8 
REMARK    5  A    between atoms: C_8  and  C_13 
ROOT
HETATM    1  N   UNK N   1      20.227  14.474   9.497  0.00  0.00    -0.365 N 
HETATM    2  C   UNK N   1      21.826  12.930   9.843  0.00  0.00    -0.028 A 
HETATM    3  C   UNK N   1      22.207  13.721   8.794  0.00  0.00    -0.002 A 
HETATM    4  C   UNK N   1      21.221  14.644   8.608  0.00  0.00     0.042 A 
HETATM    5  C   UNK N   1      20.589  13.415  10.269  0.00  0.00     0.096 A 
HETATM    6  C   UNK N   1      23.349  13.685   7.998  0.00  0.00     0.014 A 
HETATM    7  C   UNK N   1      21.302  15.609   7.607  0.00  0.00     0.030 A 
HETATM    8  C   UNK N   1      23.465  14.644   6.976  0.00  0.00     0.001 A 
HETATM    9  C   UNK N   1      22.444  15.603   6.782  0.00  0.00     0.002 A 
HETATM   10  H   UNK N   1      19.403  15.009   9.574  0.00  0.00     0.165 HD
ENDROOT
BRANCH   2  11
HETATM   11  C   UNK N   1      22.644  11.786  10.367  0.00  0.00     0.076 C 
BRANCH  11  12
HETATM   12  C   UNK N   1      23.661  12.038  11.479  0.00  0.00     0.177 C 
BRANCH  12  13
HETATM   13  N   UNK N   1      25.021  12.460  11.182  0.00  0.00    -0.417 N 
HETATM   14  H   UNK N   1      25.701  12.558  11.937  0.00  0.00     0.150 HD
HETATM   15  H   UNK N   1      25.295  12.659  10.220  0.00  0.00     0.150 HD
ENDBRANCH  12  13
BRANCH  12  16
HETATM   16  C   UNK N   1      23.272  11.853  12.913  0.00  0.00     0.163 C 
HETATM   17  O   UNK N   1      23.961  12.334  13.799  0.00  0.00    -0.648 OA
BRANCH  16  18
HETATM   18  O   UNK N   1      22.164  11.159  13.233  0.00  0.00    -0.775 OA
HETATM   19  H   UNK N   1      21.817  10.528  12.633  0.00  0.00     0.167 HD
ENDBRANCH  16  18
ENDBRANCH  12  16
ENDBRANCH  11  12
ENDBRANCH   2  11
TORSDOF 5
ENDMDL
MODEL 5
REMARK VINA RESULT:      -5.8      6.298      8.844
REMARK  5 active torsions:
REMARK  status: ('A' for Active; 'I' for Inactive)
REMARK    1  A    between atoms: O_1  and  C_13 
REMARK    2  A    between atoms: C_8  and  N_4 
REMARK    3  A    between atoms: C_5  and  C_6 
REMARK    4  A    between atoms: C_6  and  C_8 
REMARK    5  A    between atoms: C_8  and  C_13 
ROOT
HETATM    1  N   UNK N   1      29.487  17.863   8.202  0.00  0.00    -0.365 N 
HETATM    2  C   UNK N   1      31.500  16.863   8.107  0.00  0.00    -0.028 A 
HETATM    3  C   UNK N   1      31.001  16.955   6.836  0.00  0.00    -0.002 A 
HETATM    4  C   UNK N   1      29.785  17.564   6.926  0.00  0.00     0.042 A 
HETATM    5  C   UNK N   1      30.542  17.434   8.945  0.00  0.00     0.096 A 
HETATM    6  C   UNK N   1      31.538  16.546   5.619  0.00  0.00     0.014 A 
HETATM    7  C   UNK N   1      29.006  17.810   5.797  0.00  0.00     0.030 A 
HETATM    8  C   UNK N   1      30.780  16.779   4.458  0.00  0.00     0.001 A 
HETATM    9  C   UNK N   1      29.517  17.409   4.548  0.00  0.00     0.002 A 
HETATM   10  H   UNK N   1      28.670  18.304   8.532  0.00  0.00     0.165 HD
ENDROOT
BRANCH   2  11
HETATM   11  C   UNK N   1      32.829  16.251   8.441  0.00  0.00     0.076 C 
BRANCH  11  12
HETATM   12  C   UNK N   1      33.979  17.152   8.888  0.00  0.00     0.177 C 
BRANCH  12  13
HETATM   13  N   UNK N   1      34.576  17.023  10.208  0.00  0.00    -0.417 N 
HETATM   14  H   UNK N   1      34.007  17.166  11.042  0.00  0.00     0.150 HD
HETATM   15  H   UNK N   1      35.565  16.789  10.300  0.00  0.00     0.150 HD
ENDBRANCH  12  13
BRANCH  12  16
HETATM   16  C   UNK N   1      34.520  18.200   7.964  0.00  0.00     0.163 C 
HETATM   17  O   UNK N   1      35.055  19.198   8.420  0.00  0.00    -0.648 OA
BRANCH  16  18
HETATM   18  O   UNK N   1      34.419  18.048   6.630  0.00  0.00    -0.775 OA
HETATM   19  H   UNK N   1      34.383  18.801   6.075  0.00  0.00     0.167 HD
ENDBRANCH  16  18
ENDBRANCH  12  16
ENDBRANCH  11  12
ENDBRANCH   2  11
TORSDOF 5
ENDMDL
MODEL 6
REMARK VINA RESULT:      -5.7      2.662      4.071
REMARK  5 active torsions:
REMARK  status: ('A' for Active; 'I' for Inactive)
REMARK    1  A    between atoms: O_1  and  C_13 
REMARK    2  A    between atoms: C_8  and  N_4 
REMARK    3  A    between atoms: C_5  and  C_6 
REMARK    4  A    between atoms: C_6  and  C_8 
REMARK    5  A    between atoms: C_8  and  C_13 
ROOT
HETATM    1  N   UNK N   1      35.295  13.417  19.284  0.00  0.00    -0.365 N 
HETATM    2  C   UNK N   1      35.134  12.966  17.086  0.00  0.00    -0.028 A 
HETATM    3  C   UNK N   1      35.338  11.791  17.756  0.00  0.00    -0.002 A 
HETATM    4  C   UNK N   1      35.431  12.096  19.081  0.00  0.00     0.042 A 
HETATM    5  C   UNK N   1      35.110  13.970  18.055  0.00  0.00     0.096 A 
HETATM    6  C   UNK N   1      35.447  10.485  17.285  0.00  0.00     0.014 A 
HETATM    7  C   UNK N   1      35.641  11.112  20.044  0.00  0.00     0.030 A 
HETATM    8  C   UNK N   1      35.660   9.465  18.230  0.00  0.00     0.001 A 
HETATM    9  C   UNK N   1      35.756   9.778  19.605  0.00  0.00     0.002 A 
HETATM   10  H   UNK N   1      35.323  13.891  20.147  0.00  0.00     0.165 HD
ENDROOT
BRANCH   2  11
HETATM   11  C   UNK N   1      34.978  13.062  15.596  0.00  0.00     0.076 C 
BRANCH  11  12
HETATM   12  C   UNK N   1      36.084  13.714  14.766  0.00  0.00     0.177 C 
BRANCH  12  13
HETATM   13  N   UNK N   1      37.279  14.260  15.389  0.00  0.00    -0.417 N 
HETATM   14  H   UNK N   1      37.885  14.892  14.865  0.00  0.00     0.150 HD
HETATM   15  H   UNK N   1      37.512  14.012  16.351  0.00  0.00     0.150 HD
ENDBRANCH  12  13
BRANCH  12  16
HETATM   16  C   UNK N   1      35.956  13.803  13.277  0.00  0.00     0.163 C 
HETATM   17  O   UNK N   1      34.852  13.893  12.764  0.00  0.00    -0.648 OA
BRANCH  16  18
HETATM   18  O   UNK N   1      37.054  13.785  12.497  0.00  0.00    -0.775 OA
HETATM   19  H   UNK N   1      37.043  13.321  11.684  0.00  0.00     0.167 HD
ENDBRANCH  16  18
ENDBRANCH  12  16
ENDBRANCH  11  12
ENDBRANCH   2  11
TORSDOF 5
ENDMDL
MODEL 7
REMARK VINA RESULT:      -5.5      1.734      2.346
REMARK  5 active torsions:
REMARK  status: ('A' for Active; 'I' for Inactive)
REMARK    1  A    between atoms: O_1  and  C_13 
REMARK    2  A    between atoms: C_8  and  N_4 
REMARK    3  A    between atoms: C_5  and  C_6 
REMARK    4  A    between atoms: C_6  and  C_8 
REMARK    5  A    between atoms: C_8  and  C_13 
ROOT
HETATM    1  N   UNK N   1      34.350  11.532  12.660  0.00  0.00    -0.365 N 
HETATM    2  C   UNK N   1      35.414  13.494  12.946  0.00  0.00    -0.028 A 
HETATM    3  C   UNK N   1      35.314  12.873  14.161  0.00  0.00    -0.002 A 
HETATM    4  C   UNK N   1      34.667  11.691  13.956  0.00  0.00     0.042 A 
HETATM    5  C   UNK N   1      34.807  12.643  12.022  0.00  0.00     0.096 A 
HETATM    6  C   UNK N   1      35.748  13.272  15.423  0.00  0.00     0.014 A 
HETATM    7  C   UNK N   1      34.403  10.811  15.003  0.00  0.00     0.030 A 
HETATM    8  C   UNK N   1      35.499  12.408  16.504  0.00  0.00     0.001 A 
HETATM    9  C   UNK N   1      34.828  11.181  16.294  0.00  0.00     0.002 A 
HETATM   10  H   UNK N   1      33.882  10.767  12.254  0.00  0.00     0.165 HD
ENDROOT
BRANCH   2  11
HETATM   11  C   UNK N   1      36.066  14.830  12.742  0.00  0.00     0.076 C 
BRANCH  11  12
HETATM   12  C   UNK N   1      36.249  15.366  11.322  0.00  0.00     0.177 C 
BRANCH  12  13
HETATM   13  N   UNK N   1      37.377  14.962  10.498  0.00  0.00    -0.417 N 
HETATM   14  H   UNK N   1      38.002  15.668  10.108  0.00  0.00     0.150 HD
HETATM   15  H   UNK N   1      37.544  13.974  10.309  0.00  0.00     0.150 HD
ENDBRANCH  12  13
BRANCH  12  16
HETATM   16  C   UNK N   1      35.257  16.328  10.745  0.00  0.00     0.163 C 
HETATM   17  O   UNK N   1      35.624  17.429  10.368  0.00  0.00    -0.648 OA
BRANCH  16  18
HETATM   18  O   UNK N   1      33.959  15.986  10.640  0.00  0.00    -0.775 OA
HETATM   19  H   UNK N   1      33.657  15.177  11.003  0.00  0.00     0.167 HD
ENDBRANCH  16  18
ENDBRANCH  12  16
ENDBRANCH  11  12
ENDBRANCH   2  11
TORSDOF 5
ENDMDL
MODEL 8
REMARK VINA RESULT:      -5.5     22.449     24.825
REMARK  5 active torsions:
REMARK  status: ('A' for Active; 'I' for Inactive)
REMARK    1  A    between atoms: O_1  and  C_13 
REMARK    2  A    between atoms: C_8  and  N_4 
REMARK    3  A    between atoms: C_5  and  C_6 
REMARK    4  A    between atoms: C_6  and  C_8 
REMARK    5  A    between atoms: C_8  and  C_13 
ROOT
HETATM    1  N   UNK N   1      27.807  28.271  -7.150  0.00  0.00    -0.365 N 
HETATM    2  C   UNK N   1      26.250  27.044  -6.086  0.00  0.00    -0.028 A 
HETATM    3  C   UNK N   1      26.493  28.171  -5.349  0.00  0.00    -0.002 A 
HETATM    4  C   UNK N   1      27.438  28.892  -6.016  0.00  0.00     0.042 A 
HETATM    5  C   UNK N   1      27.078  27.124  -7.206  0.00  0.00     0.096 A 
HETATM    6  C   UNK N   1      25.946  28.601  -4.143  0.00  0.00     0.014 A 
HETATM    7  C   UNK N   1      27.911  30.106  -5.526  0.00  0.00     0.030 A 
HETATM    8  C   UNK N   1      26.401  29.824  -3.618  0.00  0.00     0.001 A 
HETATM    9  C   UNK N   1      27.381  30.574  -4.308  0.00  0.00     0.002 A 
HETATM   10  H   UNK N   1      28.471  28.583  -7.807  0.00  0.00     0.165 HD
ENDROOT
BRANCH   2  11
HETATM   11  C   UNK N   1      25.265  25.983  -5.691  0.00  0.00     0.076 C 
BRANCH  11  12
HETATM   12  C   UNK N   1      25.776  24.605  -5.270  0.00  0.00     0.177 C 
BRANCH  12  13
HETATM   13  N   UNK N   1      25.378  23.399  -5.978  0.00  0.00    -0.417 N 
HETATM   14  H   UNK N   1      25.910  23.084  -6.790  0.00  0.00     0.150 HD
HETATM   15  H   UNK N   1      24.566  22.867  -5.664  0.00  0.00     0.150 HD
ENDBRANCH  12  13
BRANCH  12  16
HETATM   16  C   UNK N   1      26.709  24.470  -4.107  0.00  0.00     0.163 C 
HETATM   17  O   UNK N   1      26.306  24.004  -3.053  0.00  0.00    -0.648 OA
BRANCH  16  18
HETATM   18  O   UNK N   1      27.993  24.859  -4.215  0.00  0.00    -0.775 OA
HETATM   19  H   UNK N   1      28.203  25.770  -4.275  0.00  0.00     0.167 HD
ENDBRANCH  16  18
ENDBRANCH  12  16
ENDBRANCH  11  12
ENDBRANCH   2  11
TORSDOF 5
ENDMDL
MODEL 9
REMARK VINA RESULT:      -5.4      5.009      8.410
REMARK  5 active torsions:
REMARK  status: ('A' for Active; 'I' for Inactive)
REMARK    1  A    between atoms: O_1  and  C_13 
REMARK    2  A    between atoms: C_8  and  N_4 
REMARK    3  A    between atoms: C_5  and  C_6 
REMARK    4  A    between atoms: C_6  and  C_8 
REMARK    5  A    between atoms: C_8  and  C_13 
ROOT
HETATM    1  N   UNK N   1      30.620  16.865   7.643  0.00  0.00    -0.365 N 
HETATM    2  C   UNK N   1      32.789  17.304   8.046  0.00  0.00    -0.028 A 
HETATM    3  C   UNK N   1      32.586  17.331   6.694  0.00  0.00    -0.002 A 
HETATM    4  C   UNK N   1      31.267  17.062   6.481  0.00  0.00     0.042 A 
HETATM    5  C   UNK N   1      31.552  17.012   8.622  0.00  0.00     0.096 A 
HETATM    6  C   UNK N   1      33.472  17.573   5.647  0.00  0.00     0.014 A 
HETATM    7  C   UNK N   1      30.728  17.014   5.197  0.00  0.00     0.030 A 
HETATM    8  C   UNK N   1      32.963  17.532   4.337  0.00  0.00     0.001 A 
HETATM    9  C   UNK N   1      31.595  17.254   4.113  0.00  0.00     0.002 A 
HETATM   10  H   UNK N   1      29.665  16.656   7.761  0.00  0.00     0.165 HD
ENDROOT
BRANCH   2  11
HETATM   11  C   UNK N   1      34.119  17.553   8.696  0.00  0.00     0.076 C 
BRANCH  11  12
HETATM   12  C   UNK N   1      34.923  16.370   9.236  0.00  0.00     0.177 C 
BRANCH  12  13
HETATM   13  N   UNK N   1      34.996  15.110   8.514  0.00  0.00    -0.417 N 
HETATM   14  H   UNK N   1      34.931  15.100   7.496  0.00  0.00     0.150 HD
HETATM   15  H   UNK N   1      35.113  14.235   9.026  0.00  0.00     0.150 HD
ENDBRANCH  12  13
BRANCH  12  16
HETATM   16  C   UNK N   1      35.659  16.488  10.534  0.00  0.00     0.163 C 
HETATM   17  O   UNK N   1      35.125  17.023  11.492  0.00  0.00    -0.648 OA
BRANCH  16  18
HETATM   18  O   UNK N   1      36.912  16.008  10.652  0.00  0.00    -0.775 OA
HETATM   19  H   UNK N   1      37.464  16.306  11.348  0.00  0.00     0.167 HD
ENDBRANCH  16  18
ENDBRANCH  12  16
ENDBRANCH  11  12
ENDBRANCH   2  11
TORSDOF 5
ENDMDL
