MODEL 1
REMARK VINA RESULT:      -5.6      0.000      0.000
REMARK  6 active torsions:
REMARK  status: ('A' for Active; 'I' for Inactive)
REMARK    1  A    between atoms: O_2  and  C_16 
REMARK    2  A    between atoms: N_3  and  C_10 
REMARK    3  A    between atoms: N_8  and  C_17 
REMARK    4  A    between atoms: C_10  and  C_13 
REMARK    5  A    between atoms: C_11  and  C_12 
REMARK    6  A    between atoms: C_12  and  C_16 
ROOT
HETATM    1  N   UNK N   1      34.764  12.151  14.547  0.00  0.00    -0.332 N 
ATOM      2  HN  UNK N   1      34.193  11.411  14.955  1.00  0.00     0.168 HD
HETATM    3  N   UNK N   1      36.193  13.993  14.827  0.00  0.00    -0.355 N 
ATOM      4  HN  UNK N   1      36.689  14.637  15.443  1.00  0.00     0.166 HD
HETATM    5  C   UNK N   1      35.637  13.274  12.616  0.00  0.00     0.019 A 
HETATM    6  C   UNK N   1      34.857  12.255  13.197  0.00  0.00     0.109 A 
HETATM    7  C   UNK N   1      36.314  14.126  13.482  0.00  0.00     0.102 A 
HETATM    8  C   UNK N   1      35.419  13.016  15.362  0.00  0.00     0.078 A 
HETATM    9  C   UNK N   1      35.293  12.892  16.836  0.00  0.00     0.089 C 
ENDROOT
BRANCH   5  10
HETATM   10  C   UNK N   1      35.703  13.353  11.101  0.00  0.00     0.172 C 
BRANCH  10  11
HETATM   11  N   UNK N   1      34.914  14.237  10.213  0.00  0.00    -0.349 N 
HETATM   12  C   UNK N   1      34.786  15.629  10.124  0.00  0.00     0.021 A 
HETATM   13  C   UNK N   1      33.891  16.067   9.134  0.00  0.00     0.008 A 
HETATM   14  C   UNK N   1      35.471  16.623  10.987  0.00  0.00     0.069 C 
HETATM   15  S   UNK N   1      33.287  14.716   8.427  0.00  0.00    -0.087 SA
HETATM   16  C   UNK N   1      34.116  13.595   9.313  0.00  0.00     0.141 A 
BRANCH  13  17
HETATM   17  C   UNK N   1      33.502  17.469   8.782  0.00  0.00     0.074 C 
BRANCH  17  18
HETATM   18  C   UNK N   1      34.483  18.089   7.802  0.00  0.00     0.169 C 
BRANCH  18  19
HETATM   19  O   UNK N   1      35.170  19.131   8.424  0.00  0.00    -0.401 OA
HETATM   20  H   UNK N   1      34.960  19.503   9.296  0.00  0.00     0.209 HD
ENDBRANCH  18  19
ENDBRANCH  17  18
ENDBRANCH  13  17
ENDBRANCH  10  11
ENDBRANCH   5  10
BRANCH   6  21
HETATM   21  N   UNK N   1      34.163  11.333  12.383  0.00  0.00    -0.385 N 
HETATM   22  H   UNK N   1      33.483  10.741  12.777  0.00  0.00     0.157 HD
HETATM   23  H   UNK N   1      34.361  11.281  11.419  0.00  0.00     0.157 HD
ENDBRANCH   6  21
TORSDOF 6
ENDMDL
MODEL 2
REMARK VINA RESULT:      -5.5      5.319      8.823
REMARK  6 active torsions:
REMARK  status: ('A' for Active; 'I' for Inactive)
REMARK    1  A    between atoms: O_2  and  C_16 
REMARK    2  A    between atoms: N_3  and  C_10 
REMARK    3  A    between atoms: N_8  and  C_17 
REMARK    4  A    between atoms: C_10  and  C_13 
REMARK    5  A    between atoms: C_11  and  C_12 
REMARK    6  A    between atoms: C_12  and  C_16 
ROOT
HETATM    1  N   UNK N   1      27.485  19.255   6.811  0.00  0.00    -0.332 N 
ATOM      2  HN  UNK N   1      26.726  19.827   7.183  1.00  0.00     0.168 HD
HETATM    3  N   UNK N   1      28.718  18.476   4.970  0.00  0.00    -0.355 N 
ATOM      4  HN  UNK N   1      28.882  18.460   3.964  1.00  0.00     0.166 HD
HETATM    5  C   UNK N   1      29.310  17.741   7.167  0.00  0.00     0.019 A 
HETATM    6  C   UNK N   1      28.261  18.540   7.663  0.00  0.00     0.109 A 
HETATM    7  C   UNK N   1      29.519  17.752   5.792  0.00  0.00     0.102 A 
HETATM    8  C   UNK N   1      27.702  19.222   5.472  0.00  0.00     0.078 A 
HETATM    9  C   UNK N   1      26.831  20.002   4.556  0.00  0.00     0.089 C 
ENDROOT
BRANCH   5  10
HETATM   10  C   UNK N   1      30.147  16.954   8.161  0.00  0.00     0.172 C 
BRANCH  10  11
HETATM   11  N   UNK N   1      31.616  17.008   8.339  0.00  0.00    -0.349 N 
HETATM   12  C   UNK N   1      32.550  16.088   8.831  0.00  0.00     0.021 A 
HETATM   13  C   UNK N   1      33.873  16.561   8.852  0.00  0.00     0.008 A 
HETATM   14  C   UNK N   1      32.248  14.727   9.337  0.00  0.00     0.069 C 
HETATM   15  S   UNK N   1      33.823  18.098   8.282  0.00  0.00    -0.087 SA
HETATM   16  C   UNK N   1      32.199  18.192   7.997  0.00  0.00     0.141 A 
BRANCH  13  17
HETATM   17  C   UNK N   1      35.107  15.860   9.328  0.00  0.00     0.074 C 
BRANCH  17  18
HETATM   18  C   UNK N   1      35.545  16.368  10.690  0.00  0.00     0.169 C 
BRANCH  18  19
HETATM   19  O   UNK N   1      36.917  16.172  10.844  0.00  0.00    -0.401 OA
HETATM   20  H   UNK N   1      37.560  16.094  10.121  0.00  0.00     0.209 HD
ENDBRANCH  18  19
ENDBRANCH  17  18
ENDBRANCH  13  17
ENDBRANCH  10  11
ENDBRANCH   5  10
BRANCH   6  21
HETATM   21  N   UNK N   1      28.006  18.604   9.051  0.00  0.00    -0.385 N 
HETATM   22  H   UNK N   1      28.685  18.293   9.692  0.00  0.00     0.157 HD
HETATM   23  H   UNK N   1      27.148  18.961   9.377  0.00  0.00     0.157 HD
ENDBRANCH   6  21
TORSDOF 6
ENDMDL
MODEL 3
REMARK VINA RESULT:      -5.5      5.734      9.053
REMARK  6 active torsions:
REMARK  status: ('A' for Active; 'I' for Inactive)
REMARK    1  A    between atoms: O_2  and  C_16 
REMARK    2  A    between atoms: N_3  and  C_10 
REMARK    3  A    between atoms: N_8  and  C_17 
REMARK    4  A    between atoms: C_10  and  C_13 
REMARK    5  A    between atoms: C_11  and  C_12 
REMARK    6  A    between atoms: C_12  and  C_16 
ROOT
HETATM    1  N   UNK N   1      27.224  19.868   7.772  0.00  0.00    -0.332 N 
ATOM      2  HN  UNK N   1      26.777  20.311   8.574  1.00  0.00     0.168 HD
HETATM    3  N   UNK N   1      27.770  19.894   5.487  0.00  0.00    -0.355 N 
ATOM      4  HN  UNK N   1      27.728  20.353   4.577  1.00  0.00     0.166 HD
HETATM    5  C   UNK N   1      28.487  18.056   6.838  0.00  0.00     0.019 A 
HETATM    6  C   UNK N   1      27.869  18.686   7.935  0.00  0.00     0.109 A 
HETATM    7  C   UNK N   1      28.428  18.715   5.614  0.00  0.00     0.102 A 
HETATM    8  C   UNK N   1      27.164  20.469   6.556  0.00  0.00     0.078 A 
HETATM    9  C   UNK N   1      26.442  21.757   6.397  0.00  0.00     0.089 C 
ENDROOT
BRANCH   5  10
HETATM   10  C   UNK N   1      29.191  16.730   7.071  0.00  0.00     0.172 C 
BRANCH  10  11
HETATM   11  N   UNK N   1      30.650  16.486   7.124  0.00  0.00    -0.349 N 
HETATM   12  C   UNK N   1      31.699  17.122   7.801  0.00  0.00     0.021 A 
HETATM   13  C   UNK N   1      32.968  16.575   7.549  0.00  0.00     0.008 A 
HETATM   14  C   UNK N   1      31.571  18.299   8.695  0.00  0.00     0.069 C 
HETATM   15  S   UNK N   1      32.737  15.345   6.489  0.00  0.00    -0.087 SA
HETATM   16  C   UNK N   1      31.097  15.465   6.339  0.00  0.00     0.141 A 
BRANCH  13  17
HETATM   17  C   UNK N   1      34.296  17.013   8.081  0.00  0.00     0.074 C 
BRANCH  17  18
HETATM   18  C   UNK N   1      34.656  16.272   9.357  0.00  0.00     0.169 C 
BRANCH  18  19
HETATM   19  O   UNK N   1      34.806  17.183  10.402  0.00  0.00    -0.401 OA
HETATM   20  H   UNK N   1      34.165  17.334  11.114  0.00  0.00     0.209 HD
ENDBRANCH  18  19
ENDBRANCH  17  18
ENDBRANCH  13  17
ENDBRANCH  10  11
ENDBRANCH   5  10
BRANCH   6  21
HETATM   21  N   UNK N   1      27.912  18.093   9.217  0.00  0.00    -0.385 N 
HETATM   22  H   UNK N   1      28.505  17.327   9.387  0.00  0.00     0.157 HD
HETATM   23  H   UNK N   1      27.347  18.448   9.942  0.00  0.00     0.157 HD
ENDBRANCH   6  21
TORSDOF 6
ENDMDL
MODEL 4
REMARK VINA RESULT:      -5.4      6.578     10.054
REMARK  6 active torsions:
REMARK  status: ('A' for Active; 'I' for Inactive)
REMARK    1  A    between atoms: O_2  and  C_16 
REMARK    2  A    between atoms: N_3  and  C_10 
REMARK    3  A    between atoms: N_8  and  C_17 
REMARK    4  A    between atoms: C_10  and  C_13 
REMARK    5  A    between atoms: C_11  and  C_12 
REMARK    6  A    between atoms: C_12  and  C_16 
ROOT
HETATM    1  N   UNK N   1      25.915  18.351   5.325  0.00  0.00    -0.332 N 
ATOM      2  HN  UNK N   1      24.998  18.285   5.764  1.00  0.00     0.168 HD
HETATM    3  N   UNK N   1      27.339  19.358   3.751  0.00  0.00    -0.355 N 
ATOM      4  HN  UNK N   1      27.487  20.042   3.008  1.00  0.00     0.166 HD
HETATM    5  C   UNK N   1      28.189  17.610   5.143  0.00  0.00     0.019 A 
HETATM    6  C   UNK N   1      26.916  17.536   5.742  0.00  0.00     0.109 A 
HETATM    7  C   UNK N   1      28.365  18.563   4.145  0.00  0.00     0.102 A 
HETATM    8  C   UNK N   1      26.117  19.253   4.330  0.00  0.00     0.078 A 
HETATM    9  C   UNK N   1      25.003  20.126   3.880  0.00  0.00     0.089 C 
ENDROOT
BRANCH   5  10
HETATM   10  C   UNK N   1      29.274  16.671   5.640  0.00  0.00     0.172 C 
BRANCH  10  11
HETATM   11  N   UNK N   1      30.479  17.028   6.423  0.00  0.00    -0.349 N 
HETATM   12  C   UNK N   1      31.832  17.161   6.082  0.00  0.00     0.021 A 
HETATM   13  C   UNK N   1      32.670  17.498   7.157  0.00  0.00     0.008 A 
HETATM   14  C   UNK N   1      32.415  16.948   4.735  0.00  0.00     0.069 C 
HETATM   15  S   UNK N   1      31.706  17.596   8.481  0.00  0.00    -0.087 SA
HETATM   16  C   UNK N   1      30.267  17.240   7.752  0.00  0.00     0.141 A 
BRANCH  13  17
HETATM   17  C   UNK N   1      34.153  17.697   7.157  0.00  0.00     0.074 C 
BRANCH  17  18
HETATM   18  C   UNK N   1      34.667  18.049   8.543  0.00  0.00     0.169 C 
BRANCH  18  19
HETATM   19  O   UNK N   1      35.341  19.269   8.497  0.00  0.00    -0.401 OA
HETATM   20  H   UNK N   1      35.004  20.112   8.839  0.00  0.00     0.209 HD
ENDBRANCH  18  19
ENDBRANCH  17  18
ENDBRANCH  13  17
ENDBRANCH  10  11
ENDBRANCH   5  10
BRANCH   6  21
HETATM   21  N   UNK N   1      26.668  16.613   6.783  0.00  0.00    -0.385 N 
HETATM   22  H   UNK N   1      25.828  16.659   7.293  0.00  0.00     0.157 HD
HETATM   23  H   UNK N   1      27.338  15.923   6.998  0.00  0.00     0.157 HD
ENDBRANCH   6  21
TORSDOF 6
ENDMDL
MODEL 5
REMARK VINA RESULT:      -5.4      7.181     10.660
REMARK  6 active torsions:
REMARK  status: ('A' for Active; 'I' for Inactive)
REMARK    1  A    between atoms: O_2  and  C_16 
REMARK    2  A    between atoms: N_3  and  C_10 
REMARK    3  A    between atoms: N_8  and  C_17 
REMARK    4  A    between atoms: C_10  and  C_13 
REMARK    5  A    between atoms: C_11  and  C_12 
REMARK    6  A    between atoms: C_12  and  C_16 
ROOT
HETATM    1  N   UNK N   1      25.436  18.661   4.168  0.00  0.00    -0.332 N 
ATOM      2  HN  UNK N   1      24.438  18.531   4.010  1.00  0.00     0.168 HD
HETATM    3  N   UNK N   1      27.423  19.831   3.717  0.00  0.00    -0.355 N 
ATOM      4  HN  UNK N   1      27.914  20.574   3.219  1.00  0.00     0.166 HD
HETATM    5  C   UNK N   1      27.466  18.013   5.269  0.00  0.00     0.019 A 
HETATM    6  C   UNK N   1      26.085  17.851   5.042  0.00  0.00     0.109 A 
HETATM    7  C   UNK N   1      28.104  19.044   4.587  0.00  0.00     0.102 A 
HETATM    8  C   UNK N   1      26.097  19.642   3.501  0.00  0.00     0.078 A 
HETATM    9  C   UNK N   1      25.370  20.508   2.539  0.00  0.00     0.089 C 
ENDROOT
BRANCH   5  10
HETATM   10  C   UNK N   1      28.148  17.076   6.251  0.00  0.00     0.172 C 
BRANCH  10  11
HETATM   11  N   UNK N   1      29.312  17.376   7.116  0.00  0.00    -0.349 N 
HETATM   12  C   UNK N   1      30.644  16.944   7.104  0.00  0.00     0.021 A 
HETATM   13  C   UNK N   1      31.432  17.463   8.144  0.00  0.00     0.008 A 
HETATM   14  C   UNK N   1      31.243  15.995   6.134  0.00  0.00     0.069 C 
HETATM   15  S   UNK N   1      30.442  18.415   9.041  0.00  0.00    -0.087 SA
HETATM   16  C   UNK N   1      29.057  18.209   8.164  0.00  0.00     0.141 A 
BRANCH  13  17
HETATM   17  C   UNK N   1      32.875  17.201   8.443  0.00  0.00     0.074 C 
BRANCH  17  18
HETATM   18  C   UNK N   1      33.760  18.330   7.945  0.00  0.00     0.169 C 
BRANCH  18  19
HETATM   19  O   UNK N   1      34.285  17.997   6.696  0.00  0.00    -0.401 OA
HETATM   20  H   UNK N   1      34.973  17.333   6.533  0.00  0.00     0.209 HD
ENDBRANCH  18  19
ENDBRANCH  17  18
ENDBRANCH  13  17
ENDBRANCH  10  11
ENDBRANCH   5  10
BRANCH   6  21
HETATM   21  N   UNK N   1      25.362  16.845   5.720  0.00  0.00    -0.385 N 
HETATM   22  H   UNK N   1      24.944  17.038   6.590  0.00  0.00     0.157 HD
HETATM   23  H   UNK N   1      25.276  15.948   5.321  0.00  0.00     0.157 HD
ENDBRANCH   6  21
TORSDOF 6
ENDMDL
MODEL 6
REMARK VINA RESULT:      -5.3      3.642      5.884
REMARK  6 active torsions:
REMARK  status: ('A' for Active; 'I' for Inactive)
REMARK    1  A    between atoms: O_2  and  C_16 
REMARK    2  A    between atoms: N_3  and  C_10 
REMARK    3  A    between atoms: N_8  and  C_17 
REMARK    4  A    between atoms: C_10  and  C_13 
REMARK    5  A    between atoms: C_11  and  C_12 
REMARK    6  A    between atoms: C_12  and  C_16 
ROOT
HETATM    1  N   UNK N   1      35.993  11.409  20.563  0.00  0.00    -0.332 N 
ATOM      2  HN  UNK N   1      35.950  11.677  21.546  1.00  0.00     0.168 HD
HETATM    3  N   UNK N   1      36.621   9.859  18.913  0.00  0.00    -0.355 N 
ATOM      4  HN  UNK N   1      37.053   8.971  18.658  1.00  0.00     0.166 HD
HETATM    5  C   UNK N   1      35.523  11.880  18.259  0.00  0.00     0.019 A 
HETATM    6  C   UNK N   1      35.468  12.233  19.622  0.00  0.00     0.109 A 
HETATM    7  C   UNK N   1      36.103  10.655  17.945  0.00  0.00     0.102 A 
HETATM    8  C   UNK N   1      36.574  10.232  20.216  0.00  0.00     0.078 A 
HETATM    9  C   UNK N   1      37.154   9.351  21.262  0.00  0.00     0.089 C 
ENDROOT
BRANCH   5  10
HETATM   10  C   UNK N   1      34.928  12.840  17.243  0.00  0.00     0.172 C 
BRANCH  10  11
HETATM   11  N   UNK N   1      35.167  12.861  15.782  0.00  0.00    -0.349 N 
HETATM   12  C   UNK N   1      36.043  13.592  14.970  0.00  0.00     0.021 A 
HETATM   13  C   UNK N   1      35.926  13.319  13.598  0.00  0.00     0.008 A 
HETATM   14  C   UNK N   1      37.016  14.610  15.436  0.00  0.00     0.069 C 
HETATM   15  S   UNK N   1      34.733  12.203  13.449  0.00  0.00    -0.087 SA
HETATM   16  C   UNK N   1      34.362  12.039  15.050  0.00  0.00     0.141 A 
BRANCH  13  17
HETATM   17  C   UNK N   1      36.682  13.926  12.457  0.00  0.00     0.074 C 
BRANCH  17  18
HETATM   18  C   UNK N   1      35.935  15.104  11.859  0.00  0.00     0.169 C 
BRANCH  18  19
HETATM   19  O   UNK N   1      36.837  15.957  11.223  0.00  0.00    -0.401 OA
HETATM   20  H   UNK N   1      36.633  16.843  10.885  0.00  0.00     0.209 HD
ENDBRANCH  18  19
ENDBRANCH  17  18
ENDBRANCH  13  17
ENDBRANCH  10  11
ENDBRANCH   5  10
BRANCH   6  21
HETATM   21  N   UNK N   1      34.868  13.447  20.023  0.00  0.00    -0.385 N 
HETATM   22  H   UNK N   1      34.266  13.926  19.409  0.00  0.00     0.157 HD
HETATM   23  H   UNK N   1      35.053  13.815  20.918  0.00  0.00     0.157 HD
ENDBRANCH   6  21
TORSDOF 6
ENDMDL
MODEL 7
REMARK VINA RESULT:      -5.3      3.910      6.042
REMARK  6 active torsions:
REMARK  status: ('A' for Active; 'I' for Inactive)
REMARK    1  A    between atoms: O_2  and  C_16 
REMARK    2  A    between atoms: N_3  and  C_10 
REMARK    3  A    between atoms: N_8  and  C_17 
REMARK    4  A    between atoms: C_10  and  C_13 
REMARK    5  A    between atoms: C_11  and  C_12 
REMARK    6  A    between atoms: C_12  and  C_16 
ROOT
HETATM    1  N   UNK N   1      35.147  17.128  10.042  0.00  0.00    -0.332 N 
ATOM      2  HN  UNK N   1      35.511  17.894  10.608  1.00  0.00     0.168 HD
HETATM    3  N   UNK N   1      34.761  14.829   9.753  0.00  0.00    -0.355 N 
ATOM      4  HN  UNK N   1      34.839  13.873  10.099  1.00  0.00     0.166 HD
HETATM    5  C   UNK N   1      34.056  16.354   8.051  0.00  0.00     0.019 A 
HETATM    6  C   UNK N   1      34.560  17.399   8.849  0.00  0.00     0.109 A 
HETATM    7  C   UNK N   1      34.163  15.062   8.557  0.00  0.00     0.102 A 
HETATM    8  C   UNK N   1      35.256  15.852  10.493  0.00  0.00     0.078 A 
HETATM    9  C   UNK N   1      35.914  15.577  11.795  0.00  0.00     0.089 C 
ENDROOT
BRANCH   5  10
HETATM   10  C   UNK N   1      33.415  16.709   6.721  0.00  0.00     0.172 C 
BRANCH  10  11
HETATM   11  N   UNK N   1      31.987  17.005   6.464  0.00  0.00    -0.349 N 
HETATM   12  C   UNK N   1      30.864  17.075   7.297  0.00  0.00     0.021 A 
HETATM   13  C   UNK N   1      29.663  17.367   6.629  0.00  0.00     0.008 A 
HETATM   14  C   UNK N   1      30.850  16.839   8.762  0.00  0.00     0.069 C 
HETATM   15  S   UNK N   1      30.043  17.507   5.039  0.00  0.00    -0.087 SA
HETATM   16  C   UNK N   1      31.666  17.223   5.157  0.00  0.00     0.141 A 
BRANCH  13  17
HETATM   17  C   UNK N   1      28.285  17.496   7.198  0.00  0.00     0.074 C 
BRANCH  17  18
HETATM   18  C   UNK N   1      28.160  18.727   8.079  0.00  0.00     0.169 C 
BRANCH  18  19
HETATM   19  O   UNK N   1      27.514  18.389   9.268  0.00  0.00    -0.401 OA
HETATM   20  H   UNK N   1      26.807  17.730   9.357  0.00  0.00     0.209 HD
ENDBRANCH  18  19
ENDBRANCH  17  18
ENDBRANCH  13  17
ENDBRANCH  10  11
ENDBRANCH   5  10
BRANCH   6  21
HETATM   21  N   UNK N   1      34.461  18.740   8.416  0.00  0.00    -0.385 N 
HETATM   22  H   UNK N   1      35.178  19.137   7.871  0.00  0.00     0.157 HD
HETATM   23  H   UNK N   1      33.674  19.279   8.661  0.00  0.00     0.157 HD
ENDBRANCH   6  21
TORSDOF 6
ENDMDL
MODEL 8
REMARK VINA RESULT:      -5.3     12.059     13.128
REMARK  6 active torsions:
REMARK  status: ('A' for Active; 'I' for Inactive)
REMARK    1  A    between atoms: O_2  and  C_16 
REMARK    2  A    between atoms: N_3  and  C_10 
REMARK    3  A    between atoms: N_8  and  C_17 
REMARK    4  A    between atoms: C_10  and  C_13 
REMARK    5  A    between atoms: C_11  and  C_12 
REMARK    6  A    between atoms: C_12  and  C_16 
ROOT
HETATM    1  N   UNK N   1      23.996  12.598  11.027  0.00  0.00    -0.332 N 
ATOM      2  HN  UNK N   1      24.949  12.622  11.390  1.00  0.00     0.168 HD
HETATM    3  N   UNK N   1      21.717  12.132  11.353  0.00  0.00    -0.355 N 
ATOM      4  HN  UNK N   1      20.963  11.804  11.956  1.00  0.00     0.166 HD
HETATM    5  C   UNK N   1      22.445  12.977   9.238  0.00  0.00     0.019 A 
HETATM    6  C   UNK N   1      23.754  13.009   9.757  0.00  0.00     0.109 A 
HETATM    7  C   UNK N   1      21.436  12.540  10.090  0.00  0.00     0.102 A 
HETATM    8  C   UNK N   1      22.989  12.154  11.822  0.00  0.00     0.078 A 
HETATM    9  C   UNK N   1      23.279  11.696  13.205  0.00  0.00     0.089 C 
ENDROOT
BRANCH   5  10
HETATM   10  C   UNK N   1      22.227  13.441   7.808  0.00  0.00     0.172 C 
BRANCH  10  11
HETATM   11  N   UNK N   1      21.827  14.793   7.355  0.00  0.00    -0.349 N 
HETATM   12  C   UNK N   1      22.463  15.759   6.564  0.00  0.00     0.021 A 
HETATM   13  C   UNK N   1      21.729  16.944   6.394  0.00  0.00     0.008 A 
HETATM   14  C   UNK N   1      23.808  15.635   5.952  0.00  0.00     0.069 C 
HETATM   15  S   UNK N   1      20.338  16.751   7.244  0.00  0.00    -0.087 SA
HETATM   16  C   UNK N   1      20.618  15.225   7.812  0.00  0.00     0.141 A 
BRANCH  13  17
HETATM   17  C   UNK N   1      22.109  18.177   5.637  0.00  0.00     0.074 C 
BRANCH  17  18
HETATM   18  C   UNK N   1      21.172  18.422   4.466  0.00  0.00     0.169 C 
BRANCH  18  19
HETATM   19  O   UNK N   1      21.042  19.794   4.250  0.00  0.00    -0.401 OA
HETATM   20  H   UNK N   1      21.266  20.489   4.889  0.00  0.00     0.209 HD
ENDBRANCH  18  19
ENDBRANCH  17  18
ENDBRANCH  13  17
ENDBRANCH  10  11
ENDBRANCH   5  10
BRANCH   6  21
HETATM   21  N   UNK N   1      24.828  13.468   8.963  0.00  0.00    -0.385 N 
HETATM   22  H   UNK N   1      25.363  12.829   8.440  0.00  0.00     0.157 HD
HETATM   23  H   UNK N   1      25.041  14.429   8.932  0.00  0.00     0.157 HD
ENDBRANCH   6  21
TORSDOF 6
ENDMDL
MODEL 9
REMARK VINA RESULT:      -5.2      1.738      2.638
REMARK  6 active torsions:
REMARK  status: ('A' for Active; 'I' for Inactive)
REMARK    1  A    between atoms: O_2  and  C_16 
REMARK    2  A    between atoms: N_3  and  C_10 
REMARK    3  A    between atoms: N_8  and  C_17 
REMARK    4  A    between atoms: C_10  and  C_13 
REMARK    5  A    between atoms: C_11  and  C_12 
REMARK    6  A    between atoms: C_12  and  C_16 
ROOT
HETATM    1  N   UNK N   1      35.406  12.901  14.567  0.00  0.00    -0.332 N 
ATOM      2  HN  UNK N   1      35.592  13.020  15.563  1.00  0.00     0.168 HD
HETATM    3  N   UNK N   1      34.375  11.704  12.829  0.00  0.00    -0.355 N 
ATOM      4  HN  UNK N   1      33.793  10.925  12.520  1.00  0.00     0.166 HD
HETATM    5  C   UNK N   1      35.686  13.633  12.301  0.00  0.00     0.019 A 
HETATM    6  C   UNK N   1      35.928  13.785  13.680  0.00  0.00     0.109 A 
HETATM    7  C   UNK N   1      34.875  12.571  11.913  0.00  0.00     0.102 A 
HETATM    8  C   UNK N   1      34.640  11.861  14.149  0.00  0.00     0.078 A 
HETATM    9  C   UNK N   1      34.090  10.898  15.137  0.00  0.00     0.089 C 
ENDROOT
BRANCH   5  10
HETATM   10  C   UNK N   1      36.298  14.645  11.347  0.00  0.00     0.172 C 
BRANCH  10  11
HETATM   11  N   UNK N   1      35.639  15.309  10.200  0.00  0.00    -0.349 N 
HETATM   12  C   UNK N   1      35.417  14.920   8.873  0.00  0.00     0.021 A 
HETATM   13  C   UNK N   1      34.761  15.883   8.088  0.00  0.00     0.008 A 
HETATM   14  C   UNK N   1      35.839  13.637   8.260  0.00  0.00     0.069 C 
HETATM   15  S   UNK N   1      34.502  17.175   9.065  0.00  0.00    -0.087 SA
HETATM   16  C   UNK N   1      35.177  16.568  10.445  0.00  0.00     0.141 A 
BRANCH  13  17
HETATM   17  C   UNK N   1      34.386  15.811   6.641  0.00  0.00     0.074 C 
BRANCH  17  18
HETATM   18  C   UNK N   1      33.392  16.897   6.269  0.00  0.00     0.169 C 
BRANCH  18  19
HETATM   19  O   UNK N   1      34.066  17.963   5.672  0.00  0.00    -0.401 OA
HETATM   20  H   UNK N   1      34.902  17.898   5.184  0.00  0.00     0.209 HD
ENDBRANCH  18  19
ENDBRANCH  17  18
ENDBRANCH  13  17
ENDBRANCH  10  11
ENDBRANCH   5  10
BRANCH   6  21
HETATM   21  N   UNK N   1      36.717  14.856  14.154  0.00  0.00    -0.385 N 
HETATM   22  H   UNK N   1      36.703  15.094  15.109  0.00  0.00     0.157 HD
HETATM   23  H   UNK N   1      37.280  15.367  13.528  0.00  0.00     0.157 HD
ENDBRANCH   6  21
TORSDOF 6
ENDMDL
