MODEL 1
REMARK VINA RESULT:      -7.2      0.000      0.000
REMARK  6 active torsions:
REMARK  status: ('A' for Active; 'I' for Inactive)
REMARK    1  A    between atoms: C_24  and  O_1 
REMARK    2  A    between atoms: C_3  and  C_8 
REMARK    3  A    between atoms: C_8  and  C_14 
REMARK    4  A    between atoms: C_15  and  C_17 
REMARK    5  A    between atoms: C_16  and  C_18 
REMARK    6  A    between atoms: C_18  and  C_20 
ROOT
HETATM    1  C   UNK N   1      27.145  25.047  -5.587  0.00  0.00    -0.032 C 
HETATM    2  C   UNK N   1      28.487  24.431  -5.160  0.00  0.00     0.002 C 
HETATM    3  C   UNK N   1      27.155  26.316  -4.717  0.00  0.00     0.023 C 
HETATM    4  C   UNK N   1      28.416  24.552  -3.627  0.00  0.00     0.007 C 
HETATM    5  C   UNK N   1      27.429  25.715  -3.344  0.00  0.00     0.010 C 
HETATM    6  C   UNK N   1      26.996  25.447  -7.059  0.00  0.00     0.010 C 
HETATM    7  C   UNK N   1      25.919  27.171  -4.966  0.00  0.00    -0.075 C 
HETATM    8  C   UNK N   1      25.977  24.098  -5.225  0.00  0.00     0.016 C 
HETATM    9  C   UNK N   1      25.720  26.299  -7.298  0.00  0.00     0.005 C 
HETATM   10  C   UNK N   1      24.955  26.674  -6.010  0.00  0.00     0.034 C 
HETATM   11  C   UNK N   1      25.698  28.422  -4.535  0.00  0.00     0.004 C 
ENDROOT
BRANCH  11  12
HETATM   12  C   UNK N   1      26.322  29.470  -3.678  0.00  0.00     0.008 C 
HETATM   13  C   UNK N   1      27.559  29.893  -3.392  0.00  0.00    -0.050 C 
HETATM   14  C   UNK N   1      27.695  30.911  -2.299  0.00  0.00     0.070 C 
HETATM   15  C   UNK N   1      28.807  29.288  -3.875  0.00  0.00    -0.061 C 
HETATM   16  C   UNK N   1      28.525  30.333  -1.153  0.00  0.00     0.122 C 
HETATM   17  C   UNK N   1      29.884  29.838  -1.672  0.00  0.00     0.036 C 
HETATM   18  C   UNK N   1      29.734  28.801  -2.797  0.00  0.00     0.041 C 
HETATM   19  C   UNK N   1      29.387  29.867  -4.926  0.00  0.00     0.019 C 
BRANCH  16  20
HETATM   20  O   UNK N   1      27.830  29.292  -0.532  0.00  0.00    -0.395 OA
HETATM   21  H   UNK N   1      27.630  28.344  -0.497  0.00  0.00     0.210 HD
ENDBRANCH  16  20
ENDBRANCH  11  12
BRANCH   2  22
HETATM   22  C   UNK N   1      28.862  23.024  -5.681  0.00  0.00     0.008 C 
HETATM   23  C   UNK N   1      29.817  22.323  -4.727  0.00  0.00     0.014 C 
BRANCH  22  24
HETATM   24  C   UNK N   1      29.411  23.008  -7.081  0.00  0.00    -0.026 C 
HETATM   25  C   UNK N   1      29.057  22.123  -8.029  0.00  0.00    -0.026 C 
BRANCH  25  26
HETATM   26  C   UNK N   1      28.052  21.007  -7.864  0.00  0.00     0.007 C 
HETATM   27  C   UNK N   1      28.736  19.653  -8.000  0.00  0.00     0.014 C 
BRANCH  26  28
HETATM   28  C   UNK N   1      26.836  21.133  -8.791  0.00  0.00    -0.015 C 
HETATM   29  C   UNK N   1      26.939  22.374  -9.661  0.00  0.00     0.010 C 
HETATM   30  C   UNK N   1      25.549  21.228  -7.989  0.00  0.00     0.010 C 
ENDBRANCH  26  28
ENDBRANCH  25  26
ENDBRANCH  22  24
ENDBRANCH   2  22
TORSDOF 6
ENDMDL
MODEL 2
REMARK VINA RESULT:      -7.2     24.891     27.651
REMARK  6 active torsions:
REMARK  status: ('A' for Active; 'I' for Inactive)
REMARK    1  A    between atoms: C_24  and  O_1 
REMARK    2  A    between atoms: C_3  and  C_8 
REMARK    3  A    between atoms: C_8  and  C_14 
REMARK    4  A    between atoms: C_15  and  C_17 
REMARK    5  A    between atoms: C_16  and  C_18 
REMARK    6  A    between atoms: C_18  and  C_20 
ROOT
HETATM    1  C   UNK N   1      35.807  11.755  15.332  0.00  0.00    -0.032 C 
HETATM    2  C   UNK N   1      36.324  10.555  14.523  0.00  0.00     0.002 C 
HETATM    3  C   UNK N   1      35.695  11.102  16.721  0.00  0.00     0.023 C 
HETATM    4  C   UNK N   1      35.380   9.431  14.989  0.00  0.00     0.007 C 
HETATM    5  C   UNK N   1      34.867   9.867  16.386  0.00  0.00     0.010 C 
HETATM    6  C   UNK N   1      36.722  12.982  15.426  0.00  0.00     0.010 C 
HETATM    7  C   UNK N   1      35.224  12.101  17.769  0.00  0.00    -0.075 C 
HETATM    8  C   UNK N   1      34.433  12.219  14.791  0.00  0.00     0.016 C 
HETATM    9  C   UNK N   1      36.214  13.999  16.484  0.00  0.00     0.005 C 
HETATM   10  C   UNK N   1      34.996  13.513  17.301  0.00  0.00     0.034 C 
HETATM   11  C   UNK N   1      35.204  11.931  19.100  0.00  0.00     0.004 C 
ENDROOT
BRANCH  11  12
HETATM   12  C   UNK N   1      35.475  10.888  20.130  0.00  0.00     0.008 C 
HETATM   13  C   UNK N   1      34.888   9.768  20.569  0.00  0.00    -0.050 C 
HETATM   14  C   UNK N   1      35.477   9.122  21.788  0.00  0.00     0.070 C 
HETATM   15  C   UNK N   1      33.591   9.246  20.121  0.00  0.00    -0.061 C 
HETATM   16  C   UNK N   1      34.448   9.114  22.918  0.00  0.00     0.122 C 
HETATM   17  C   UNK N   1      33.151   8.432  22.457  0.00  0.00     0.036 C 
HETATM   18  C   UNK N   1      32.559   9.095  21.202  0.00  0.00     0.041 C 
HETATM   19  C   UNK N   1      33.618   8.280  19.202  0.00  0.00     0.019 C 
BRANCH  16  20
HETATM   20  O   UNK N   1      34.189  10.420  23.345  0.00  0.00    -0.395 OA
HETATM   21  H   UNK N   1      34.490  11.340  23.401  0.00  0.00     0.210 HD
ENDBRANCH  16  20
ENDBRANCH  11  12
BRANCH   2  22
HETATM   22  C   UNK N   1      36.459  10.692  12.988  0.00  0.00     0.008 C 
HETATM   23  C   UNK N   1      36.685   9.337  12.335  0.00  0.00     0.014 C 
BRANCH  22  24
HETATM   24  C   UNK N   1      37.511  11.671  12.545  0.00  0.00    -0.026 C 
HETATM   25  C   UNK N   1      37.292  12.694  11.700  0.00  0.00    -0.026 C 
BRANCH  25  26
HETATM   26  C   UNK N   1      35.968  13.044  11.061  0.00  0.00     0.007 C 
HETATM   27  C   UNK N   1      36.174  13.462   9.611  0.00  0.00     0.014 C 
BRANCH  26  28
HETATM   28  C   UNK N   1      35.161  14.083  11.850  0.00  0.00    -0.015 C 
HETATM   29  C   UNK N   1      34.230  14.861  10.936  0.00  0.00     0.010 C 
HETATM   30  C   UNK N   1      36.081  15.077  12.538  0.00  0.00     0.010 C 
ENDBRANCH  26  28
ENDBRANCH  25  26
ENDBRANCH  22  24
ENDBRANCH   2  22
TORSDOF 6
ENDMDL
MODEL 3
REMARK VINA RESULT:      -7.1     12.911     15.838
REMARK  6 active torsions:
REMARK  status: ('A' for Active; 'I' for Inactive)
REMARK    1  A    between atoms: C_24  and  O_1 
REMARK    2  A    between atoms: C_3  and  C_8 
REMARK    3  A    between atoms: C_8  and  C_14 
REMARK    4  A    between atoms: C_15  and  C_17 
REMARK    5  A    between atoms: C_16  and  C_18 
REMARK    6  A    between atoms: C_18  and  C_20 
ROOT
HETATM    1  C   UNK N   1      29.851  16.932   5.278  0.00  0.00    -0.032 C 
HETATM    2  C   UNK N   1      28.816  16.415   6.290  0.00  0.00     0.002 C 
HETATM    3  C   UNK N   1      31.135  16.742   6.103  0.00  0.00     0.023 C 
HETATM    4  C   UNK N   1      29.249  17.134   7.580  0.00  0.00     0.007 C 
HETATM    5  C   UNK N   1      30.753  17.463   7.390  0.00  0.00     0.010 C 
HETATM    6  C   UNK N   1      29.983  16.163   3.958  0.00  0.00     0.010 C 
HETATM    7  C   UNK N   1      32.370  17.153   5.312  0.00  0.00    -0.075 C 
HETATM    8  C   UNK N   1      29.583  18.419   4.945  0.00  0.00     0.016 C 
HETATM    9  C   UNK N   1      31.236  16.610   3.155  0.00  0.00     0.005 C 
HETATM   10  C   UNK N   1      32.143  17.615   3.898  0.00  0.00     0.034 C 
HETATM   11  C   UNK N   1      33.653  16.938   5.643  0.00  0.00     0.004 C 
ENDROOT
BRANCH  11  12
HETATM   12  C   UNK N   1      34.477  16.386   6.756  0.00  0.00     0.008 C 
HETATM   13  C   UNK N   1      34.327  15.481   7.730  0.00  0.00    -0.050 C 
HETATM   14  C   UNK N   1      35.424  15.388   8.748  0.00  0.00     0.070 C 
HETATM   15  C   UNK N   1      33.095  14.743   8.034  0.00  0.00    -0.061 C 
HETATM   16  C   UNK N   1      34.879  15.742  10.131  0.00  0.00     0.122 C 
HETATM   17  C   UNK N   1      33.675  14.851  10.477  0.00  0.00     0.036 C 
HETATM   18  C   UNK N   1      32.559  14.947   9.423  0.00  0.00     0.041 C 
HETATM   19  C   UNK N   1      33.001  13.504   7.550  0.00  0.00     0.019 C 
BRANCH  16  20
HETATM   20  O   UNK N   1      34.518  17.091  10.177  0.00  0.00    -0.395 OA
HETATM   21  H   UNK N   1      34.805  18.017  10.200  0.00  0.00     0.210 HD
ENDBRANCH  16  20
ENDBRANCH  11  12
BRANCH   2  22
HETATM   22  C   UNK N   1      27.312  16.545   5.951  0.00  0.00     0.008 C 
HETATM   23  C   UNK N   1      26.470  15.639   6.836  0.00  0.00     0.014 C 
BRANCH  22  24
HETATM   24  C   UNK N   1      26.982  16.317   4.501  0.00  0.00    -0.026 C 
HETATM   25  C   UNK N   1      26.245  17.151   3.747  0.00  0.00    -0.026 C 
BRANCH  25  26
HETATM   26  C   UNK N   1      25.631  18.452   4.211  0.00  0.00     0.007 C 
HETATM   27  C   UNK N   1      24.135  18.464   3.924  0.00  0.00     0.014 C 
BRANCH  26  28
HETATM   28  C   UNK N   1      26.335  19.696   3.653  0.00  0.00    -0.015 C 
HETATM   29  C   UNK N   1      26.707  20.659   4.767  0.00  0.00     0.010 C 
HETATM   30  C   UNK N   1      25.437  20.434   2.674  0.00  0.00     0.010 C 
ENDBRANCH  26  28
ENDBRANCH  25  26
ENDBRANCH  22  24
ENDBRANCH   2  22
TORSDOF 6
ENDMDL
MODEL 4
REMARK VINA RESULT:      -7.0      2.750      7.377
REMARK  6 active torsions:
REMARK  status: ('A' for Active; 'I' for Inactive)
REMARK    1  A    between atoms: C_24  and  O_1 
REMARK    2  A    between atoms: C_3  and  C_8 
REMARK    3  A    between atoms: C_8  and  C_14 
REMARK    4  A    between atoms: C_15  and  C_17 
REMARK    5  A    between atoms: C_16  and  C_18 
REMARK    6  A    between atoms: C_18  and  C_20 
ROOT
HETATM    1  C   UNK N   1      27.201  23.762  -7.811  0.00  0.00    -0.032 C 
HETATM    2  C   UNK N   1      27.641  25.131  -7.269  0.00  0.00     0.002 C 
HETATM    3  C   UNK N   1      28.425  22.919  -7.409  0.00  0.00     0.023 C 
HETATM    4  C   UNK N   1      29.089  25.223  -7.784  0.00  0.00     0.007 C 
HETATM    5  C   UNK N   1      29.551  23.758  -7.999  0.00  0.00     0.010 C 
HETATM    6  C   UNK N   1      25.940  23.140  -7.201  0.00  0.00     0.010 C 
HETATM    7  C   UNK N   1      28.247  21.458  -7.801  0.00  0.00    -0.075 C 
HETATM    8  C   UNK N   1      27.013  23.824  -9.346  0.00  0.00     0.016 C 
HETATM    9  C   UNK N   1      25.764  21.657  -7.628  0.00  0.00     0.005 C 
HETATM   10  C   UNK N   1      26.941  21.088  -8.450  0.00  0.00     0.034 C 
HETATM   11  C   UNK N   1      29.016  20.421  -7.434  0.00  0.00     0.004 C 
ENDROOT
BRANCH  11  12
HETATM   12  C   UNK N   1      30.268  20.128  -6.678  0.00  0.00     0.008 C 
HETATM   13  C   UNK N   1      30.937  20.658  -5.648  0.00  0.00    -0.050 C 
HETATM   14  C   UNK N   1      32.289  20.083  -5.345  0.00  0.00     0.070 C 
HETATM   15  C   UNK N   1      30.584  21.894  -4.939  0.00  0.00    -0.061 C 
HETATM   16  C   UNK N   1      33.360  21.160  -5.518  0.00  0.00     0.122 C 
HETATM   17  C   UNK N   1      33.031  22.386  -4.651  0.00  0.00     0.036 C 
HETATM   18  C   UNK N   1      31.641  22.963  -4.962  0.00  0.00     0.041 C 
HETATM   19  C   UNK N   1      29.915  21.760  -3.794  0.00  0.00     0.019 C 
BRANCH  16  20
HETATM   20  O   UNK N   1      33.464  21.526  -6.863  0.00  0.00    -0.395 OA
HETATM   21  H   UNK N   1      34.008  21.904  -7.571  0.00  0.00     0.210 HD
ENDBRANCH  16  20
ENDBRANCH  11  12
BRANCH   2  22
HETATM   22  C   UNK N   1      26.767  26.370  -7.573  0.00  0.00     0.008 C 
HETATM   23  C   UNK N   1      27.565  27.655  -7.420  0.00  0.00     0.014 C 
BRANCH  22  24
HETATM   24  C   UNK N   1      25.496  26.441  -6.772  0.00  0.00    -0.026 C 
HETATM   25  C   UNK N   1      25.428  26.303  -5.436  0.00  0.00    -0.026 C 
BRANCH  25  26
HETATM   26  C   UNK N   1      26.600  26.064  -4.512  0.00  0.00     0.007 C 
HETATM   27  C   UNK N   1      26.447  24.727  -3.798  0.00  0.00     0.014 C 
BRANCH  26  28
HETATM   28  C   UNK N   1      26.854  27.216  -3.531  0.00  0.00    -0.015 C 
HETATM   29  C   UNK N   1      25.823  28.318  -3.705  0.00  0.00     0.010 C 
HETATM   30  C   UNK N   1      28.230  27.821  -3.749  0.00  0.00     0.010 C 
ENDBRANCH  26  28
ENDBRANCH  25  26
ENDBRANCH  22  24
ENDBRANCH   2  22
TORSDOF 6
ENDMDL
MODEL 5
REMARK VINA RESULT:      -7.0     19.263     22.447
REMARK  6 active torsions:
REMARK  status: ('A' for Active; 'I' for Inactive)
REMARK    1  A    between atoms: C_24  and  O_1 
REMARK    2  A    between atoms: C_3  and  C_8 
REMARK    3  A    between atoms: C_8  and  C_14 
REMARK    4  A    between atoms: C_15  and  C_17 
REMARK    5  A    between atoms: C_16  and  C_18 
REMARK    6  A    between atoms: C_18  and  C_20 
ROOT
HETATM    1  C   UNK N   1      35.493  12.528  11.588  0.00  0.00    -0.032 C 
HETATM    2  C   UNK N   1      34.645  11.247  11.652  0.00  0.00     0.002 C 
HETATM    3  C   UNK N   1      35.145  12.996  10.164  0.00  0.00     0.023 C 
HETATM    4  C   UNK N   1      34.982  10.579  10.307  0.00  0.00     0.007 C 
HETATM    5  C   UNK N   1      35.438  11.728   9.371  0.00  0.00     0.010 C 
HETATM    6  C   UNK N   1      35.150  13.645  12.581  0.00  0.00     0.010 C 
HETATM    7  C   UNK N   1      35.838  14.310   9.825  0.00  0.00    -0.075 C 
HETATM    8  C   UNK N   1      36.995  12.190  11.743  0.00  0.00     0.016 C 
HETATM    9  C   UNK N   1      35.882  14.970  12.233  0.00  0.00     0.005 C 
HETATM   10  C   UNK N   1      36.678  14.928  10.910  0.00  0.00     0.034 C 
HETATM   11  C   UNK N   1      35.610  15.095   8.761  0.00  0.00     0.004 C 
ENDROOT
BRANCH  11  12
HETATM   12  C   UNK N   1      34.806  15.128   7.507  0.00  0.00     0.008 C 
HETATM   13  C   UNK N   1      33.734  15.783   7.047  0.00  0.00    -0.050 C 
HETATM   14  C   UNK N   1      33.175  15.335   5.729  0.00  0.00     0.070 C 
HETATM   15  C   UNK N   1      32.914  16.731   7.811  0.00  0.00    -0.061 C 
HETATM   16  C   UNK N   1      31.747  14.824   5.918  0.00  0.00     0.122 C 
HETATM   17  C   UNK N   1      30.879  15.898   6.594  0.00  0.00     0.036 C 
HETATM   18  C   UNK N   1      31.464  16.356   7.940  0.00  0.00     0.041 C 
HETATM   19  C   UNK N   1      33.166  18.027   7.628  0.00  0.00     0.019 C 
BRANCH  16  20
HETATM   20  O   UNK N   1      31.751  13.650   6.676  0.00  0.00    -0.395 OA
HETATM   21  H   UNK N   1      32.218  13.084   7.311  0.00  0.00     0.210 HD
ENDBRANCH  16  20
ENDBRANCH  11  12
BRANCH   2  22
HETATM   22  C   UNK N   1      34.782  10.324  12.886  0.00  0.00     0.008 C 
HETATM   23  C   UNK N   1      34.818   8.860  12.474  0.00  0.00     0.014 C 
BRANCH  22  24
HETATM   24  C   UNK N   1      33.736  10.546  13.944  0.00  0.00    -0.026 C 
HETATM   25  C   UNK N   1      33.970  11.120  15.138  0.00  0.00    -0.026 C 
BRANCH  25  26
HETATM   26  C   UNK N   1      35.303  11.644  15.620  0.00  0.00     0.007 C 
HETATM   27  C   UNK N   1      35.950  10.648  16.574  0.00  0.00     0.014 C 
BRANCH  26  28
HETATM   28  C   UNK N   1      35.228  13.053  16.223  0.00  0.00    -0.015 C 
HETATM   29  C   UNK N   1      36.462  13.865  15.870  0.00  0.00     0.010 C 
HETATM   30  C   UNK N   1      35.123  12.990  17.737  0.00  0.00     0.010 C 
ENDBRANCH  26  28
ENDBRANCH  25  26
ENDBRANCH  22  24
ENDBRANCH   2  22
TORSDOF 6
ENDMDL
MODEL 6
REMARK VINA RESULT:      -7.0     18.475     21.385
REMARK  6 active torsions:
REMARK  status: ('A' for Active; 'I' for Inactive)
REMARK    1  A    between atoms: C_24  and  O_1 
REMARK    2  A    between atoms: C_3  and  C_8 
REMARK    3  A    between atoms: C_8  and  C_14 
REMARK    4  A    between atoms: C_15  and  C_17 
REMARK    5  A    between atoms: C_16  and  C_18 
REMARK    6  A    between atoms: C_18  and  C_20 
ROOT
HETATM    1  C   UNK N   1      34.262  14.924   9.257  0.00  0.00    -0.032 C 
HETATM    2  C   UNK N   1      33.778  16.381   9.324  0.00  0.00     0.002 C 
HETATM    3  C   UNK N   1      34.887  14.795  10.657  0.00  0.00     0.023 C 
HETATM    4  C   UNK N   1      35.013  17.097   9.899  0.00  0.00     0.007 C 
HETATM    5  C   UNK N   1      35.808  16.010  10.667  0.00  0.00     0.010 C 
HETATM    6  C   UNK N   1      33.193  13.839   9.083  0.00  0.00     0.010 C 
HETATM    7  C   UNK N   1      35.435  13.394  10.896  0.00  0.00    -0.075 C 
HETATM    8  C   UNK N   1      35.309  14.754   8.130  0.00  0.00     0.016 C 
HETATM    9  C   UNK N   1      33.774  12.416   9.308  0.00  0.00     0.005 C 
HETATM   10  C   UNK N   1      35.243  12.397   9.785  0.00  0.00     0.034 C 
HETATM   11  C   UNK N   1      35.864  12.878  12.058  0.00  0.00     0.004 C 
ENDROOT
BRANCH  11  12
HETATM   12  C   UNK N   1      36.103  13.277  13.474  0.00  0.00     0.008 C 
HETATM   13  C   UNK N   1      36.341  12.661  14.638  0.00  0.00    -0.050 C 
HETATM   14  C   UNK N   1      36.348  13.515  15.871  0.00  0.00     0.070 C 
HETATM   15  C   UNK N   1      36.359  11.209  14.854  0.00  0.00    -0.061 C 
HETATM   16  C   UNK N   1      35.232  13.069  16.816  0.00  0.00     0.122 C 
HETATM   17  C   UNK N   1      35.366  11.571  17.134  0.00  0.00     0.036 C 
HETATM   18  C   UNK N   1      35.366  10.705  15.863  0.00  0.00     0.041 C 
HETATM   19  C   UNK N   1      37.554  10.618  14.867  0.00  0.00     0.019 C 
BRANCH  16  20
HETATM   20  O   UNK N   1      33.984  13.340  16.250  0.00  0.00    -0.395 OA
HETATM   21  H   UNK N   1      33.477  13.597  15.464  0.00  0.00     0.210 HD
ENDBRANCH  16  20
ENDBRANCH  11  12
BRANCH   2  22
HETATM   22  C   UNK N   1      33.189  17.031   8.049  0.00  0.00     0.008 C 
HETATM   23  C   UNK N   1      34.025  18.221   7.604  0.00  0.00     0.014 C 
BRANCH  22  24
HETATM   24  C   UNK N   1      31.741  17.420   8.166  0.00  0.00    -0.026 C 
HETATM   25  C   UNK N   1      30.807  17.171   7.231  0.00  0.00    -0.026 C 
BRANCH  25  26
HETATM   26  C   UNK N   1      31.039  16.459   5.919  0.00  0.00     0.007 C 
HETATM   27  C   UNK N   1      30.048  16.945   4.869  0.00  0.00     0.014 C 
BRANCH  26  28
HETATM   28  C   UNK N   1      31.043  14.929   6.042  0.00  0.00    -0.015 C 
HETATM   29  C   UNK N   1      32.357  14.345   5.552  0.00  0.00     0.010 C 
HETATM   30  C   UNK N   1      29.921  14.316   5.221  0.00  0.00     0.010 C 
ENDBRANCH  26  28
ENDBRANCH  25  26
ENDBRANCH  22  24
ENDBRANCH   2  22
TORSDOF 6
ENDMDL
MODEL 7
REMARK VINA RESULT:      -6.9      2.777      8.363
REMARK  6 active torsions:
REMARK  status: ('A' for Active; 'I' for Inactive)
REMARK    1  A    between atoms: C_24  and  O_1 
REMARK    2  A    between atoms: C_3  and  C_8 
REMARK    3  A    between atoms: C_8  and  C_14 
REMARK    4  A    between atoms: C_15  and  C_17 
REMARK    5  A    between atoms: C_16  and  C_18 
REMARK    6  A    between atoms: C_18  and  C_20 
ROOT
HETATM    1  C   UNK N   1      28.307  24.956  -4.793  0.00  0.00    -0.032 C 
HETATM    2  C   UNK N   1      27.530  25.498  -6.003  0.00  0.00     0.002 C 
HETATM    3  C   UNK N   1      28.791  23.617  -5.376  0.00  0.00     0.023 C 
HETATM    4  C   UNK N   1      26.701  24.271  -6.421  0.00  0.00     0.007 C 
HETATM    5  C   UNK N   1      27.476  23.039  -5.885  0.00  0.00     0.010 C 
HETATM    6  C   UNK N   1      29.520  25.766  -4.320  0.00  0.00     0.010 C 
HETATM    7  C   UNK N   1      29.648  22.852  -4.376  0.00  0.00    -0.075 C 
HETATM    8  C   UNK N   1      27.358  24.760  -3.586  0.00  0.00     0.016 C 
HETATM    9  C   UNK N   1      30.370  24.979  -3.285  0.00  0.00     0.005 C 
HETATM   10  C   UNK N   1      29.904  23.524  -3.054  0.00  0.00     0.034 C 
HETATM   11  C   UNK N   1      30.387  21.757  -4.612  0.00  0.00     0.004 C 
ENDROOT
BRANCH  11  12
HETATM   12  C   UNK N   1      30.690  20.787  -5.702  0.00  0.00     0.008 C 
HETATM   13  C   UNK N   1      30.697  20.787  -7.040  0.00  0.00    -0.050 C 
HETATM   14  C   UNK N   1      30.919  19.470  -7.721  0.00  0.00     0.070 C 
HETATM   15  C   UNK N   1      30.275  21.900  -7.901  0.00  0.00    -0.061 C 
HETATM   16  C   UNK N   1      29.692  19.105  -8.558  0.00  0.00     0.122 C 
HETATM   17  C   UNK N   1      29.364  20.234  -9.547  0.00  0.00     0.036 C 
HETATM   18  C   UNK N   1      29.146  21.582  -8.841  0.00  0.00     0.041 C 
HETATM   19  C   UNK N   1      31.239  22.680  -8.390  0.00  0.00     0.019 C 
BRANCH  16  20
HETATM   20  O   UNK N   1      28.599  18.852  -7.724  0.00  0.00    -0.395 OA
HETATM   21  H   UNK N   1      27.995  19.179  -7.041  0.00  0.00     0.210 HD
ENDBRANCH  16  20
ENDBRANCH  11  12
BRANCH   2  22
HETATM   22  C   UNK N   1      26.717  26.804  -5.844  0.00  0.00     0.008 C 
HETATM   23  C   UNK N   1      25.307  26.642  -6.389  0.00  0.00     0.014 C 
BRANCH  22  24
HETATM   24  C   UNK N   1      27.375  28.019  -6.440  0.00  0.00    -0.026 C 
HETATM   25  C   UNK N   1      27.565  29.180  -5.789  0.00  0.00    -0.026 C 
BRANCH  25  26
HETATM   26  C   UNK N   1      27.166  29.466  -4.360  0.00  0.00     0.007 C 
HETATM   27  C   UNK N   1      26.814  30.939  -4.193  0.00  0.00     0.014 C 
BRANCH  26  28
HETATM   28  C   UNK N   1      28.201  29.001  -3.328  0.00  0.00    -0.015 C 
HETATM   29  C   UNK N   1      27.923  29.607  -1.963  0.00  0.00     0.010 C 
HETATM   30  C   UNK N   1      29.604  29.407  -3.746  0.00  0.00     0.010 C 
ENDBRANCH  26  28
ENDBRANCH  25  26
ENDBRANCH  22  24
ENDBRANCH   2  22
TORSDOF 6
ENDMDL
MODEL 8
REMARK VINA RESULT:      -6.8     15.135     17.974
REMARK  6 active torsions:
REMARK  status: ('A' for Active; 'I' for Inactive)
REMARK    1  A    between atoms: C_24  and  O_1 
REMARK    2  A    between atoms: C_3  and  C_8 
REMARK    3  A    between atoms: C_8  and  C_14 
REMARK    4  A    between atoms: C_15  and  C_17 
REMARK    5  A    between atoms: C_16  and  C_18 
REMARK    6  A    between atoms: C_18  and  C_20 
ROOT
HETATM    1  C   UNK N   1      31.283  16.484   6.885  0.00  0.00    -0.032 C 
HETATM    2  C   UNK N   1      30.097  17.127   7.621  0.00  0.00     0.002 C 
HETATM    3  C   UNK N   1      32.310  16.451   8.030  0.00  0.00     0.023 C 
HETATM    4  C   UNK N   1      30.775  18.304   8.344  0.00  0.00     0.007 C 
HETATM    5  C   UNK N   1      32.266  17.903   8.490  0.00  0.00     0.010 C 
HETATM    6  C   UNK N   1      31.085  15.062   6.347  0.00  0.00     0.010 C 
HETATM    7  C   UNK N   1      33.618  15.809   7.586  0.00  0.00    -0.075 C 
HETATM    8  C   UNK N   1      31.742  17.383   5.712  0.00  0.00     0.016 C 
HETATM    9  C   UNK N   1      32.425  14.431   5.878  0.00  0.00     0.005 C 
HETATM   10  C   UNK N   1      33.671  15.296   6.172  0.00  0.00     0.034 C 
HETATM   11  C   UNK N   1      34.647  15.442   8.365  0.00  0.00     0.004 C 
ENDROOT
BRANCH  11  12
HETATM   12  C   UNK N   1      35.090  15.500   9.788  0.00  0.00     0.008 C 
HETATM   13  C   UNK N   1      36.012  14.903  10.551  0.00  0.00    -0.050 C 
HETATM   14  C   UNK N   1      35.962  15.183  12.024  0.00  0.00     0.070 C 
HETATM   15  C   UNK N   1      36.912  13.824  10.126  0.00  0.00    -0.061 C 
HETATM   16  C   UNK N   1      35.693  13.886  12.789  0.00  0.00     0.122 C 
HETATM   17  C   UNK N   1      36.741  12.823  12.425  0.00  0.00     0.036 C 
HETATM   18  C   UNK N   1      36.790  12.549  10.913  0.00  0.00     0.041 C 
HETATM   19  C   UNK N   1      38.149  14.176   9.775  0.00  0.00     0.019 C 
BRANCH  16  20
HETATM   20  O   UNK N   1      34.405  13.421  12.511  0.00  0.00    -0.395 OA
HETATM   21  H   UNK N   1      33.699  12.788  12.715  0.00  0.00     0.210 HD
ENDBRANCH  16  20
ENDBRANCH  11  12
BRANCH   2  22
HETATM   22  C   UNK N   1      28.833  17.505   6.813  0.00  0.00     0.008 C 
HETATM   23  C   UNK N   1      28.169  18.748   7.384  0.00  0.00     0.014 C 
BRANCH  22  24
HETATM   24  C   UNK N   1      27.832  16.391   6.673  0.00  0.00    -0.026 C 
HETATM   25  C   UNK N   1      27.284  16.001   5.509  0.00  0.00    -0.026 C 
BRANCH  25  26
HETATM   26  C   UNK N   1      27.577  16.596   4.151  0.00  0.00     0.007 C 
HETATM   27  C   UNK N   1      26.298  17.132   3.520  0.00  0.00     0.014 C 
BRANCH  26  28
HETATM   28  C   UNK N   1      28.327  15.642   3.211  0.00  0.00    -0.015 C 
HETATM   29  C   UNK N   1      28.500  14.274   3.847  0.00  0.00     0.010 C 
HETATM   30  C   UNK N   1      29.706  16.184   2.877  0.00  0.00     0.010 C 
ENDBRANCH  26  28
ENDBRANCH  25  26
ENDBRANCH  22  24
ENDBRANCH   2  22
TORSDOF 6
ENDMDL
MODEL 9
REMARK VINA RESULT:      -6.8      1.804      2.625
REMARK  6 active torsions:
REMARK  status: ('A' for Active; 'I' for Inactive)
REMARK    1  A    between atoms: C_24  and  O_1 
REMARK    2  A    between atoms: C_3  and  C_8 
REMARK    3  A    between atoms: C_8  and  C_14 
REMARK    4  A    between atoms: C_15  and  C_17 
REMARK    5  A    between atoms: C_16  and  C_18 
REMARK    6  A    between atoms: C_18  and  C_20 
ROOT
HETATM    1  C   UNK N   1      28.961  24.195  -4.809  0.00  0.00    -0.032 C 
HETATM    2  C   UNK N   1      30.404  24.552  -5.199  0.00  0.00     0.002 C 
HETATM    3  C   UNK N   1      28.428  25.600  -4.477  0.00  0.00     0.023 C 
HETATM    4  C   UNK N   1      30.815  25.496  -4.054  0.00  0.00     0.007 C 
HETATM    5  C   UNK N   1      29.492  26.081  -3.498  0.00  0.00     0.010 C 
HETATM    6  C   UNK N   1      28.079  23.566  -5.893  0.00  0.00     0.010 C 
HETATM    7  C   UNK N   1      26.958  25.558  -4.080  0.00  0.00    -0.075 C 
HETATM    8  C   UNK N   1      28.952  23.259  -3.576  0.00  0.00     0.016 C 
HETATM    9  C   UNK N   1      26.587  23.511  -5.462  0.00  0.00     0.005 C 
HETATM   10  C   UNK N   1      26.288  24.211  -4.118  0.00  0.00     0.034 C 
HETATM   11  C   UNK N   1      26.131  26.602  -3.919  0.00  0.00     0.004 C 
ENDROOT
BRANCH  11  12
HETATM   12  C   UNK N   1      26.146  28.093  -3.934  0.00  0.00     0.008 C 
HETATM   13  C   UNK N   1      26.857  29.060  -4.525  0.00  0.00    -0.050 C 
HETATM   14  C   UNK N   1      26.593  30.468  -4.081  0.00  0.00     0.070 C 
HETATM   15  C   UNK N   1      28.029  28.861  -5.386  0.00  0.00    -0.061 C 
HETATM   16  C   UNK N   1      27.858  31.062  -3.462  0.00  0.00     0.122 C 
HETATM   17  C   UNK N   1      29.033  30.964  -4.447  0.00  0.00     0.036 C 
HETATM   18  C   UNK N   1      29.291  29.518  -4.903  0.00  0.00     0.041 C 
HETATM   19  C   UNK N   1      27.820  28.895  -6.702  0.00  0.00     0.019 C 
BRANCH  16  20
HETATM   20  O   UNK N   1      28.165  30.405  -2.267  0.00  0.00    -0.395 OA
HETATM   21  H   UNK N   1      28.844  30.138  -1.628  0.00  0.00     0.210 HD
ENDBRANCH  16  20
ENDBRANCH  11  12
BRANCH   2  22
HETATM   22  C   UNK N   1      31.405  23.408  -5.485  0.00  0.00     0.008 C 
HETATM   23  C   UNK N   1      32.790  23.746  -4.956  0.00  0.00     0.014 C 
BRANCH  22  24
HETATM   24  C   UNK N   1      31.479  22.998  -6.930  0.00  0.00    -0.026 C 
HETATM   25  C   UNK N   1      31.009  21.837  -7.418  0.00  0.00    -0.026 C 
BRANCH  25  26
HETATM   26  C   UNK N   1      30.323  20.755  -6.617  0.00  0.00     0.007 C 
HETATM   27  C   UNK N   1      31.333  20.021  -5.744  0.00  0.00     0.014 C 
BRANCH  26  28
HETATM   28  C   UNK N   1      29.493  19.789  -7.473  0.00  0.00    -0.015 C 
HETATM   29  C   UNK N   1      30.250  19.380  -8.724  0.00  0.00     0.010 C 
HETATM   30  C   UNK N   1      28.186  20.433  -7.904  0.00  0.00     0.010 C 
ENDBRANCH  26  28
ENDBRANCH  25  26
ENDBRANCH  22  24
ENDBRANCH   2  22
TORSDOF 6
ENDMDL
