MODEL 1
REMARK VINA RESULT:      -5.1      0.000      0.000
REMARK  7 active torsions:
REMARK  status: ('A' for Active; 'I' for Inactive)
REMARK    1  A    between atoms: O_1  and  C_11 
REMARK    2  A    between atoms: N_4  and  C_10 
REMARK       I    between atoms: N_4  and  C_12 
REMARK    3  A    between atoms: C_9  and  N_5 
REMARK       I    between atoms: N_6  and  C_12 
REMARK    4  A    between atoms: C_7  and  C_8 
REMARK    5  A    between atoms: C_7  and  C_9 
REMARK    6  A    between atoms: C_8  and  C_10 
REMARK    7  A    between atoms: C_9  and  C_11 
ROOT
HETATM    1  C   UNK N   1      19.826  19.303   2.820  0.00  0.00     0.037 C 
ENDROOT
BRANCH   1   2
HETATM    2  C   UNK N   1      20.525  18.116   3.464  0.00  0.00     0.022 C 
BRANCH   2   3
HETATM    3  C   UNK N   1      20.763  17.077   2.388  0.00  0.00     0.124 C 
BRANCH   3   4
HETATM    4  N   UNK N   1      19.531  16.730   1.723  0.00  0.00    -0.343 N 
HETATM    5  C   UNK N   1      19.437  16.757   0.370  0.00  0.00     0.313 C 
HETATM    6  O   UNK N   1      20.389  17.097  -0.314  0.00  0.00    -0.248 OA
HETATM    7  N   UNK N   1      18.281  16.403  -0.225  0.00  0.00    -0.352 N 
HETATM    8  H   UNK N   1      17.512  16.118   0.321  0.00  0.00     0.160 HD
HETATM    9  H   UNK N   1      18.204  16.429  -1.207  0.00  0.00     0.160 HD
HETATM   10  H   UNK N   1      18.746  16.472   2.259  0.00  0.00     0.164 HD
ENDBRANCH   3   4
ENDBRANCH   2   3
ENDBRANCH   1   2
BRANCH   1  11
HETATM   11  C   UNK N   1      20.778  20.465   2.561  0.00  0.00     0.173 C 
BRANCH  11  12
HETATM   12  N   UNK N   1      22.132  20.101   2.955  0.00  0.00    -0.418 N 
HETATM   13  H   UNK N   1      22.469  19.142   3.034  0.00  0.00     0.150 HD
HETATM   14  H   UNK N   1      22.786  20.855   3.165  0.00  0.00     0.150 HD
ENDBRANCH  11  12
BRANCH  11  15
HETATM   15  C   UNK N   1      20.744  20.870   1.110  0.00  0.00     0.163 C 
HETATM   16  O   UNK N   1      20.680  22.050   0.801  0.00  0.00    -0.648 OA
BRANCH  15  17
HETATM   17  O   UNK N   1      20.720  19.932   0.142  0.00  0.00    -0.775 OA
HETATM   18  H   UNK N   1      20.646  20.186  -0.757  0.00  0.00     0.167 HD
ENDBRANCH  15  17
ENDBRANCH  11  15
ENDBRANCH   1  11
TORSDOF 7
ENDMDL
MODEL 2
REMARK VINA RESULT:      -4.7     17.950     19.010
REMARK  7 active torsions:
REMARK  status: ('A' for Active; 'I' for Inactive)
REMARK    1  A    between atoms: O_1  and  C_11 
REMARK    2  A    between atoms: N_4  and  C_10 
REMARK       I    between atoms: N_4  and  C_12 
REMARK    3  A    between atoms: C_9  and  N_5 
REMARK       I    between atoms: N_6  and  C_12 
REMARK    4  A    between atoms: C_7  and  C_8 
REMARK    5  A    between atoms: C_7  and  C_9 
REMARK    6  A    between atoms: C_8  and  C_10 
REMARK    7  A    between atoms: C_9  and  C_11 
ROOT
HETATM    1  C   UNK N   1      35.484  13.966   9.841  0.00  0.00     0.037 C 
ENDROOT
BRANCH   1   2
HETATM    2  C   UNK N   1      34.820  12.843  10.623  0.00  0.00     0.022 C 
BRANCH   2   3
HETATM    3  C   UNK N   1      35.832  12.306  11.614  0.00  0.00     0.124 C 
BRANCH   3   4
HETATM    4  N   UNK N   1      36.536  13.382  12.268  0.00  0.00    -0.343 N 
HETATM    5  C   UNK N   1      36.075  13.915  13.426  0.00  0.00     0.313 C 
HETATM    6  O   UNK N   1      35.040  13.510  13.930  0.00  0.00    -0.248 OA
HETATM    7  N   UNK N   1      36.767  14.902  14.028  0.00  0.00    -0.352 N 
HETATM    8  H   UNK N   1      37.608  15.227  13.632  0.00  0.00     0.160 HD
HETATM    9  H   UNK N   1      36.432  15.299  14.865  0.00  0.00     0.160 HD
HETATM   10  H   UNK N   1      37.363  13.736  11.866  0.00  0.00     0.164 HD
ENDBRANCH   3   4
ENDBRANCH   2   3
ENDBRANCH   1   2
BRANCH   1  11
HETATM   11  C   UNK N   1      34.751  15.292  10.000  0.00  0.00     0.173 C 
BRANCH  11  12
HETATM   12  N   UNK N   1      33.655  15.150  10.949  0.00  0.00    -0.418 N 
HETATM   13  H   UNK N   1      32.899  14.472  10.856  0.00  0.00     0.150 HD
HETATM   14  H   UNK N   1      33.645  15.769  11.760  0.00  0.00     0.150 HD
ENDBRANCH  11  12
BRANCH  11  15
HETATM   15  C   UNK N   1      35.698  16.376  10.449  0.00  0.00     0.163 C 
HETATM   16  O   UNK N   1      35.411  17.552  10.285  0.00  0.00    -0.648 OA
BRANCH  15  17
HETATM   17  O   UNK N   1      36.897  16.055  10.977  0.00  0.00    -0.775 OA
HETATM   18  H   UNK N   1      37.625  16.635  10.873  0.00  0.00     0.167 HD
ENDBRANCH  15  17
ENDBRANCH  11  15
ENDBRANCH   1  11
TORSDOF 7
ENDMDL
MODEL 3
REMARK VINA RESULT:      -4.7     16.500     17.485
REMARK  7 active torsions:
REMARK  status: ('A' for Active; 'I' for Inactive)
REMARK    1  A    between atoms: O_1  and  C_11 
REMARK    2  A    between atoms: N_4  and  C_10 
REMARK       I    between atoms: N_4  and  C_12 
REMARK    3  A    between atoms: C_9  and  N_5 
REMARK       I    between atoms: N_6  and  C_12 
REMARK    4  A    between atoms: C_7  and  C_8 
REMARK    5  A    between atoms: C_7  and  C_9 
REMARK    6  A    between atoms: C_8  and  C_10 
REMARK    7  A    between atoms: C_9  and  C_11 
ROOT
HETATM    1  C   UNK N   1      34.128  15.764   8.557  0.00  0.00     0.037 C 
ENDROOT
BRANCH   1   2
HETATM    2  C   UNK N   1      35.486  15.092   8.691  0.00  0.00     0.022 C 
BRANCH   2   3
HETATM    3  C   UNK N   1      35.298  13.820   9.492  0.00  0.00     0.124 C 
BRANCH   3   4
HETATM    4  N   UNK N   1      36.243  13.750  10.580  0.00  0.00    -0.343 N 
HETATM    5  C   UNK N   1      35.884  14.102  11.839  0.00  0.00     0.313 C 
HETATM    6  O   UNK N   1      34.758  14.509  12.075  0.00  0.00    -0.248 OA
HETATM    7  N   UNK N   1      36.780  14.003  12.841  0.00  0.00    -0.352 N 
HETATM    8  H   UNK N   1      37.688  13.667  12.658  0.00  0.00     0.160 HD
HETATM    9  H   UNK N   1      36.527  14.266  13.755  0.00  0.00     0.160 HD
HETATM   10  H   UNK N   1      37.163  13.444  10.405  0.00  0.00     0.164 HD
ENDBRANCH   3   4
ENDBRANCH   2   3
ENDBRANCH   1   2
BRANCH   1  11
HETATM   11  C   UNK N   1      34.118  17.170   9.146  0.00  0.00     0.173 C 
BRANCH  11  12
HETATM   12  N   UNK N   1      34.906  17.207  10.370  0.00  0.00    -0.418 N 
HETATM   13  H   UNK N   1      34.511  17.148  11.309  0.00  0.00     0.150 HD
HETATM   14  H   UNK N   1      35.917  17.299  10.282  0.00  0.00     0.150 HD
ENDBRANCH  11  12
BRANCH  11  15
HETATM   15  C   UNK N   1      34.646  18.170   8.149  0.00  0.00     0.163 C 
HETATM   16  O   UNK N   1      35.265  19.151   8.531  0.00  0.00    -0.648 OA
BRANCH  15  17
HETATM   17  O   UNK N   1      34.386  18.022   6.835  0.00  0.00    -0.775 OA
HETATM   18  H   UNK N   1      35.039  17.667   6.264  0.00  0.00     0.167 HD
ENDBRANCH  15  17
ENDBRANCH  11  15
ENDBRANCH   1  11
TORSDOF 7
ENDMDL
MODEL 4
REMARK VINA RESULT:      -4.6      3.407      4.398
REMARK  7 active torsions:
REMARK  status: ('A' for Active; 'I' for Inactive)
REMARK    1  A    between atoms: O_1  and  C_11 
REMARK    2  A    between atoms: N_4  and  C_10 
REMARK       I    between atoms: N_4  and  C_12 
REMARK    3  A    between atoms: C_9  and  N_5 
REMARK       I    between atoms: N_6  and  C_12 
REMARK    4  A    between atoms: C_7  and  C_8 
REMARK    5  A    between atoms: C_7  and  C_9 
REMARK    6  A    between atoms: C_8  and  C_10 
REMARK    7  A    between atoms: C_9  and  C_11 
ROOT
HETATM    1  C   UNK N   1      21.027  19.130   3.665  0.00  0.00     0.037 C 
ENDROOT
BRANCH   1   2
HETATM    2  C   UNK N   1      22.262  18.263   3.856  0.00  0.00     0.022 C 
BRANCH   2   3
HETATM    3  C   UNK N   1      22.566  18.210   5.339  0.00  0.00     0.124 C 
BRANCH   3   4
HETATM    4  N   UNK N   1      21.712  17.259   6.009  0.00  0.00    -0.343 N 
HETATM    5  C   UNK N   1      20.868  17.654   6.994  0.00  0.00     0.313 C 
HETATM    6  O   UNK N   1      20.829  18.820   7.352  0.00  0.00    -0.248 OA
HETATM    7  N   UNK N   1      20.062  16.748   7.584  0.00  0.00    -0.352 N 
HETATM    8  H   UNK N   1      20.082  15.808   7.293  0.00  0.00     0.160 HD
HETATM    9  H   UNK N   1      19.454  17.027   8.306  0.00  0.00     0.160 HD
HETATM   10  H   UNK N   1      21.743  16.311   5.747  0.00  0.00     0.164 HD
ENDBRANCH   3   4
ENDBRANCH   2   3
ENDBRANCH   1   2
BRANCH   1  11
HETATM   11  C   UNK N   1      20.423  18.977   2.274  0.00  0.00     0.173 C 
BRANCH  11  12
HETATM   12  N   UNK N   1      18.975  18.853   2.367  0.00  0.00    -0.418 N 
HETATM   13  H   UNK N   1      18.491  18.029   2.722  0.00  0.00     0.150 HD
HETATM   14  H   UNK N   1      18.409  19.642   2.056  0.00  0.00     0.150 HD
ENDBRANCH  11  12
BRANCH  11  15
HETATM   15  C   UNK N   1      20.795  20.147   1.399  0.00  0.00     0.163 C 
HETATM   16  O   UNK N   1      21.211  21.182   1.897  0.00  0.00    -0.648 OA
BRANCH  15  17
HETATM   17  O   UNK N   1      20.612  20.083   0.064  0.00  0.00    -0.775 OA
HETATM   18  H   UNK N   1      19.948  20.602  -0.344  0.00  0.00     0.167 HD
ENDBRANCH  15  17
ENDBRANCH  11  15
ENDBRANCH   1  11
TORSDOF 7
ENDMDL
MODEL 5
REMARK VINA RESULT:      -4.5     13.160     14.000
REMARK  7 active torsions:
REMARK  status: ('A' for Active; 'I' for Inactive)
REMARK    1  A    between atoms: O_1  and  C_11 
REMARK    2  A    between atoms: N_4  and  C_10 
REMARK       I    between atoms: N_4  and  C_12 
REMARK    3  A    between atoms: C_9  and  N_5 
REMARK       I    between atoms: N_6  and  C_12 
REMARK    4  A    between atoms: C_7  and  C_8 
REMARK    5  A    between atoms: C_7  and  C_9 
REMARK    6  A    between atoms: C_8  and  C_10 
REMARK    7  A    between atoms: C_9  and  C_11 
ROOT
HETATM    1  C   UNK N   1      33.159  16.245   8.285  0.00  0.00     0.037 C 
ENDROOT
BRANCH   1   2
HETATM    2  C   UNK N   1      31.639  16.258   8.317  0.00  0.00     0.022 C 
BRANCH   2   3
HETATM    3  C   UNK N   1      31.142  16.014   6.907  0.00  0.00     0.124 C 
BRANCH   3   4
HETATM    4  N   UNK N   1      31.525  17.095   6.030  0.00  0.00    -0.343 N 
HETATM    5  C   UNK N   1      31.449  16.960   4.683  0.00  0.00     0.313 C 
HETATM    6  O   UNK N   1      31.076  15.912   4.182  0.00  0.00    -0.248 OA
HETATM    7  N   UNK N   1      31.790  17.994   3.889  0.00  0.00    -0.352 N 
HETATM    8  H   UNK N   1      32.083  18.846   4.288  0.00  0.00     0.160 HD
HETATM    9  H   UNK N   1      31.745  17.899   2.910  0.00  0.00     0.160 HD
HETATM   10  H   UNK N   1      31.848  17.941   6.416  0.00  0.00     0.164 HD
ENDBRANCH   3   4
ENDBRANCH   2   3
ENDBRANCH   1   2
BRANCH   1  11
HETATM   11  C   UNK N   1      33.763  17.453   8.992  0.00  0.00     0.173 C 
BRANCH  11  12
HETATM   12  N   UNK N   1      34.623  17.016  10.084  0.00  0.00    -0.418 N 
HETATM   13  H   UNK N   1      34.287  16.565  10.934  0.00  0.00     0.150 HD
HETATM   14  H   UNK N   1      35.626  17.173   9.991  0.00  0.00     0.150 HD
ENDBRANCH  11  12
BRANCH  11  15
HETATM   15  C   UNK N   1      34.538  18.307   8.022  0.00  0.00     0.163 C 
HETATM   16  O   UNK N   1      35.265  19.200   8.432  0.00  0.00    -0.648 OA
BRANCH  15  17
HETATM   17  O   UNK N   1      34.386  18.136   6.693  0.00  0.00    -0.775 OA
HETATM   18  H   UNK N   1      33.675  18.550   6.245  0.00  0.00     0.167 HD
ENDBRANCH  15  17
ENDBRANCH  11  15
ENDBRANCH   1  11
TORSDOF 7
ENDMDL
MODEL 6
REMARK VINA RESULT:      -4.5      1.865      4.032
REMARK  7 active torsions:
REMARK  status: ('A' for Active; 'I' for Inactive)
REMARK    1  A    between atoms: O_1  and  C_11 
REMARK    2  A    between atoms: N_4  and  C_10 
REMARK       I    between atoms: N_4  and  C_12 
REMARK    3  A    between atoms: C_9  and  N_5 
REMARK       I    between atoms: N_6  and  C_12 
REMARK    4  A    between atoms: C_7  and  C_8 
REMARK    5  A    between atoms: C_7  and  C_9 
REMARK    6  A    between atoms: C_8  and  C_10 
REMARK    7  A    between atoms: C_9  and  C_11 
ROOT
HETATM    1  C   UNK N   1      21.523  17.174   3.290  0.00  0.00     0.037 C 
ENDROOT
BRANCH   1   2
HETATM    2  C   UNK N   1      20.936  18.098   4.346  0.00  0.00     0.022 C 
BRANCH   2   3
HETATM    3  C   UNK N   1      21.159  19.525   3.889  0.00  0.00     0.124 C 
BRANCH   3   4
HETATM    4  N   UNK N   1      20.450  19.792   2.661  0.00  0.00    -0.343 N 
HETATM    5  C   UNK N   1      21.056  20.432   1.631  0.00  0.00     0.313 C 
HETATM    6  O   UNK N   1      22.210  20.818   1.729  0.00  0.00    -0.248 OA
HETATM    7  N   UNK N   1      20.378  20.644   0.486  0.00  0.00    -0.352 N 
HETATM    8  H   UNK N   1      19.450  20.327   0.397  0.00  0.00     0.160 HD
HETATM    9  H   UNK N   1      20.810  21.117  -0.262  0.00  0.00     0.160 HD
HETATM   10  H   UNK N   1      19.513  19.505   2.570  0.00  0.00     0.164 HD
ENDBRANCH   3   4
ENDBRANCH   2   3
ENDBRANCH   1   2
BRANCH   1  11
HETATM   11  C   UNK N   1      20.485  16.214   2.720  0.00  0.00     0.173 C 
BRANCH  11  12
HETATM   12  N   UNK N   1      19.299  16.198   3.565  0.00  0.00    -0.418 N 
HETATM   13  H   UNK N   1      19.152  16.819   4.360  0.00  0.00     0.150 HD
HETATM   14  H   UNK N   1      18.569  15.520   3.347  0.00  0.00     0.150 HD
ENDBRANCH  11  12
BRANCH  11  15
HETATM   15  C   UNK N   1      20.119  16.600   1.309  0.00  0.00     0.163 C 
HETATM   16  O   UNK N   1      20.698  16.091   0.362  0.00  0.00    -0.648 OA
BRANCH  15  17
HETATM   17  O   UNK N   1      19.196  17.557   1.083  0.00  0.00    -0.775 OA
HETATM   18  H   UNK N   1      18.296  17.399   1.293  0.00  0.00     0.167 HD
ENDBRANCH  15  17
ENDBRANCH  11  15
ENDBRANCH   1  11
TORSDOF 7
ENDMDL
MODEL 7
REMARK VINA RESULT:      -4.4     12.885     13.887
REMARK  7 active torsions:
REMARK  status: ('A' for Active; 'I' for Inactive)
REMARK    1  A    between atoms: O_1  and  C_11 
REMARK    2  A    between atoms: N_4  and  C_10 
REMARK       I    between atoms: N_4  and  C_12 
REMARK    3  A    between atoms: C_9  and  N_5 
REMARK       I    between atoms: N_6  and  C_12 
REMARK    4  A    between atoms: C_7  and  C_8 
REMARK    5  A    between atoms: C_7  and  C_9 
REMARK    6  A    between atoms: C_8  and  C_10 
REMARK    7  A    between atoms: C_9  and  C_11 
ROOT
HETATM    1  C   UNK N   1      32.739  16.559   8.324  0.00  0.00     0.037 C 
ENDROOT
BRANCH   1   2
HETATM    2  C   UNK N   1      31.793  17.728   8.544  0.00  0.00     0.022 C 
BRANCH   2   3
HETATM    3  C   UNK N   1      30.376  17.193   8.502  0.00  0.00     0.124 C 
BRANCH   3   4
HETATM    4  N   UNK N   1      29.444  18.229   8.128  0.00  0.00    -0.343 N 
HETATM    5  C   UNK N   1      28.227  18.319   8.720  0.00  0.00     0.313 C 
HETATM    6  O   UNK N   1      27.885  17.510   9.567  0.00  0.00    -0.248 OA
HETATM    7  N   UNK N   1      27.387  19.312   8.369  0.00  0.00    -0.352 N 
HETATM    8  H   UNK N   1      27.661  19.974   7.694  0.00  0.00     0.160 HD
HETATM    9  H   UNK N   1      26.498  19.377   8.789  0.00  0.00     0.160 HD
HETATM   10  H   UNK N   1      29.694  18.880   7.433  0.00  0.00     0.164 HD
ENDBRANCH   3   4
ENDBRANCH   2   3
ENDBRANCH   1   2
BRANCH   1  11
HETATM   11  C   UNK N   1      34.068  16.997   7.719  0.00  0.00     0.173 C 
BRANCH  11  12
HETATM   12  N   UNK N   1      33.845  17.655   6.440  0.00  0.00    -0.418 N 
HETATM   13  H   UNK N   1      33.027  18.225   6.222  0.00  0.00     0.150 HD
HETATM   14  H   UNK N   1      34.552  17.538   5.714  0.00  0.00     0.150 HD
ENDBRANCH  11  12
BRANCH  11  15
HETATM   15  C   UNK N   1      34.807  17.914   8.660  0.00  0.00     0.163 C 
HETATM   16  O   UNK N   1      35.172  17.510   9.754  0.00  0.00    -0.648 OA
BRANCH  15  17
HETATM   17  O   UNK N   1      35.014  19.204   8.329  0.00  0.00    -0.775 OA
HETATM   18  H   UNK N   1      34.291  19.748   8.084  0.00  0.00     0.167 HD
ENDBRANCH  15  17
ENDBRANCH  11  15
ENDBRANCH   1  11
TORSDOF 7
ENDMDL
MODEL 8
REMARK VINA RESULT:      -4.4      2.824      3.644
REMARK  7 active torsions:
REMARK  status: ('A' for Active; 'I' for Inactive)
REMARK    1  A    between atoms: O_1  and  C_11 
REMARK    2  A    between atoms: N_4  and  C_10 
REMARK       I    between atoms: N_4  and  C_12 
REMARK    3  A    between atoms: C_9  and  N_5 
REMARK       I    between atoms: N_6  and  C_12 
REMARK    4  A    between atoms: C_7  and  C_8 
REMARK    5  A    between atoms: C_7  and  C_9 
REMARK    6  A    between atoms: C_8  and  C_10 
REMARK    7  A    between atoms: C_9  and  C_11 
ROOT
HETATM    1  C   UNK N   1      19.806  18.767   1.988  0.00  0.00     0.037 C 
ENDROOT
BRANCH   1   2
HETATM    2  C   UNK N   1      20.351  17.364   1.775  0.00  0.00     0.022 C 
BRANCH   2   3
HETATM    3  C   UNK N   1      20.184  16.598   3.071  0.00  0.00     0.124 C 
BRANCH   3   4
HETATM    4  N   UNK N   1      20.261  17.484   4.208  0.00  0.00    -0.343 N 
HETATM    5  C   UNK N   1      21.330  17.456   5.041  0.00  0.00     0.313 C 
HETATM    6  O   UNK N   1      22.241  16.664   4.861  0.00  0.00    -0.248 OA
HETATM    7  N   UNK N   1      21.388  18.313   6.080  0.00  0.00    -0.352 N 
HETATM    8  H   UNK N   1      20.660  18.961   6.226  0.00  0.00     0.160 HD
HETATM    9  H   UNK N   1      22.157  18.291   6.695  0.00  0.00     0.160 HD
HETATM   10  H   UNK N   1      19.527  18.116   4.381  0.00  0.00     0.164 HD
ENDBRANCH   3   4
ENDBRANCH   2   3
ENDBRANCH   1   2
BRANCH   1  11
HETATM   11  C   UNK N   1      20.835  19.843   1.661  0.00  0.00     0.173 C 
BRANCH  11  12
HETATM   12  N   UNK N   1      20.381  20.645   0.534  0.00  0.00    -0.418 N 
HETATM   13  H   UNK N   1      20.975  21.289   0.011  0.00  0.00     0.150 HD
HETATM   14  H   UNK N   1      19.406  20.557   0.249  0.00  0.00     0.150 HD
ENDBRANCH  11  12
BRANCH  11  15
HETATM   15  C   UNK N   1      21.089  20.720   2.861  0.00  0.00     0.163 C 
HETATM   16  O   UNK N   1      20.448  20.560   3.889  0.00  0.00    -0.648 OA
BRANCH  15  17
HETATM   17  O   UNK N   1      21.982  21.728   2.789  0.00  0.00    -0.775 OA
HETATM   18  H   UNK N   1      22.892  21.542   2.666  0.00  0.00     0.167 HD
ENDBRANCH  15  17
ENDBRANCH  11  15
ENDBRANCH   1  11
TORSDOF 7
ENDMDL
MODEL 9
REMARK VINA RESULT:      -4.3     14.591     15.677
REMARK  7 active torsions:
REMARK  status: ('A' for Active; 'I' for Inactive)
REMARK    1  A    between atoms: O_1  and  C_11 
REMARK    2  A    between atoms: N_4  and  C_10 
REMARK       I    between atoms: N_4  and  C_12 
REMARK    3  A    between atoms: C_9  and  N_5 
REMARK       I    between atoms: N_6  and  C_12 
REMARK    4  A    between atoms: C_7  and  C_8 
REMARK    5  A    between atoms: C_7  and  C_9 
REMARK    6  A    between atoms: C_8  and  C_10 
REMARK    7  A    between atoms: C_9  and  C_11 
ROOT
HETATM    1  C   UNK N   1      34.628  16.232   8.629  0.00  0.00     0.037 C 
ENDROOT
BRANCH   1   2
HETATM    2  C   UNK N   1      34.471  17.714   8.329  0.00  0.00     0.022 C 
BRANCH   2   3
HETATM    3  C   UNK N   1      33.089  17.926   7.745  0.00  0.00     0.124 C 
BRANCH   3   4
HETATM    4  N   UNK N   1      32.082  17.895   8.778  0.00  0.00    -0.343 N 
HETATM    5  C   UNK N   1      31.059  17.006   8.728  0.00  0.00     0.313 C 
HETATM    6  O   UNK N   1      30.956  16.226   7.795  0.00  0.00    -0.248 OA
HETATM    7  N   UNK N   1      30.147  16.983   9.720  0.00  0.00    -0.352 N 
HETATM    8  H   UNK N   1      30.230  17.604  10.480  0.00  0.00     0.160 HD
HETATM    9  H   UNK N   1      29.397  16.346   9.684  0.00  0.00     0.160 HD
HETATM   10  H   UNK N   1      32.137  18.530   9.528  0.00  0.00     0.164 HD
ENDBRANCH   3   4
ENDBRANCH   2   3
ENDBRANCH   1   2
BRANCH   1  11
HETATM   11  C   UNK N   1      35.022  15.973  10.079  0.00  0.00     0.173 C 
BRANCH  11  12
HETATM   12  N   UNK N   1      35.190  17.236  10.786  0.00  0.00    -0.418 N 
HETATM   13  H   UNK N   1      36.091  17.682  10.958  0.00  0.00     0.150 HD
HETATM   14  H   UNK N   1      34.352  17.703  11.131  0.00  0.00     0.150 HD
ENDBRANCH  11  12
BRANCH  11  15
HETATM   15  C   UNK N   1      33.990  15.118  10.768  0.00  0.00     0.163 C 
HETATM   16  O   UNK N   1      34.308  14.406  11.709  0.00  0.00    -0.648 OA
BRANCH  15  17
HETATM   17  O   UNK N   1      32.721  15.084  10.313  0.00  0.00    -0.775 OA
HETATM   18  H   UNK N   1      32.292  14.262  10.182  0.00  0.00     0.167 HD
ENDBRANCH  15  17
ENDBRANCH  11  15
ENDBRANCH   1  11
TORSDOF 7
ENDMDL
