MODEL 1
REMARK VINA RESULT:      -8.7      0.000      0.000
REMARK  11 active torsions:
REMARK  status: ('A' for Active; 'I' for Inactive)
REMARK    1  A    between atoms: O_1  and  C_22 
REMARK    2  A    between atoms: O_4  and  C_30 
REMARK    3  A    between atoms: C_17  and  N_7 
REMARK       I    between atoms: N_7  and  C_20 
REMARK    4  A    between atoms: N_8  and  C_23 
REMARK    5  A    between atoms: N_8  and  C_24 
REMARK       I    between atoms: N_16  and  C_35 
REMARK    6  A    between atoms: C_17  and  C_18 
REMARK    7  A    between atoms: C_17  and  C_22 
REMARK    8  A    between atoms: C_18  and  C_19 
REMARK    9  A    between atoms: C_19  and  C_30 
REMARK   10  A    between atoms: C_20  and  C_21 
REMARK   11  A    between atoms: C_24  and  C_29 
ROOT
HETATM    1  C   UNK N   1      24.165  19.574   3.461  0.00  0.00     0.032 A 
HETATM    2  C   UNK N   1      26.445  18.188   4.242  0.00  0.00     0.028 A 
HETATM    3  C   UNK N   1      25.434  20.156   3.313  0.00  0.00     0.019 A 
HETATM    4  C   UNK N   1      24.043  18.289   3.994  0.00  0.00     0.019 A 
HETATM    5  C   UNK N   1      26.576  19.466   3.704  0.00  0.00     0.030 A 
HETATM    6  C   UNK N   1      25.185  17.599   4.380  0.00  0.00     0.030 A 
ENDROOT
BRANCH   2   7
HETATM    7  N   UNK N   1      27.555  17.460   4.674  0.00  0.00    -0.384 N 
HETATM    8  H   UNK N   1      27.377  16.745   5.328  0.00  0.00     0.160 HD
BRANCH   7   9
HETATM    9  C   UNK N   1      28.930  17.631   4.277  0.00  0.00     0.178 C 
BRANCH   9  10
HETATM   10  C   UNK N   1      29.722  17.460   5.532  0.00  0.00     0.043 A 
HETATM   11  N   UNK N   1      31.074  17.546   5.449  0.00  0.00    -0.350 N 
HETATM   12  C   UNK N   1      31.863  17.420   6.529  0.00  0.00     0.147 A 
ATOM     13  HN  UNK N   1      31.505  17.713   4.540  1.00  0.00     0.166 HD
HETATM   14  C   UNK N   1      31.285  17.192   7.778  0.00  0.00     0.153 A 
HETATM   15  C   UNK N   1      33.245  17.518   6.417  0.00  0.00     0.290 A 
HETATM   16  N   UNK N   1      32.084  17.070   8.870  0.00  0.00    -0.174 N 
HETATM   17  N   UNK N   1      29.928  17.096   7.882  0.00  0.00    -0.348 N 
HETATM   18  C   UNK N   1      33.440  17.169   8.753  0.00  0.00     0.680 A 
HETATM   19  H   UNK N   1      31.682  16.908   9.754  0.00  0.00     0.186 HD
HETATM   20  N   UNK N   1      34.015  17.390   7.539  0.00  0.00    -0.154 N 
HETATM   21  N   UNK N   1      34.255  17.043   9.893  0.00  0.00    -0.234 N 
ATOM     22  HN  UNK N   1      35.030  17.461   7.465  1.00  0.00     0.187 HD
HETATM   23  H   UNK N   1      35.234  17.114   9.810  0.00  0.00     0.174 HD
HETATM   24  H   UNK N   1      33.846  16.884  10.775  0.00  0.00     0.174 HD
HETATM   25  C   UNK N   1      29.130  17.226   6.780  0.00  0.00     0.116 A 
ATOM     26  HN  UNK N   1      29.504  16.926   8.794  1.00  0.00     0.167 HD
HETATM   27  O   UNK N   1      33.769  17.717   5.334  0.00  0.00    -0.265 OA
ENDBRANCH   9  10
ENDBRANCH   7   9
ENDBRANCH   2   7
BRANCH   1  28
HETATM   28  C   UNK N   1      22.981  20.349   3.098  0.00  0.00     0.252 C 
HETATM   29  O   UNK N   1      23.064  21.553   2.910  0.00  0.00    -0.268 OA
HETATM   30  N   UNK N   1      21.809  19.684   2.962  0.00  0.00    -0.343 N 
HETATM   31  H   UNK N   1      21.835  18.731   3.210  0.00  0.00     0.163 HD
BRANCH  30  32
HETATM   32  C   UNK N   1      20.526  20.171   2.506  0.00  0.00     0.183 C 
BRANCH  32  33
HETATM   33  C   UNK N   1      19.454  19.088   2.444  0.00  0.00     0.046 C 
BRANCH  33  34
HETATM   34  C   UNK N   1      20.156  17.737   2.400  0.00  0.00     0.112 C 
BRANCH  34  35
HETATM   35  C   UNK N   1      19.904  17.031   1.113  0.00  0.00     0.139 C 
HETATM   36  O   UNK N   1      20.773  16.329   0.625  0.00  0.00    -0.650 OA
BRANCH  35  37
HETATM   37  O   UNK N   1      18.708  17.138   0.505  0.00  0.00    -0.776 OA
HETATM   38  H   UNK N   1      18.130  17.875   0.527  0.00  0.00     0.167 HD
ENDBRANCH  35  37
ENDBRANCH  34  35
ENDBRANCH  33  34
ENDBRANCH  32  33
BRANCH  32  39
HETATM   39  C   UNK N   1      20.732  20.822   1.163  0.00  0.00     0.163 C 
HETATM   40  O   UNK N   1      21.007  20.147   0.179  0.00  0.00    -0.648 OA
BRANCH  39  41
HETATM   41  O   UNK N   1      20.645  22.157   1.043  0.00  0.00    -0.775 OA
HETATM   42  H   UNK N   1      21.014  22.593   0.300  0.00  0.00     0.167 HD
ENDBRANCH  39  41
ENDBRANCH  32  39
ENDBRANCH  30  32
ENDBRANCH   1  28
TORSDOF 11
ENDMDL
MODEL 2
REMARK VINA RESULT:      -8.1      1.213      1.406
REMARK  11 active torsions:
REMARK  status: ('A' for Active; 'I' for Inactive)
REMARK    1  A    between atoms: O_1  and  C_22 
REMARK    2  A    between atoms: O_4  and  C_30 
REMARK    3  A    between atoms: C_17  and  N_7 
REMARK       I    between atoms: N_7  and  C_20 
REMARK    4  A    between atoms: N_8  and  C_23 
REMARK    5  A    between atoms: N_8  and  C_24 
REMARK       I    between atoms: N_16  and  C_35 
REMARK    6  A    between atoms: C_17  and  C_18 
REMARK    7  A    between atoms: C_17  and  C_22 
REMARK    8  A    between atoms: C_18  and  C_19 
REMARK    9  A    between atoms: C_19  and  C_30 
REMARK   10  A    between atoms: C_20  and  C_21 
REMARK   11  A    between atoms: C_24  and  C_29 
ROOT
HETATM    1  C   UNK N   1      24.067  17.815   4.633  0.00  0.00     0.032 A 
HETATM    2  C   UNK N   1      26.721  16.989   4.723  0.00  0.00     0.028 A 
HETATM    3  C   UNK N   1      25.068  18.573   4.004  0.00  0.00     0.019 A 
HETATM    4  C   UNK N   1      24.401  16.636   5.302  0.00  0.00     0.019 A 
HETATM    5  C   UNK N   1      26.395  18.164   4.047  0.00  0.00     0.030 A 
HETATM    6  C   UNK N   1      25.728  16.225   5.340  0.00  0.00     0.030 A 
ENDROOT
BRANCH   2   7
HETATM    7  N   UNK N   1      28.041  16.544   4.820  0.00  0.00    -0.384 N 
HETATM    8  H   UNK N   1      28.163  15.614   5.119  0.00  0.00     0.160 HD
BRANCH   7   9
HETATM    9  C   UNK N   1      29.244  17.286   4.536  0.00  0.00     0.178 C 
BRANCH   9  10
HETATM   10  C   UNK N   1      30.062  17.193   5.781  0.00  0.00     0.043 A 
HETATM   11  N   UNK N   1      31.405  17.364   5.677  0.00  0.00    -0.350 N 
HETATM   12  C   UNK N   1      32.215  17.312   6.747  0.00  0.00     0.147 A 
ATOM     13  HN  UNK N   1      31.811  17.538   4.758  1.00  0.00     0.166 HD
HETATM   14  C   UNK N   1      31.670  17.074   8.009  0.00  0.00     0.153 A 
HETATM   15  C   UNK N   1      33.586  17.496   6.612  0.00  0.00     0.290 A 
HETATM   16  N   UNK N   1      32.490  17.028   9.091  0.00  0.00    -0.174 N 
HETATM   17  N   UNK N   1      30.324  16.895   8.136  0.00  0.00    -0.348 N 
HETATM   18  C   UNK N   1      33.835  17.212   8.952  0.00  0.00     0.680 A 
HETATM   19  H   UNK N   1      32.111  16.860   9.985  0.00  0.00     0.186 HD
HETATM   20  N   UNK N   1      34.378  17.442   7.725  0.00  0.00    -0.154 N 
HETATM   21  N   UNK N   1      34.672  17.163  10.082  0.00  0.00    -0.234 N 
ATOM     22  HN  UNK N   1      35.385  17.577   7.634  1.00  0.00     0.187 HD
HETATM   23  H   UNK N   1      35.643  17.294   9.983  0.00  0.00     0.174 HD
HETATM   24  H   UNK N   1      34.286  16.997  10.973  0.00  0.00     0.174 HD
HETATM   25  C   UNK N   1      29.503  16.948   7.043  0.00  0.00     0.116 A 
ATOM     26  HN  UNK N   1      29.924  16.717   9.057  1.00  0.00     0.167 HD
HETATM   27  O   UNK N   1      34.081  17.705   5.518  0.00  0.00    -0.265 OA
ENDBRANCH   9  10
ENDBRANCH   7   9
ENDBRANCH   2   7
BRANCH   1  28
HETATM   28  C   UNK N   1      22.692  18.305   4.621  0.00  0.00     0.252 C 
HETATM   29  O   UNK N   1      22.035  18.333   5.650  0.00  0.00    -0.268 OA
HETATM   30  N   UNK N   1      22.188  18.738   3.440  0.00  0.00    -0.343 N 
HETATM   31  H   UNK N   1      22.770  18.602   2.658  0.00  0.00     0.163 HD
BRANCH  30  32
HETATM   32  C   UNK N   1      20.917  19.372   3.163  0.00  0.00     0.183 C 
BRANCH  32  33
HETATM   33  C   UNK N   1      19.852  18.401   2.665  0.00  0.00     0.046 C 
BRANCH  33  34
HETATM   34  C   UNK N   1      20.564  17.206   2.042  0.00  0.00     0.112 C 
BRANCH  34  35
HETATM   35  C   UNK N   1      20.073  16.936   0.662  0.00  0.00     0.139 C 
HETATM   36  O   UNK N   1      19.437  15.920   0.432  0.00  0.00    -0.650 OA
BRANCH  35  37
HETATM   37  O   UNK N   1      20.298  17.823  -0.323  0.00  0.00    -0.776 OA
HETATM   38  H   UNK N   1      20.930  18.516  -0.323  0.00  0.00     0.167 HD
ENDBRANCH  35  37
ENDBRANCH  34  35
ENDBRANCH  33  34
ENDBRANCH  32  33
BRANCH  32  39
HETATM   39  C   UNK N   1      21.162  20.480   2.173  0.00  0.00     0.163 C 
HETATM   40  O   UNK N   1      21.070  20.272   0.969  0.00  0.00    -0.648 OA
BRANCH  39  41
HETATM   41  O   UNK N   1      21.515  21.702   2.605  0.00  0.00    -0.775 OA
HETATM   42  H   UNK N   1      22.334  21.834   3.042  0.00  0.00     0.167 HD
ENDBRANCH  39  41
ENDBRANCH  32  39
ENDBRANCH  30  32
ENDBRANCH   1  28
TORSDOF 11
ENDMDL
MODEL 3
REMARK VINA RESULT:      -8.1      2.340     11.397
REMARK  11 active torsions:
REMARK  status: ('A' for Active; 'I' for Inactive)
REMARK    1  A    between atoms: O_1  and  C_22 
REMARK    2  A    between atoms: O_4  and  C_30 
REMARK    3  A    between atoms: C_17  and  N_7 
REMARK       I    between atoms: N_7  and  C_20 
REMARK    4  A    between atoms: N_8  and  C_23 
REMARK    5  A    between atoms: N_8  and  C_24 
REMARK       I    between atoms: N_16  and  C_35 
REMARK    6  A    between atoms: C_17  and  C_18 
REMARK    7  A    between atoms: C_17  and  C_22 
REMARK    8  A    between atoms: C_18  and  C_19 
REMARK    9  A    between atoms: C_19  and  C_30 
REMARK   10  A    between atoms: C_20  and  C_21 
REMARK   11  A    between atoms: C_24  and  C_29 
ROOT
HETATM    1  C   UNK N   1      29.188  18.071   7.520  0.00  0.00     0.032 A 
HETATM    2  C   UNK N   1      27.487  19.606   5.945  0.00  0.00     0.028 A 
HETATM    3  C   UNK N   1      29.125  17.863   6.133  0.00  0.00     0.019 A 
HETATM    4  C   UNK N   1      28.400  19.060   8.115  0.00  0.00     0.019 A 
HETATM    5  C   UNK N   1      28.275  18.627   5.343  0.00  0.00     0.030 A 
HETATM    6  C   UNK N   1      27.555  19.827   7.323  0.00  0.00     0.030 A 
ENDROOT
BRANCH   2   7
HETATM    7  N   UNK N   1      26.597  20.386   5.203  0.00  0.00    -0.384 N 
HETATM    8  H   UNK N   1      26.122  21.092   5.699  0.00  0.00     0.160 HD
BRANCH   7   9
HETATM    9  C   UNK N   1      26.292  20.279   3.798  0.00  0.00     0.178 C 
BRANCH   9  10
HETATM   10  C   UNK N   1      24.989  19.551   3.737  0.00  0.00     0.043 A 
HETATM   11  N   UNK N   1      23.894  20.237   3.321  0.00  0.00    -0.350 N 
HETATM   12  C   UNK N   1      22.686  19.658   3.221  0.00  0.00     0.147 A 
ATOM     13  HN  UNK N   1      23.991  21.222   3.077  1.00  0.00     0.166 HD
HETATM   14  C   UNK N   1      22.542  18.311   3.553  0.00  0.00     0.153 A 
HETATM   15  C   UNK N   1      21.583  20.383   2.788  0.00  0.00     0.290 A 
HETATM   16  N   UNK N   1      21.321  17.725   3.446  0.00  0.00    -0.174 N 
HETATM   17  N   UNK N   1      23.629  17.604   3.978  0.00  0.00    -0.348 N 
HETATM   18  C   UNK N   1      20.242  18.442   3.018  0.00  0.00     0.680 A 
HETATM   19  H   UNK N   1      21.213  16.774   3.679  0.00  0.00     0.186 HD
HETATM   20  N   UNK N   1      20.371  19.758   2.693  0.00  0.00    -0.154 N 
HETATM   21  N   UNK N   1      18.984  17.822   2.910  0.00  0.00    -0.234 N 
ATOM     22  HN  UNK N   1      19.556  20.283   2.376  1.00  0.00     0.187 HD
HETATM   23  H   UNK N   1      18.204  18.338   2.602  0.00  0.00     0.174 HD
HETATM   24  H   UNK N   1      18.883  16.870   3.142  0.00  0.00     0.174 HD
HETATM   25  C   UNK N   1      24.857  18.199   4.078  0.00  0.00     0.116 A 
ATOM     26  HN  UNK N   1      23.525  16.620   4.224  1.00  0.00     0.167 HD
HETATM   27  O   UNK N   1      21.688  21.561   2.493  0.00  0.00    -0.265 OA
ENDBRANCH   9  10
ENDBRANCH   7   9
ENDBRANCH   2   7
BRANCH   1  28
HETATM   28  C   UNK N   1      30.045  17.210   8.330  0.00  0.00     0.252 C 
HETATM   29  O   UNK N   1      29.770  16.984   9.498  0.00  0.00    -0.268 OA
HETATM   30  N   UNK N   1      31.134  16.666   7.735  0.00  0.00    -0.343 N 
HETATM   31  H   UNK N   1      31.308  16.972   6.816  0.00  0.00     0.163 HD
BRANCH  30  32
HETATM   32  C   UNK N   1      32.077  15.700   8.256  0.00  0.00     0.183 C 
BRANCH  32  33
HETATM   33  C   UNK N   1      33.290  16.337   8.925  0.00  0.00     0.046 C 
BRANCH  33  34
HETATM   34  C   UNK N   1      33.235  17.837   8.661  0.00  0.00     0.112 C 
BRANCH  34  35
HETATM   35  C   UNK N   1      34.438  18.307   7.920  0.00  0.00     0.139 C 
HETATM   36  O   UNK N   1      34.621  17.948   6.768  0.00  0.00    -0.650 OA
BRANCH  35  37
HETATM   37  O   UNK N   1      35.306  19.153   8.504  0.00  0.00    -0.776 OA
HETATM   38  H   UNK N   1      35.112  19.994   8.869  0.00  0.00     0.167 HD
ENDBRANCH  35  37
ENDBRANCH  34  35
ENDBRANCH  33  34
ENDBRANCH  32  33
BRANCH  32  39
HETATM   39  C   UNK N   1      32.482  14.796   7.121  0.00  0.00     0.163 C 
HETATM   40  O   UNK N   1      32.075  13.642   7.069  0.00  0.00    -0.648 OA
BRANCH  39  41
HETATM   41  O   UNK N   1      33.321  15.243   6.172  0.00  0.00    -0.775 OA
HETATM   42  H   UNK N   1      34.183  15.533   6.397  0.00  0.00     0.167 HD
ENDBRANCH  39  41
ENDBRANCH  32  39
ENDBRANCH  30  32
ENDBRANCH   1  28
TORSDOF 11
ENDMDL
MODEL 4
REMARK VINA RESULT:      -7.9      4.031      7.189
REMARK  11 active torsions:
REMARK  status: ('A' for Active; 'I' for Inactive)
REMARK    1  A    between atoms: O_1  and  C_22 
REMARK    2  A    between atoms: O_4  and  C_30 
REMARK    3  A    between atoms: C_17  and  N_7 
REMARK       I    between atoms: N_7  and  C_20 
REMARK    4  A    between atoms: N_8  and  C_23 
REMARK    5  A    between atoms: N_8  and  C_24 
REMARK       I    between atoms: N_16  and  C_35 
REMARK    6  A    between atoms: C_17  and  C_18 
REMARK    7  A    between atoms: C_17  and  C_22 
REMARK    8  A    between atoms: C_18  and  C_19 
REMARK    9  A    between atoms: C_19  and  C_30 
REMARK   10  A    between atoms: C_20  and  C_21 
REMARK   11  A    between atoms: C_24  and  C_29 
ROOT
HETATM    1  C   UNK N   1      29.500  17.135   6.649  0.00  0.00     0.032 A 
HETATM    2  C   UNK N   1      31.926  16.201   7.636  0.00  0.00     0.028 A 
HETATM    3  C   UNK N   1      30.111  17.766   7.744  0.00  0.00     0.019 A 
HETATM    4  C   UNK N   1      30.115  16.037   6.043  0.00  0.00     0.019 A 
HETATM    5  C   UNK N   1      31.323  17.301   8.241  0.00  0.00     0.030 A 
HETATM    6  C   UNK N   1      31.329  15.576   6.538  0.00  0.00     0.030 A 
ENDROOT
BRANCH   2   7
HETATM    7  N   UNK N   1      33.130  15.676   8.109  0.00  0.00    -0.384 N 
HETATM    8  H   UNK N   1      33.916  16.266   8.043  0.00  0.00     0.160 HD
BRANCH   7   9
HETATM    9  C   UNK N   1      33.359  14.373   8.681  0.00  0.00     0.178 C 
BRANCH   9  10
HETATM   10  C   UNK N   1      34.178  14.623   9.904  0.00  0.00     0.043 A 
HETATM   11  N   UNK N   1      34.288  13.621  10.814  0.00  0.00    -0.350 N 
HETATM   12  C   UNK N   1      35.017  13.754  11.935  0.00  0.00     0.147 A 
ATOM     13  HN  UNK N   1      33.802  12.742  10.642  1.00  0.00     0.166 HD
HETATM   14  C   UNK N   1      35.685  14.954  12.181  0.00  0.00     0.153 A 
HETATM   15  C   UNK N   1      35.115  12.711  12.847  0.00  0.00     0.290 A 
HETATM   16  N   UNK N   1      36.426  15.084  13.311  0.00  0.00    -0.174 N 
HETATM   17  N   UNK N   1      35.584  15.975  11.281  0.00  0.00    -0.348 N 
HETATM   18  C   UNK N   1      36.521  14.055  14.203  0.00  0.00     0.680 A 
HETATM   19  H   UNK N   1      36.900  15.929  13.491  0.00  0.00     0.186 HD
HETATM   20  N   UNK N   1      35.871  12.880  13.974  0.00  0.00    -0.154 N 
HETATM   21  N   UNK N   1      37.294  14.204  15.368  0.00  0.00    -0.234 N 
ATOM     22  HN  UNK N   1      35.949  12.119  14.648  1.00  0.00     0.187 HD
HETATM   23  H   UNK N   1      37.362  13.462  16.013  0.00  0.00     0.174 HD
HETATM   24  H   UNK N   1      37.767  15.050  15.540  0.00  0.00     0.174 HD
HETATM   25  C   UNK N   1      34.841  15.834  10.142  0.00  0.00     0.116 A 
ATOM     26  HN  UNK N   1      36.069  16.853  11.461  1.00  0.00     0.167 HD
HETATM   27  O   UNK N   1      34.539  11.654  12.651  0.00  0.00    -0.265 OA
ENDBRANCH   9  10
ENDBRANCH   7   9
ENDBRANCH   2   7
BRANCH   1  28
HETATM   28  C   UNK N   1      28.197  17.610   6.190  0.00  0.00     0.252 C 
HETATM   29  O   UNK N   1      27.319  16.816   5.892  0.00  0.00    -0.268 OA
HETATM   30  N   UNK N   1      28.002  18.949   6.128  0.00  0.00    -0.343 N 
HETATM   31  H   UNK N   1      28.796  19.500   6.316  0.00  0.00     0.163 HD
BRANCH  30  32
HETATM   32  C   UNK N   1      26.794  19.686   5.825  0.00  0.00     0.183 C 
BRANCH  32  33
HETATM   33  C   UNK N   1      26.653  20.039   4.349  0.00  0.00     0.046 C 
BRANCH  33  34
HETATM   34  C   UNK N   1      25.333  19.462   3.855  0.00  0.00     0.112 C 
BRANCH  34  35
HETATM   35  C   UNK N   1      24.622  20.413   2.956  0.00  0.00     0.139 C 
HETATM   36  O   UNK N   1      25.175  20.827   1.950  0.00  0.00    -0.650 OA
BRANCH  35  37
HETATM   37  O   UNK N   1      23.360  20.790   3.230  0.00  0.00    -0.776 OA
HETATM   38  H   UNK N   1      22.919  20.723   4.055  0.00  0.00     0.167 HD
ENDBRANCH  35  37
ENDBRANCH  34  35
ENDBRANCH  33  34
ENDBRANCH  32  33
BRANCH  32  39
HETATM   39  C   UNK N   1      26.777  20.917   6.693  0.00  0.00     0.163 C 
HETATM   40  O   UNK N   1      27.478  21.883   6.418  0.00  0.00    -0.648 OA
BRANCH  39  41
HETATM   41  O   UNK N   1      26.012  20.951   7.798  0.00  0.00    -0.775 OA
HETATM   42  H   UNK N   1      25.914  20.187   8.332  0.00  0.00     0.167 HD
ENDBRANCH  39  41
ENDBRANCH  32  39
ENDBRANCH  30  32
ENDBRANCH   1  28
TORSDOF 11
ENDMDL
MODEL 5
REMARK VINA RESULT:      -7.8      8.157     12.932
REMARK  11 active torsions:
REMARK  status: ('A' for Active; 'I' for Inactive)
REMARK    1  A    between atoms: O_1  and  C_22 
REMARK    2  A    between atoms: O_4  and  C_30 
REMARK    3  A    between atoms: C_17  and  N_7 
REMARK       I    between atoms: N_7  and  C_20 
REMARK    4  A    between atoms: N_8  and  C_23 
REMARK    5  A    between atoms: N_8  and  C_24 
REMARK       I    between atoms: N_16  and  C_35 
REMARK    6  A    between atoms: C_17  and  C_18 
REMARK    7  A    between atoms: C_17  and  C_22 
REMARK    8  A    between atoms: C_18  and  C_19 
REMARK    9  A    between atoms: C_19  and  C_30 
REMARK   10  A    between atoms: C_20  and  C_21 
REMARK   11  A    between atoms: C_24  and  C_29 
ROOT
HETATM    1  C   UNK N   1      35.292  15.160  10.452  0.00  0.00     0.032 A 
HETATM    2  C   UNK N   1      36.226  12.686  11.310  0.00  0.00     0.028 A 
HETATM    3  C   UNK N   1      36.420  14.579   9.850  0.00  0.00     0.019 A 
HETATM    4  C   UNK N   1      34.627  14.490  11.481  0.00  0.00     0.019 A 
HETATM    5  C   UNK N   1      36.891  13.344  10.278  0.00  0.00     0.030 A 
HETATM    6  C   UNK N   1      35.096  13.252  11.904  0.00  0.00     0.030 A 
ENDROOT
BRANCH   2   7
HETATM    7  N   UNK N   1      36.670  11.454  11.797  0.00  0.00    -0.384 N 
HETATM    8  H   UNK N   1      36.275  10.655  11.379  0.00  0.00     0.160 HD
BRANCH   7   9
HETATM    9  C   UNK N   1      37.636  11.216  12.840  0.00  0.00     0.178 C 
BRANCH   9  10
HETATM   10  C   UNK N   1      36.945  11.601  14.107  0.00  0.00     0.043 A 
HETATM   11  N   UNK N   1      37.197  12.831  14.623  0.00  0.00    -0.350 N 
HETATM   12  C   UNK N   1      36.609  13.265  15.750  0.00  0.00     0.147 A 
ATOM     13  HN  UNK N   1      37.854  13.444  14.141  1.00  0.00     0.166 HD
HETATM   14  C   UNK N   1      35.709  12.435  16.418  0.00  0.00     0.153 A 
HETATM   15  C   UNK N   1      36.882  14.531  16.253  0.00  0.00     0.290 A 
HETATM   16  N   UNK N   1      35.110  12.878  17.554  0.00  0.00    -0.174 N 
HETATM   17  N   UNK N   1      35.445  11.193  15.919  0.00  0.00    -0.348 N 
HETATM   18  C   UNK N   1      35.382  14.123  18.042  0.00  0.00     0.680 A 
HETATM   19  H   UNK N   1      34.475  12.295  18.030  0.00  0.00     0.186 HD
HETATM   20  N   UNK N   1      36.260  14.941  17.398  0.00  0.00    -0.154 N 
HETATM   21  N   UNK N   1      34.752  14.570  19.218  0.00  0.00    -0.234 N 
ATOM     22  HN  UNK N   1      36.454  15.869  17.774  1.00  0.00     0.187 HD
HETATM   23  H   UNK N   1      34.948  15.468  19.572  0.00  0.00     0.174 HD
HETATM   24  H   UNK N   1      34.115  13.983  19.688  0.00  0.00     0.174 HD
HETATM   25  C   UNK N   1      36.047  10.755  14.772  0.00  0.00     0.116 A 
ATOM     26  HN  UNK N   1      34.790  10.583  16.408  1.00  0.00     0.167 HD
HETATM   27  O   UNK N   1      37.665  15.273  15.683  0.00  0.00    -0.265 OA
ENDBRANCH   9  10
ENDBRANCH   7   9
ENDBRANCH   2   7
BRANCH   1  28
HETATM   28  C   UNK N   1      34.860  16.486  10.020  0.00  0.00     0.252 C 
HETATM   29  O   UNK N   1      35.448  17.484  10.406  0.00  0.00    -0.268 OA
HETATM   30  N   UNK N   1      33.807  16.561   9.172  0.00  0.00    -0.343 N 
HETATM   31  H   UNK N   1      33.356  15.706   8.983  0.00  0.00     0.163 HD
BRANCH  30  32
HETATM   32  C   UNK N   1      33.248  17.717   8.504  0.00  0.00     0.183 C 
BRANCH  32  33
HETATM   33  C   UNK N   1      31.950  17.418   7.761  0.00  0.00     0.046 C 
BRANCH  33  34
HETATM   34  C   UNK N   1      30.974  16.804   8.755  0.00  0.00     0.112 C 
BRANCH  34  35
HETATM   35  C   UNK N   1      29.851  17.732   9.065  0.00  0.00     0.139 C 
HETATM   36  O   UNK N   1      28.890  17.794   8.316  0.00  0.00    -0.650 OA
BRANCH  35  37
HETATM   37  O   UNK N   1      29.877  18.477  10.185  0.00  0.00    -0.776 OA
HETATM   38  H   UNK N   1      30.088  19.388  10.250  0.00  0.00     0.167 HD
ENDBRANCH  35  37
ENDBRANCH  34  35
ENDBRANCH  33  34
ENDBRANCH  32  33
BRANCH  32  39
HETATM   39  C   UNK N   1      34.301  18.267   7.579  0.00  0.00     0.163 C 
HETATM   40  O   UNK N   1      34.323  17.944   6.398  0.00  0.00    -0.648 OA
BRANCH  39  41
HETATM   41  O   UNK N   1      35.247  19.095   8.054  0.00  0.00    -0.775 OA
HETATM   42  H   UNK N   1      36.025  18.753   8.448  0.00  0.00     0.167 HD
ENDBRANCH  39  41
ENDBRANCH  32  39
ENDBRANCH  30  32
ENDBRANCH   1  28
TORSDOF 11
ENDMDL
MODEL 6
REMARK VINA RESULT:      -7.7      6.058      7.494
REMARK  11 active torsions:
REMARK  status: ('A' for Active; 'I' for Inactive)
REMARK    1  A    between atoms: O_1  and  C_22 
REMARK    2  A    between atoms: O_4  and  C_30 
REMARK    3  A    between atoms: C_17  and  N_7 
REMARK       I    between atoms: N_7  and  C_20 
REMARK    4  A    between atoms: N_8  and  C_23 
REMARK    5  A    between atoms: N_8  and  C_24 
REMARK       I    between atoms: N_16  and  C_35 
REMARK    6  A    between atoms: C_17  and  C_18 
REMARK    7  A    between atoms: C_17  and  C_22 
REMARK    8  A    between atoms: C_18  and  C_19 
REMARK    9  A    between atoms: C_19  and  C_30 
REMARK   10  A    between atoms: C_20  and  C_21 
REMARK   11  A    between atoms: C_24  and  C_29 
ROOT
HETATM    1  C   UNK N   1      24.911  12.976   7.337  0.00  0.00     0.032 A 
HETATM    2  C   UNK N   1      26.611  14.655   5.915  0.00  0.00     0.028 A 
HETATM    3  C   UNK N   1      25.155  14.284   7.785  0.00  0.00     0.019 A 
HETATM    4  C   UNK N   1      25.517  12.515   6.166  0.00  0.00     0.019 A 
HETATM    5  C   UNK N   1      26.005  15.126   7.077  0.00  0.00     0.030 A 
HETATM    6  C   UNK N   1      26.363  13.359   5.457  0.00  0.00     0.030 A 
ENDROOT
BRANCH   2   7
HETATM    7  N   UNK N   1      27.493  15.448   5.178  0.00  0.00    -0.384 N 
HETATM    8  H   UNK N   1      28.081  14.972   4.547  0.00  0.00     0.160 HD
BRANCH   7   9
HETATM    9  C   UNK N   1      27.645  16.881   5.232  0.00  0.00     0.178 C 
BRANCH   9  10
HETATM   10  C   UNK N   1      28.722  17.121   6.238  0.00  0.00     0.043 A 
HETATM   11  N   UNK N   1      29.907  16.481   6.070  0.00  0.00    -0.350 N 
HETATM   12  C   UNK N   1      30.935  16.650   6.918  0.00  0.00     0.147 A 
ATOM     13  HN  UNK N   1      30.022  15.853   5.275  1.00  0.00     0.166 HD
HETATM   14  C   UNK N   1      30.790  17.507   8.010  0.00  0.00     0.153 A 
HETATM   15  C   UNK N   1      32.139  15.987   6.718  0.00  0.00     0.290 A 
HETATM   16  N   UNK N   1      31.832  17.681   8.863  0.00  0.00    -0.174 N 
HETATM   17  N   UNK N   1      29.605  18.156   8.200  0.00  0.00    -0.348 N 
HETATM   18  C   UNK N   1      33.013  17.028   8.660  0.00  0.00     0.680 A 
HETATM   19  H   UNK N   1      31.735  18.284   9.636  0.00  0.00     0.186 HD
HETATM   20  N   UNK N   1      33.165  16.188   7.599  0.00  0.00    -0.154 N 
HETATM   21  N   UNK N   1      34.084  17.220   9.551  0.00  0.00    -0.234 N 
ATOM     22  HN  UNK N   1      34.052  15.705   7.459  1.00  0.00     0.187 HD
HETATM   23  H   UNK N   1      34.937  16.748   9.406  0.00  0.00     0.174 HD
HETATM   24  H   UNK N   1      33.982  17.826  10.321  0.00  0.00     0.174 HD
HETATM   25  C   UNK N   1      28.562  17.980   7.334  0.00  0.00     0.116 A 
ATOM     26  HN  UNK N   1      29.496  18.779   9.000  1.00  0.00     0.167 HD
HETATM   27  O   UNK N   1      32.287  15.234   5.770  0.00  0.00    -0.265 OA
ENDBRANCH   9  10
ENDBRANCH   7   9
ENDBRANCH   2   7
BRANCH   1  28
HETATM   28  C   UNK N   1      24.062  12.098   8.136  0.00  0.00     0.252 C 
HETATM   29  O   UNK N   1      23.739  10.998   7.716  0.00  0.00    -0.268 OA
HETATM   30  N   UNK N   1      23.668  12.540   9.355  0.00  0.00    -0.343 N 
HETATM   31  H   UNK N   1      23.918  13.468   9.567  0.00  0.00     0.163 HD
BRANCH  30  32
HETATM   32  C   UNK N   1      22.933  11.845  10.389  0.00  0.00     0.183 C 
BRANCH  32  33
HETATM   33  C   UNK N   1      21.506  12.354  10.564  0.00  0.00     0.046 C 
BRANCH  33  34
HETATM   34  C   UNK N   1      21.459  13.793  10.066  0.00  0.00     0.112 C 
BRANCH  34  35
HETATM   35  C   UNK N   1      20.257  14.041   9.222  0.00  0.00     0.139 C 
HETATM   36  O   UNK N   1      19.226  14.443   9.736  0.00  0.00    -0.650 OA
BRANCH  35  37
HETATM   37  O   UNK N   1      20.315  13.856   7.891  0.00  0.00    -0.776 OA
HETATM   38  H   UNK N   1      19.745  14.230   7.246  0.00  0.00     0.167 HD
ENDBRANCH  35  37
ENDBRANCH  34  35
ENDBRANCH  33  34
ENDBRANCH  32  33
BRANCH  32  39
HETATM   39  C   UNK N   1      23.721  11.957  11.667  0.00  0.00     0.163 C 
HETATM   40  O   UNK N   1      23.163  11.863  12.754  0.00  0.00    -0.648 OA
BRANCH  39  41
HETATM   41  O   UNK N   1      25.043  12.193  11.624  0.00  0.00    -0.775 OA
HETATM   42  H   UNK N   1      25.514  12.111  10.817  0.00  0.00     0.167 HD
ENDBRANCH  39  41
ENDBRANCH  32  39
ENDBRANCH  30  32
ENDBRANCH   1  28
TORSDOF 11
ENDMDL
MODEL 7
REMARK VINA RESULT:      -7.7      7.323     11.337
REMARK  11 active torsions:
REMARK  status: ('A' for Active; 'I' for Inactive)
REMARK    1  A    between atoms: O_1  and  C_22 
REMARK    2  A    between atoms: O_4  and  C_30 
REMARK    3  A    between atoms: C_17  and  N_7 
REMARK       I    between atoms: N_7  and  C_20 
REMARK    4  A    between atoms: N_8  and  C_23 
REMARK    5  A    between atoms: N_8  and  C_24 
REMARK       I    between atoms: N_16  and  C_35 
REMARK    6  A    between atoms: C_17  and  C_18 
REMARK    7  A    between atoms: C_17  and  C_22 
REMARK    8  A    between atoms: C_18  and  C_19 
REMARK    9  A    between atoms: C_19  and  C_30 
REMARK   10  A    between atoms: C_20  and  C_21 
REMARK   11  A    between atoms: C_24  and  C_29 
ROOT
HETATM    1  C   UNK N   1      34.326  16.467   8.289  0.00  0.00     0.032 A 
HETATM    2  C   UNK N   1      35.991  15.449  10.269  0.00  0.00     0.028 A 
HETATM    3  C   UNK N   1      34.555  17.195   9.467  0.00  0.00     0.019 A 
HETATM    4  C   UNK N   1      34.943  15.228   8.103  0.00  0.00     0.019 A 
HETATM    5  C   UNK N   1      35.386  16.689  10.459  0.00  0.00     0.030 A 
HETATM    6  C   UNK N   1      35.777  14.725   9.093  0.00  0.00     0.030 A 
ENDROOT
BRANCH   2   7
HETATM    7  N   UNK N   1      36.815  14.881  11.243  0.00  0.00    -0.384 N 
HETATM    8  H   UNK N   1      37.337  15.511  11.791  0.00  0.00     0.160 HD
BRANCH   7   9
HETATM    9  C   UNK N   1      36.991  13.481  11.540  0.00  0.00     0.178 C 
BRANCH   9  10
HETATM   10  C   UNK N   1      36.440  13.302  12.916  0.00  0.00     0.043 A 
HETATM   11  N   UNK N   1      36.887  14.129  13.895  0.00  0.00    -0.350 N 
HETATM   12  C   UNK N   1      36.435  14.048  15.157  0.00  0.00     0.147 A 
ATOM     13  HN  UNK N   1      37.588  14.833  13.666  1.00  0.00     0.166 HD
HETATM   14  C   UNK N   1      35.476  13.089  15.483  0.00  0.00     0.153 A 
HETATM   15  C   UNK N   1      36.907  14.911  16.139  0.00  0.00     0.290 A 
HETATM   16  N   UNK N   1      35.016  13.013  16.758  0.00  0.00    -0.174 N 
HETATM   17  N   UNK N   1      35.017  12.244  14.515  0.00  0.00    -0.348 N 
HETATM   18  C   UNK N   1      35.481  13.864  17.717  0.00  0.00     0.680 A 
HETATM   19  H   UNK N   1      34.339  12.336  16.994  0.00  0.00     0.186 HD
HETATM   20  N   UNK N   1      36.418  14.804  17.411  0.00  0.00    -0.154 N 
HETATM   21  N   UNK N   1      34.993  13.775  19.034  0.00  0.00    -0.234 N 
ATOM     22  HN  UNK N   1      36.759  15.433  18.138  1.00  0.00     0.187 HD
HETATM   23  H   UNK N   1      35.330  14.389  19.727  0.00  0.00     0.174 HD
HETATM   24  H   UNK N   1      34.315  13.098  19.262  0.00  0.00     0.174 HD
HETATM   25  C   UNK N   1      35.481  12.330  13.231  0.00  0.00     0.116 A 
ATOM     26  HN  UNK N   1      34.319  11.539  14.751  1.00  0.00     0.167 HD
HETATM   27  O   UNK N   1      37.744  15.757  15.875  0.00  0.00    -0.265 OA
ENDBRANCH   9  10
ENDBRANCH   7   9
ENDBRANCH   2   7
BRANCH   1  28
HETATM   28  C   UNK N   1      33.400  16.999   7.293  0.00  0.00     0.252 C 
HETATM   29  O   UNK N   1      33.817  17.624   6.331  0.00  0.00    -0.268 OA
HETATM   30  N   UNK N   1      32.078  16.758   7.470  0.00  0.00    -0.343 N 
HETATM   31  H   UNK N   1      31.841  16.313   8.315  0.00  0.00     0.163 HD
BRANCH  30  32
HETATM   32  C   UNK N   1      30.966  17.061   6.595  0.00  0.00     0.183 C 
BRANCH  32  33
HETATM   33  C   UNK N   1      29.709  17.494   7.341  0.00  0.00     0.046 C 
BRANCH  33  34
HETATM   34  C   UNK N   1      30.039  17.535   8.828  0.00  0.00     0.112 C 
BRANCH  34  35
HETATM   35  C   UNK N   1      28.810  17.442   9.664  0.00  0.00     0.139 C 
HETATM   36  O   UNK N   1      28.785  16.691  10.625  0.00  0.00    -0.650 OA
BRANCH  35  37
HETATM   37  O   UNK N   1      27.740  18.208   9.384  0.00  0.00    -0.776 OA
HETATM   38  H   UNK N   1      26.853  17.921   9.286  0.00  0.00     0.167 HD
ENDBRANCH  35  37
ENDBRANCH  34  35
ENDBRANCH  33  34
ENDBRANCH  32  33
BRANCH  32  39
HETATM   39  C   UNK N   1      30.712  15.849   5.739  0.00  0.00     0.163 C 
HETATM   40  O   UNK N   1      30.362  15.973   4.572  0.00  0.00    -0.648 OA
BRANCH  39  41
HETATM   41  O   UNK N   1      30.839  14.617   6.262  0.00  0.00    -0.775 OA
HETATM   42  H   UNK N   1      30.091  14.165   6.600  0.00  0.00     0.167 HD
ENDBRANCH  39  41
ENDBRANCH  32  39
ENDBRANCH  30  32
ENDBRANCH   1  28
TORSDOF 11
ENDMDL
MODEL 8
REMARK VINA RESULT:      -7.7      3.305     11.550
REMARK  11 active torsions:
REMARK  status: ('A' for Active; 'I' for Inactive)
REMARK    1  A    between atoms: O_1  and  C_22 
REMARK    2  A    between atoms: O_4  and  C_30 
REMARK    3  A    between atoms: C_17  and  N_7 
REMARK       I    between atoms: N_7  and  C_20 
REMARK    4  A    between atoms: N_8  and  C_23 
REMARK    5  A    between atoms: N_8  and  C_24 
REMARK       I    between atoms: N_16  and  C_35 
REMARK    6  A    between atoms: C_17  and  C_18 
REMARK    7  A    between atoms: C_17  and  C_22 
REMARK    8  A    between atoms: C_18  and  C_19 
REMARK    9  A    between atoms: C_19  and  C_30 
REMARK   10  A    between atoms: C_20  and  C_21 
REMARK   11  A    between atoms: C_24  and  C_29 
ROOT
HETATM    1  C   UNK N   1      30.359  17.030   6.630  0.00  0.00     0.032 A 
HETATM    2  C   UNK N   1      27.974  18.374   6.143  0.00  0.00     0.028 A 
HETATM    3  C   UNK N   1      29.979  17.349   5.316  0.00  0.00     0.019 A 
HETATM    4  C   UNK N   1      29.542  17.397   7.701  0.00  0.00     0.019 A 
HETATM    5  C   UNK N   1      28.787  18.019   5.069  0.00  0.00     0.030 A 
HETATM    6  C   UNK N   1      28.353  18.071   7.453  0.00  0.00     0.030 A 
ENDROOT
BRANCH   2   7
HETATM    7  N   UNK N   1      26.754  19.026   5.952  0.00  0.00    -0.384 N 
HETATM    8  H   UNK N   1      26.022  18.761   6.555  0.00  0.00     0.160 HD
BRANCH   7   9
HETATM    9  C   UNK N   1      26.440  20.039   4.976  0.00  0.00     0.178 C 
BRANCH   9  10
HETATM   10  C   UNK N   1      25.071  19.697   4.486  0.00  0.00     0.043 A 
HETATM   11  N   UNK N   1      24.440  18.635   5.047  0.00  0.00    -0.350 N 
HETATM   12  C   UNK N   1      23.202  18.266   4.677  0.00  0.00     0.147 A 
ATOM     13  HN  UNK N   1      24.919  18.101   5.771  1.00  0.00     0.166 HD
HETATM   14  C   UNK N   1      22.537  18.989   3.687  0.00  0.00     0.153 A 
HETATM   15  C   UNK N   1      22.577  17.176   5.272  0.00  0.00     0.290 A 
HETATM   16  N   UNK N   1      21.283  18.618   3.319  0.00  0.00    -0.174 N 
HETATM   17  N   UNK N   1      23.156  20.057   3.107  0.00  0.00    -0.348 N 
HETATM   18  C   UNK N   1      20.674  17.548   3.909  0.00  0.00     0.680 A 
HETATM   19  H   UNK N   1      20.809  19.125   2.620  0.00  0.00     0.186 HD
HETATM   20  N   UNK N   1      21.315  16.834   4.875  0.00  0.00    -0.154 N 
HETATM   21  N   UNK N   1      19.374  17.177   3.519  0.00  0.00    -0.234 N 
ATOM     22  HN  UNK N   1      20.848  16.036   5.307  1.00  0.00     0.187 HD
HETATM   23  H   UNK N   1      18.934  16.405   3.943  0.00  0.00     0.174 HD
HETATM   24  H   UNK N   1      18.905  17.690   2.821  0.00  0.00     0.174 HD
HETATM   25  C   UNK N   1      24.416  20.429   3.486  0.00  0.00     0.116 A 
ATOM     26  HN  UNK N   1      22.673  20.585   2.380  1.00  0.00     0.167 HD
HETATM   27  O   UNK N   1      23.141  16.531   6.140  0.00  0.00    -0.265 OA
ENDBRANCH   9  10
ENDBRANCH   7   9
ENDBRANCH   2   7
BRANCH   1  28
HETATM   28  C   UNK N   1      31.588  16.272   6.850  0.00  0.00     0.252 C 
HETATM   29  O   UNK N   1      32.376  16.092   5.936  0.00  0.00    -0.268 OA
HETATM   30  N   UNK N   1      31.820  15.799   8.098  0.00  0.00    -0.343 N 
HETATM   31  H   UNK N   1      31.088  15.931   8.742  0.00  0.00     0.163 HD
BRANCH  30  32
HETATM   32  C   UNK N   1      32.990  15.126   8.620  0.00  0.00     0.183 C 
BRANCH  32  33
HETATM   33  C   UNK N   1      34.300  15.813   8.251  0.00  0.00     0.046 C 
BRANCH  33  34
HETATM   34  C   UNK N   1      34.364  17.133   9.010  0.00  0.00     0.112 C 
BRANCH  34  35
HETATM   35  C   UNK N   1      34.644  18.275   8.096  0.00  0.00     0.139 C 
HETATM   36  O   UNK N   1      35.129  19.303   8.540  0.00  0.00    -0.650 OA
BRANCH  35  37
HETATM   37  O   UNK N   1      34.395  18.166   6.779  0.00  0.00    -0.776 OA
HETATM   38  H   UNK N   1      33.948  18.787   6.237  0.00  0.00     0.167 HD
ENDBRANCH  35  37
ENDBRANCH  34  35
ENDBRANCH  33  34
ENDBRANCH  32  33
BRANCH  32  39
HETATM   39  C   UNK N   1      32.956  13.701   8.133  0.00  0.00     0.163 C 
HETATM   40  O   UNK N   1      32.537  12.805   8.855  0.00  0.00    -0.648 OA
BRANCH  39  41
HETATM   41  O   UNK N   1      33.416  13.398   6.907  0.00  0.00    -0.775 OA
HETATM   42  H   UNK N   1      33.043  12.689   6.421  0.00  0.00     0.167 HD
ENDBRANCH  39  41
ENDBRANCH  32  39
ENDBRANCH  30  32
ENDBRANCH   1  28
TORSDOF 11
ENDMDL
MODEL 9
REMARK VINA RESULT:      -7.5      2.418     11.611
REMARK  11 active torsions:
REMARK  status: ('A' for Active; 'I' for Inactive)
REMARK    1  A    between atoms: O_1  and  C_22 
REMARK    2  A    between atoms: O_4  and  C_30 
REMARK    3  A    between atoms: C_17  and  N_7 
REMARK       I    between atoms: N_7  and  C_20 
REMARK    4  A    between atoms: N_8  and  C_23 
REMARK    5  A    between atoms: N_8  and  C_24 
REMARK       I    between atoms: N_16  and  C_35 
REMARK    6  A    between atoms: C_17  and  C_18 
REMARK    7  A    between atoms: C_17  and  C_22 
REMARK    8  A    between atoms: C_18  and  C_19 
REMARK    9  A    between atoms: C_19  and  C_30 
REMARK   10  A    between atoms: C_20  and  C_21 
REMARK   11  A    between atoms: C_24  and  C_29 
ROOT
HETATM    1  C   UNK N   1      30.426  17.228   6.898  0.00  0.00     0.032 A 
HETATM    2  C   UNK N   1      28.015  17.733   5.608  0.00  0.00     0.028 A 
HETATM    3  C   UNK N   1      29.397  17.916   7.561  0.00  0.00     0.019 A 
HETATM    4  C   UNK N   1      30.239  16.785   5.587  0.00  0.00     0.019 A 
HETATM    5  C   UNK N   1      28.192  18.171   6.919  0.00  0.00     0.030 A 
HETATM    6  C   UNK N   1      29.031  17.036   4.948  0.00  0.00     0.030 A 
ENDROOT
BRANCH   2   7
HETATM    7  N   UNK N   1      26.835  17.983   4.907  0.00  0.00    -0.384 N 
HETATM    8  H   UNK N   1      26.486  17.239   4.364  0.00  0.00     0.160 HD
BRANCH   7   9
HETATM    9  C   UNK N   1      26.066  19.202   4.882  0.00  0.00     0.178 C 
BRANCH   9  10
HETATM   10  C   UNK N   1      24.680  18.782   4.518  0.00  0.00     0.043 A 
HETATM   11  N   UNK N   1      23.888  19.680   3.879  0.00  0.00    -0.350 N 
HETATM   12  C   UNK N   1      22.633  19.382   3.502  0.00  0.00     0.147 A 
ATOM     13  HN  UNK N   1      24.256  20.610   3.680  1.00  0.00     0.166 HD
HETATM   14  C   UNK N   1      22.119  18.113   3.770  0.00  0.00     0.153 A 
HETATM   15  C   UNK N   1      21.846  20.320   2.845  0.00  0.00     0.290 A 
HETATM   16  N   UNK N   1      20.853  17.812   3.381  0.00  0.00    -0.174 N 
HETATM   17  N   UNK N   1      22.897  17.197   4.415  0.00  0.00    -0.348 N 
HETATM   18  C   UNK N   1      20.086  18.737   2.735  0.00  0.00     0.680 A 
HETATM   19  H   UNK N   1      20.485  16.918   3.569  0.00  0.00     0.186 HD
HETATM   20  N   UNK N   1      20.577  19.979   2.470  0.00  0.00    -0.154 N 
HETATM   21  N   UNK N   1      18.777  18.409   2.337  0.00  0.00    -0.234 N 
ATOM     22  HN  UNK N   1      19.992  20.661   1.987  1.00  0.00     0.187 HD
HETATM   23  H   UNK N   1      18.221  19.076   1.871  0.00  0.00     0.174 HD
HETATM   24  H   UNK N   1      18.415  17.512   2.525  0.00  0.00     0.174 HD
HETATM   25  C   UNK N   1      24.173  17.506   4.798  0.00  0.00     0.116 A 
ATOM     26  HN  UNK N   1      22.522  16.270   4.615  1.00  0.00     0.167 HD
HETATM   27  O   UNK N   1      22.277  21.434   2.601  0.00  0.00    -0.265 OA
ENDBRANCH   9  10
ENDBRANCH   7   9
ENDBRANCH   2   7
BRANCH   1  28
HETATM   28  C   UNK N   1      31.703  17.030   7.579  0.00  0.00     0.252 C 
HETATM   29  O   UNK N   1      31.733  16.629   8.732  0.00  0.00    -0.268 OA
HETATM   30  N   UNK N   1      32.836  17.289   6.883  0.00  0.00    -0.343 N 
HETATM   31  H   UNK N   1      32.701  17.680   5.989  0.00  0.00     0.163 HD
BRANCH  30  32
HETATM   32  C   UNK N   1      34.215  17.074   7.262  0.00  0.00     0.183 C 
BRANCH  32  33
HETATM   33  C   UNK N   1      34.545  15.613   7.546  0.00  0.00     0.046 C 
BRANCH  33  34
HETATM   34  C   UNK N   1      34.040  14.784   6.372  0.00  0.00     0.112 C 
BRANCH  34  35
HETATM   35  C   UNK N   1      33.170  13.664   6.827  0.00  0.00     0.139 C 
HETATM   36  O   UNK N   1      31.975  13.684   6.579  0.00  0.00    -0.650 OA
BRANCH  35  37
HETATM   37  O   UNK N   1      33.702  12.615   7.480  0.00  0.00    -0.776 OA
HETATM   38  H   UNK N   1      33.365  11.740   7.507  0.00  0.00     0.167 HD
ENDBRANCH  35  37
ENDBRANCH  34  35
ENDBRANCH  33  34
ENDBRANCH  32  33
BRANCH  32  39
HETATM   39  C   UNK N   1      34.505  17.948   8.454  0.00  0.00     0.163 C 
HETATM   40  O   UNK N   1      34.908  19.095   8.302  0.00  0.00    -0.648 OA
BRANCH  39  41
HETATM   41  O   UNK N   1      34.352  17.463   9.698  0.00  0.00    -0.775 OA
HETATM   42  H   UNK N   1      33.613  16.927   9.911  0.00  0.00     0.167 HD
ENDBRANCH  39  41
ENDBRANCH  32  39
ENDBRANCH  30  32
ENDBRANCH   1  28
TORSDOF 11
ENDMDL
