MODEL 1
REMARK VINA RESULT:      -6.2      0.000      0.000
REMARK  13 active torsions:
REMARK  status: ('A' for Active; 'I' for Inactive)
REMARK    1  A    between atoms: O_2  and  C_24 
REMARK    2  A    between atoms: C_3  and  C_4 
REMARK    3  A    between atoms: C_4  and  C_6 
REMARK    4  A    between atoms: C_6  and  C_8 
REMARK    5  A    between atoms: C_7  and  C_8 
REMARK    6  A    between atoms: C_7  and  C_10 
REMARK    7  A    between atoms: C_10  and  C_13 
REMARK    8  A    between atoms: C_13  and  C_15 
REMARK    9  A    between atoms: C_15  and  C_16 
REMARK   10  A    between atoms: C_16  and  C_18 
REMARK   11  A    between atoms: C_18  and  C_21 
REMARK   12  A    between atoms: C_21  and  C_25 
REMARK   13  A    between atoms: C_25  and  C_26 
ROOT
HETATM    1  O   UNK N   1      28.025  23.362  -6.322  0.00  0.00    -0.339 OA
HETATM    2  C   UNK N   1      26.912  24.118  -5.950  0.00  0.00     0.064 C 
HETATM    3  C   UNK N   1      26.682  24.082  -4.425  0.00  0.00     0.043 C 
HETATM    4  C   UNK N   1      27.994  24.304  -3.691  0.00  0.00     0.045 C 
HETATM    5  C   UNK N   1      25.691  23.507  -6.611  0.00  0.00     0.046 C 
HETATM    6  C   UNK N   1      28.936  23.225  -4.109  0.00  0.00    -0.015 A 
HETATM    7  C   UNK N   1      28.915  22.807  -5.450  0.00  0.00     0.083 A 
HETATM    8  C   UNK N   1      29.818  22.630  -3.192  0.00  0.00    -0.019 A 
HETATM    9  C   UNK N   1      29.792  21.803  -5.884  0.00  0.00    -0.019 A 
HETATM   10  C   UNK N   1      30.674  21.198  -4.965  0.00  0.00    -0.020 A 
HETATM   11  C   UNK N   1      30.682  21.612  -3.622  0.00  0.00     0.078 A 
HETATM   12  C   UNK N   1      29.838  23.071  -1.763  0.00  0.00     0.052 C 
HETATM   13  C   UNK N   1      29.763  21.364  -7.313  0.00  0.00     0.052 C 
HETATM   14  C   UNK N   1      31.597  20.106  -5.406  0.00  0.00     0.052 C 
ENDROOT
BRANCH   2  15
HETATM   15  C   UNK N   1      27.102  25.553  -6.469  0.00  0.00     0.038 C 
BRANCH  15  16
HETATM   16  C   UNK N   1      25.816  26.269  -6.916  0.00  0.00     0.003 C 
BRANCH  16  17
HETATM   17  C   UNK N   1      25.221  27.162  -5.826  0.00  0.00     0.004 C 
BRANCH  17  18
HETATM   18  C   UNK N   1      26.302  27.666  -4.878  0.00  0.00    -0.019 C 
HETATM   19  C   UNK N   1      25.824  27.670  -3.435  0.00  0.00     0.010 C 
BRANCH  18  20
HETATM   20  C   UNK N   1      26.919  28.993  -5.329  0.00  0.00     0.004 C 
BRANCH  20  21
HETATM   21  C   UNK N   1      28.442  28.988  -5.371  0.00  0.00     0.001 C 
BRANCH  21  22
HETATM   22  C   UNK N   1      29.061  29.485  -4.079  0.00  0.00     0.004 C 
BRANCH  22  23
HETATM   23  C   UNK N   1      29.628  28.293  -3.323  0.00  0.00    -0.019 C 
HETATM   24  C   UNK N   1      30.842  28.713  -2.516  0.00  0.00     0.010 C 
BRANCH  23  25
HETATM   25  C   UNK N   1      30.022  27.186  -4.276  0.00  0.00     0.004 C 
BRANCH  25  26
HETATM   26  C   UNK N   1      31.103  26.326  -3.645  0.00  0.00     0.001 C 
BRANCH  26  27
HETATM   27  C   UNK N   1      32.207  26.059  -4.654  0.00  0.00     0.004 C 
BRANCH  27  28
HETATM   28  C   UNK N   1      32.066  24.683  -5.295  0.00  0.00    -0.023 C 
HETATM   29  C   UNK N   1      33.328  23.855  -5.123  0.00  0.00     0.009 C 
HETATM   30  C   UNK N   1      31.798  24.855  -6.774  0.00  0.00     0.009 C 
ENDBRANCH  27  28
ENDBRANCH  26  27
ENDBRANCH  25  26
ENDBRANCH  23  25
ENDBRANCH  22  23
ENDBRANCH  21  22
ENDBRANCH  20  21
ENDBRANCH  18  20
ENDBRANCH  17  18
ENDBRANCH  16  17
ENDBRANCH  15  16
ENDBRANCH   2  15
BRANCH  11  31
HETATM   31  O   UNK N   1      31.520  21.028  -2.743  0.00  0.00    -0.360 OA
HETATM   32  H   UNK N   1      31.286  20.216  -2.338  0.00  0.00     0.217 HD
ENDBRANCH  11  31
TORSDOF 13
ENDMDL
MODEL 2
REMARK VINA RESULT:      -5.8      1.237      2.018
REMARK  13 active torsions:
REMARK  status: ('A' for Active; 'I' for Inactive)
REMARK    1  A    between atoms: O_2  and  C_24 
REMARK    2  A    between atoms: C_3  and  C_4 
REMARK    3  A    between atoms: C_4  and  C_6 
REMARK    4  A    between atoms: C_6  and  C_8 
REMARK    5  A    between atoms: C_7  and  C_8 
REMARK    6  A    between atoms: C_7  and  C_10 
REMARK    7  A    between atoms: C_10  and  C_13 
REMARK    8  A    between atoms: C_13  and  C_15 
REMARK    9  A    between atoms: C_15  and  C_16 
REMARK   10  A    between atoms: C_16  and  C_18 
REMARK   11  A    between atoms: C_18  and  C_21 
REMARK   12  A    between atoms: C_21  and  C_25 
REMARK   13  A    between atoms: C_25  and  C_26 
ROOT
HETATM    1  O   UNK N   1      27.961  23.148  -6.237  0.00  0.00    -0.339 OA
HETATM    2  C   UNK N   1      26.819  23.852  -5.855  0.00  0.00     0.064 C 
HETATM    3  C   UNK N   1      26.628  23.841  -4.324  0.00  0.00     0.043 C 
HETATM    4  C   UNK N   1      27.943  24.151  -3.629  0.00  0.00     0.045 C 
HETATM    5  C   UNK N   1      25.617  23.160  -6.470  0.00  0.00     0.046 C 
HETATM    6  C   UNK N   1      28.932  23.115  -4.045  0.00  0.00    -0.015 A 
HETATM    7  C   UNK N   1      28.902  22.663  -5.375  0.00  0.00     0.083 A 
HETATM    8  C   UNK N   1      29.867  22.592  -3.138  0.00  0.00    -0.019 A 
HETATM    9  C   UNK N   1      29.821  21.697  -5.808  0.00  0.00    -0.019 A 
HETATM   10  C   UNK N   1      30.757  21.165  -4.898  0.00  0.00    -0.020 A 
HETATM   11  C   UNK N   1      30.774  21.611  -3.565  0.00  0.00     0.078 A 
HETATM   12  C   UNK N   1      29.897  23.068  -1.720  0.00  0.00     0.052 C 
HETATM   13  C   UNK N   1      29.782  21.223  -7.225  0.00  0.00     0.052 C 
HETATM   14  C   UNK N   1      31.727  20.113  -5.337  0.00  0.00     0.052 C 
ENDROOT
BRANCH   2  15
HETATM   15  C   UNK N   1      26.917  25.281  -6.411  0.00  0.00     0.038 C 
BRANCH  15  16
HETATM   16  C   UNK N   1      25.582  26.038  -6.529  0.00  0.00     0.003 C 
BRANCH  16  17
HETATM   17  C   UNK N   1      25.625  27.425  -5.888  0.00  0.00     0.004 C 
BRANCH  17  18
HETATM   18  C   UNK N   1      26.660  27.483  -4.771  0.00  0.00    -0.019 C 
HETATM   19  C   UNK N   1      26.005  27.469  -3.399  0.00  0.00     0.010 C 
BRANCH  18  20
HETATM   20  C   UNK N   1      27.678  28.611  -4.960  0.00  0.00     0.004 C 
BRANCH  20  21
HETATM   21  C   UNK N   1      27.829  29.076  -6.403  0.00  0.00     0.001 C 
BRANCH  21  22
HETATM   22  C   UNK N   1      29.276  29.318  -6.788  0.00  0.00     0.004 C 
BRANCH  22  23
HETATM   23  C   UNK N   1      29.564  28.571  -8.081  0.00  0.00    -0.019 C 
HETATM   24  C   UNK N   1      28.311  27.873  -8.575  0.00  0.00     0.010 C 
BRANCH  23  25
HETATM   25  C   UNK N   1      30.660  27.547  -7.882  0.00  0.00     0.004 C 
BRANCH  25  26
HETATM   26  C   UNK N   1      30.934  27.372  -6.398  0.00  0.00     0.001 C 
BRANCH  26  27
HETATM   27  C   UNK N   1      30.552  25.967  -5.964  0.00  0.00     0.004 C 
BRANCH  27  28
HETATM   28  C   UNK N   1      31.188  25.595  -4.630  0.00  0.00    -0.023 C 
HETATM   29  C   UNK N   1      31.146  26.755  -3.649  0.00  0.00     0.009 C 
HETATM   30  C   UNK N   1      32.633  25.211  -4.864  0.00  0.00     0.009 C 
ENDBRANCH  27  28
ENDBRANCH  26  27
ENDBRANCH  25  26
ENDBRANCH  23  25
ENDBRANCH  22  23
ENDBRANCH  21  22
ENDBRANCH  20  21
ENDBRANCH  18  20
ENDBRANCH  17  18
ENDBRANCH  16  17
ENDBRANCH  15  16
ENDBRANCH   2  15
BRANCH  11  31
HETATM   31  O   UNK N   1      31.664  21.095  -2.694  0.00  0.00    -0.360 OA
HETATM   32  H   UNK N   1      32.496  20.788  -2.999  0.00  0.00     0.217 HD
ENDBRANCH  11  31
TORSDOF 13
ENDMDL
MODEL 3
REMARK VINA RESULT:      -5.6      2.324      5.770
REMARK  13 active torsions:
REMARK  status: ('A' for Active; 'I' for Inactive)
REMARK    1  A    between atoms: O_2  and  C_24 
REMARK    2  A    between atoms: C_3  and  C_4 
REMARK    3  A    between atoms: C_4  and  C_6 
REMARK    4  A    between atoms: C_6  and  C_8 
REMARK    5  A    between atoms: C_7  and  C_8 
REMARK    6  A    between atoms: C_7  and  C_10 
REMARK    7  A    between atoms: C_10  and  C_13 
REMARK    8  A    between atoms: C_13  and  C_15 
REMARK    9  A    between atoms: C_15  and  C_16 
REMARK   10  A    between atoms: C_16  and  C_18 
REMARK   11  A    between atoms: C_18  and  C_21 
REMARK   12  A    between atoms: C_21  and  C_25 
REMARK   13  A    between atoms: C_25  and  C_26 
ROOT
HETATM    1  O   UNK N   1      27.660  29.317  -4.849  0.00  0.00    -0.339 OA
HETATM    2  C   UNK N   1      26.854  29.433  -3.716  0.00  0.00     0.064 C 
HETATM    3  C   UNK N   1      25.629  28.498  -3.790  0.00  0.00     0.043 C 
HETATM    4  C   UNK N   1      26.054  27.112  -4.244  0.00  0.00     0.045 C 
HETATM    5  C   UNK N   1      26.337  30.859  -3.656  0.00  0.00     0.046 C 
HETATM    6  C   UNK N   1      26.695  27.250  -5.584  0.00  0.00    -0.015 A 
HETATM    7  C   UNK N   1      27.504  28.372  -5.821  0.00  0.00     0.083 A 
HETATM    8  C   UNK N   1      26.492  26.293  -6.592  0.00  0.00    -0.019 A 
HETATM    9  C   UNK N   1      28.132  28.533  -7.065  0.00  0.00    -0.019 A 
HETATM   10  C   UNK N   1      27.926  27.579  -8.082  0.00  0.00    -0.020 A 
HETATM   11  C   UNK N   1      27.104  26.464  -7.843  0.00  0.00     0.078 A 
HETATM   12  C   UNK N   1      25.626  25.099  -6.342  0.00  0.00     0.052 C 
HETATM   13  C   UNK N   1      28.993  29.731  -7.308  0.00  0.00     0.052 C 
HETATM   14  C   UNK N   1      28.566  27.750  -9.423  0.00  0.00     0.052 C 
ENDROOT
BRANCH   2  15
HETATM   15  C   UNK N   1      27.715  29.156  -2.474  0.00  0.00     0.038 C 
BRANCH  15  16
HETATM   16  C   UNK N   1      28.371  30.393  -1.835  0.00  0.00     0.003 C 
BRANCH  16  17
HETATM   17  C   UNK N   1      29.792  30.642  -2.342  0.00  0.00     0.004 C 
BRANCH  17  18
HETATM   18  C   UNK N   1      30.530  29.330  -2.577  0.00  0.00    -0.019 C 
HETATM   19  C   UNK N   1      31.649  29.128  -1.567  0.00  0.00     0.010 C 
BRANCH  18  20
HETATM   20  C   UNK N   1      30.969  29.145  -4.032  0.00  0.00     0.004 C 
BRANCH  20  21
HETATM   21  C   UNK N   1      30.991  27.693  -4.494  0.00  0.00     0.001 C 
BRANCH  21  22
HETATM   22  C   UNK N   1      30.015  26.823  -3.726  0.00  0.00     0.004 C 
BRANCH  22  23
HETATM   23  C   UNK N   1      30.042  25.423  -4.320  0.00  0.00    -0.019 C 
HETATM   24  C   UNK N   1      30.103  25.497  -5.834  0.00  0.00     0.010 C 
BRANCH  23  25
HETATM   25  C   UNK N   1      28.817  24.637  -3.908  0.00  0.00     0.004 C 
BRANCH  25  26
HETATM   26  C   UNK N   1      29.195  23.186  -3.668  0.00  0.00     0.001 C 
BRANCH  26  27
HETATM   27  C   UNK N   1      30.341  23.108  -2.673  0.00  0.00     0.004 C 
BRANCH  27  28
HETATM   28  C   UNK N   1      31.401  22.104  -3.109  0.00  0.00    -0.023 C 
HETATM   29  C   UNK N   1      32.346  22.701  -4.137  0.00  0.00     0.009 C 
HETATM   30  C   UNK N   1      30.716  20.901  -3.721  0.00  0.00     0.009 C 
ENDBRANCH  27  28
ENDBRANCH  26  27
ENDBRANCH  25  26
ENDBRANCH  23  25
ENDBRANCH  22  23
ENDBRANCH  21  22
ENDBRANCH  20  21
ENDBRANCH  18  20
ENDBRANCH  17  18
ENDBRANCH  16  17
ENDBRANCH  15  16
ENDBRANCH   2  15
BRANCH  11  31
HETATM   31  O   UNK N   1      26.902  25.556  -8.819  0.00  0.00    -0.360 OA
HETATM   32  H   UNK N   1      26.217  25.684  -9.445  0.00  0.00     0.217 HD
ENDBRANCH  11  31
TORSDOF 13
ENDMDL
MODEL 4
REMARK VINA RESULT:      -5.5      1.723      5.295
REMARK  13 active torsions:
REMARK  status: ('A' for Active; 'I' for Inactive)
REMARK    1  A    between atoms: O_2  and  C_24 
REMARK    2  A    between atoms: C_3  and  C_4 
REMARK    3  A    between atoms: C_4  and  C_6 
REMARK    4  A    between atoms: C_6  and  C_8 
REMARK    5  A    between atoms: C_7  and  C_8 
REMARK    6  A    between atoms: C_7  and  C_10 
REMARK    7  A    between atoms: C_10  and  C_13 
REMARK    8  A    between atoms: C_13  and  C_15 
REMARK    9  A    between atoms: C_15  and  C_16 
REMARK   10  A    between atoms: C_16  and  C_18 
REMARK   11  A    between atoms: C_18  and  C_21 
REMARK   12  A    between atoms: C_21  and  C_25 
REMARK   13  A    between atoms: C_25  and  C_26 
ROOT
HETATM    1  O   UNK N   1      27.007  26.219  -4.253  0.00  0.00    -0.339 OA
HETATM    2  C   UNK N   1      26.729  27.522  -4.667  0.00  0.00     0.064 C 
HETATM    3  C   UNK N   1      28.015  28.293  -5.030  0.00  0.00     0.043 C 
HETATM    4  C   UNK N   1      28.918  27.429  -5.895  0.00  0.00     0.045 C 
HETATM    5  C   UNK N   1      26.072  28.250  -3.509  0.00  0.00     0.046 C 
HETATM    6  C   UNK N   1      29.241  26.195  -5.123  0.00  0.00    -0.015 A 
HETATM    7  C   UNK N   1      28.233  25.624  -4.329  0.00  0.00     0.083 A 
HETATM    8  C   UNK N   1      30.519  25.615  -5.174  0.00  0.00    -0.019 A 
HETATM    9  C   UNK N   1      28.495  24.458  -3.595  0.00  0.00    -0.019 A 
HETATM   10  C   UNK N   1      29.779  23.877  -3.638  0.00  0.00    -0.020 A 
HETATM   11  C   UNK N   1      30.787  24.460  -4.424  0.00  0.00     0.078 A 
HETATM   12  C   UNK N   1      31.596  26.225  -6.015  0.00  0.00     0.052 C 
HETATM   13  C   UNK N   1      27.415  23.858  -2.753  0.00  0.00     0.052 C 
HETATM   14  C   UNK N   1      30.082  22.649  -2.840  0.00  0.00     0.052 C 
ENDROOT
BRANCH   2  15
HETATM   15  C   UNK N   1      25.745  27.460  -5.846  0.00  0.00     0.038 C 
BRANCH  15  16
HETATM   16  C   UNK N   1      25.314  26.046  -6.274  0.00  0.00     0.003 C 
BRANCH  16  17
HETATM   17  C   UNK N   1      26.089  25.529  -7.487  0.00  0.00     0.004 C 
BRANCH  17  18
HETATM   18  C   UNK N   1      26.390  24.042  -7.354  0.00  0.00    -0.019 C 
HETATM   19  C   UNK N   1      25.776  23.457  -6.091  0.00  0.00     0.010 C 
BRANCH  18  20
HETATM   20  C   UNK N   1      27.876  23.717  -7.528  0.00  0.00     0.004 C 
BRANCH  20  21
HETATM   21  C   UNK N   1      28.341  22.496  -6.742  0.00  0.00     0.001 C 
BRANCH  21  22
HETATM   22  C   UNK N   1      28.301  21.224  -7.566  0.00  0.00     0.004 C 
BRANCH  22  23
HETATM   23  C   UNK N   1      29.699  20.626  -7.603  0.00  0.00    -0.019 C 
HETATM   24  C   UNK N   1      29.621  19.116  -7.712  0.00  0.00     0.010 C 
BRANCH  23  25
HETATM   25  C   UNK N   1      30.478  20.996  -6.359  0.00  0.00     0.004 C 
BRANCH  25  26
HETATM   26  C   UNK N   1      31.510  19.923  -6.062  0.00  0.00     0.001 C 
BRANCH  26  27
HETATM   27  C   UNK N   1      32.742  20.548  -5.430  0.00  0.00     0.004 C 
BRANCH  27  28
HETATM   28  C   UNK N   1      33.041  19.950  -4.061  0.00  0.00    -0.023 C 
HETATM   29  C   UNK N   1      33.517  21.008  -3.081  0.00  0.00     0.009 C 
HETATM   30  C   UNK N   1      34.125  18.904  -4.208  0.00  0.00     0.009 C 
ENDBRANCH  27  28
ENDBRANCH  26  27
ENDBRANCH  25  26
ENDBRANCH  23  25
ENDBRANCH  22  23
ENDBRANCH  21  22
ENDBRANCH  20  21
ENDBRANCH  18  20
ENDBRANCH  17  18
ENDBRANCH  16  17
ENDBRANCH  15  16
ENDBRANCH   2  15
BRANCH  11  31
HETATM   31  O   UNK N   1      32.017  23.908  -4.458  0.00  0.00    -0.360 OA
HETATM   32  H   UNK N   1      32.742  24.352  -4.066  0.00  0.00     0.217 HD
ENDBRANCH  11  31
TORSDOF 13
ENDMDL
MODEL 5
REMARK VINA RESULT:      -5.5      2.083      3.344
REMARK  13 active torsions:
REMARK  status: ('A' for Active; 'I' for Inactive)
REMARK    1  A    between atoms: O_2  and  C_24 
REMARK    2  A    between atoms: C_3  and  C_4 
REMARK    3  A    between atoms: C_4  and  C_6 
REMARK    4  A    between atoms: C_6  and  C_8 
REMARK    5  A    between atoms: C_7  and  C_8 
REMARK    6  A    between atoms: C_7  and  C_10 
REMARK    7  A    between atoms: C_10  and  C_13 
REMARK    8  A    between atoms: C_13  and  C_15 
REMARK    9  A    between atoms: C_15  and  C_16 
REMARK   10  A    between atoms: C_16  and  C_18 
REMARK   11  A    between atoms: C_18  and  C_21 
REMARK   12  A    between atoms: C_21  and  C_25 
REMARK   13  A    between atoms: C_25  and  C_26 
ROOT
HETATM    1  O   UNK N   1      27.357  25.672  -6.073  0.00  0.00    -0.339 OA
HETATM    2  C   UNK N   1      26.042  25.214  -6.173  0.00  0.00     0.064 C 
HETATM    3  C   UNK N   1      25.800  23.978  -5.282  0.00  0.00     0.043 C 
HETATM    4  C   UNK N   1      26.391  24.204  -3.900  0.00  0.00     0.045 C 
HETATM    5  C   UNK N   1      25.803  24.793  -7.611  0.00  0.00     0.046 C 
HETATM    6  C   UNK N   1      27.851  24.457  -4.067  0.00  0.00    -0.015 A 
HETATM    7  C   UNK N   1      28.273  25.216  -5.170  0.00  0.00     0.083 A 
HETATM    8  C   UNK N   1      28.790  23.946  -3.155  0.00  0.00    -0.019 A 
HETATM    9  C   UNK N   1      29.636  25.484  -5.357  0.00  0.00    -0.019 A 
HETATM   10  C   UNK N   1      30.582  24.967  -4.448  0.00  0.00    -0.020 A 
HETATM   11  C   UNK N   1      30.156  24.197  -3.353  0.00  0.00     0.078 A 
HETATM   12  C   UNK N   1      28.342  23.132  -1.982  0.00  0.00     0.052 C 
HETATM   13  C   UNK N   1      30.076  26.293  -6.534  0.00  0.00     0.052 C 
HETATM   14  C   UNK N   1      32.043  25.220  -4.648  0.00  0.00     0.052 C 
ENDROOT
BRANCH   2  15
HETATM   15  C   UNK N   1      25.093  26.371  -5.822  0.00  0.00     0.038 C 
BRANCH  15  16
HETATM   16  C   UNK N   1      25.777  27.709  -5.493  0.00  0.00     0.003 C 
BRANCH  16  17
HETATM   17  C   UNK N   1      25.677  28.080  -4.012  0.00  0.00     0.004 C 
BRANCH  17  18
HETATM   18  C   UNK N   1      26.804  29.021  -3.604  0.00  0.00    -0.019 C 
HETATM   19  C   UNK N   1      26.340  30.469  -3.570  0.00  0.00     0.010 C 
BRANCH  18  20
HETATM   20  C   UNK N   1      28.086  28.800  -4.410  0.00  0.00     0.004 C 
BRANCH  20  21
HETATM   21  C   UNK N   1      28.611  30.054  -5.098  0.00  0.00     0.001 C 
BRANCH  21  22
HETATM   22  C   UNK N   1      28.842  29.850  -6.583  0.00  0.00     0.004 C 
BRANCH  22  23
HETATM   23  C   UNK N   1      30.213  30.403  -6.941  0.00  0.00    -0.019 C 
HETATM   24  C   UNK N   1      30.829  29.590  -8.063  0.00  0.00     0.010 C 
BRANCH  23  25
HETATM   25  C   UNK N   1      31.136  30.378  -5.742  0.00  0.00     0.004 C 
BRANCH  25  26
HETATM   26  C   UNK N   1      32.100  29.211  -5.861  0.00  0.00     0.001 C 
BRANCH  26  27
HETATM   27  C   UNK N   1      32.701  28.895  -4.502  0.00  0.00     0.004 C 
BRANCH  27  28
HETATM   28  C   UNK N   1      31.813  29.382  -3.363  0.00  0.00    -0.023 C 
HETATM   29  C   UNK N   1      32.603  30.178  -2.339  0.00  0.00     0.009 C 
HETATM   30  C   UNK N   1      31.196  28.183  -2.674  0.00  0.00     0.009 C 
ENDBRANCH  27  28
ENDBRANCH  26  27
ENDBRANCH  25  26
ENDBRANCH  23  25
ENDBRANCH  22  23
ENDBRANCH  21  22
ENDBRANCH  20  21
ENDBRANCH  18  20
ENDBRANCH  17  18
ENDBRANCH  16  17
ENDBRANCH  15  16
ENDBRANCH   2  15
BRANCH  11  31
HETATM   31  O   UNK N   1      31.061  23.696  -2.489  0.00  0.00    -0.360 OA
HETATM   32  H   UNK N   1      30.967  23.847  -1.569  0.00  0.00     0.217 HD
ENDBRANCH  11  31
TORSDOF 13
ENDMDL
MODEL 6
REMARK VINA RESULT:      -5.5     19.132     22.823
REMARK  13 active torsions:
REMARK  status: ('A' for Active; 'I' for Inactive)
REMARK    1  A    between atoms: O_2  and  C_24 
REMARK    2  A    between atoms: C_3  and  C_4 
REMARK    3  A    between atoms: C_4  and  C_6 
REMARK    4  A    between atoms: C_6  and  C_8 
REMARK    5  A    between atoms: C_7  and  C_8 
REMARK    6  A    between atoms: C_7  and  C_10 
REMARK    7  A    between atoms: C_10  and  C_13 
REMARK    8  A    between atoms: C_13  and  C_15 
REMARK    9  A    between atoms: C_15  and  C_16 
REMARK   10  A    between atoms: C_16  and  C_18 
REMARK   11  A    between atoms: C_18  and  C_21 
REMARK   12  A    between atoms: C_21  and  C_25 
REMARK   13  A    between atoms: C_25  and  C_26 
ROOT
HETATM    1  O   UNK N   1      35.406  10.555  15.550  0.00  0.00    -0.339 OA
HETATM    2  C   UNK N   1      35.172  11.192  14.331  0.00  0.00     0.064 C 
HETATM    3  C   UNK N   1      34.668  12.636  14.530  0.00  0.00     0.043 C 
HETATM    4  C   UNK N   1      35.512  13.347  15.575  0.00  0.00     0.045 C 
HETATM    5  C   UNK N   1      34.084  10.425  13.605  0.00  0.00     0.046 C 
HETATM    6  C   UNK N   1      35.409  12.572  16.845  0.00  0.00    -0.015 A 
HETATM    7  C   UNK N   1      35.377  11.170  16.768  0.00  0.00     0.083 A 
HETATM    8  C   UNK N   1      35.336  13.217  18.091  0.00  0.00    -0.019 A 
HETATM    9  C   UNK N   1      35.291  10.406  17.940  0.00  0.00    -0.019 A 
HETATM   10  C   UNK N   1      35.211  11.050  19.192  0.00  0.00    -0.020 A 
HETATM   11  C   UNK N   1      35.230  12.453  19.262  0.00  0.00     0.078 A 
HETATM   12  C   UNK N   1      35.364  14.711  18.174  0.00  0.00     0.052 C 
HETATM   13  C   UNK N   1      35.258   8.914  17.848  0.00  0.00     0.052 C 
HETATM   14  C   UNK N   1      35.090  10.249  20.450  0.00  0.00     0.052 C 
ENDROOT
BRANCH   2  15
HETATM   15  C   UNK N   1      36.464  11.144  13.499  0.00  0.00     0.038 C 
BRANCH  15  16
HETATM   16  C   UNK N   1      36.314  11.545  12.021  0.00  0.00     0.003 C 
BRANCH  16  17
HETATM   17  C   UNK N   1      37.039  12.848  11.681  0.00  0.00     0.004 C 
BRANCH  17  18
HETATM   18  C   UNK N   1      36.073  13.888  11.130  0.00  0.00    -0.019 C 
HETATM   19  C   UNK N   1      35.904  15.059  12.085  0.00  0.00     0.010 C 
BRANCH  18  20
HETATM   20  C   UNK N   1      34.750  13.280  10.656  0.00  0.00     0.004 C 
BRANCH  20  21
HETATM   21  C   UNK N   1      34.453  13.513   9.179  0.00  0.00     0.001 C 
BRANCH  21  22
HETATM   22  C   UNK N   1      33.124  14.208   8.956  0.00  0.00     0.004 C 
BRANCH  22  23
HETATM   23  C   UNK N   1      33.324  15.705   9.136  0.00  0.00    -0.019 C 
HETATM   24  C   UNK N   1      32.141  16.464   8.566  0.00  0.00     0.010 C 
BRANCH  23  25
HETATM   25  C   UNK N   1      34.591  16.168   8.450  0.00  0.00     0.004 C 
BRANCH  25  26
HETATM   26  C   UNK N   1      34.243  16.872   7.150  0.00  0.00     0.001 C 
BRANCH  26  27
HETATM   27  C   UNK N   1      34.606  15.989   5.969  0.00  0.00     0.004 C 
BRANCH  27  28
HETATM   28  C   UNK N   1      33.566  16.075   4.858  0.00  0.00    -0.023 C 
HETATM   29  C   UNK N   1      32.953  17.462   4.773  0.00  0.00     0.009 C 
HETATM   30  C   UNK N   1      32.465  15.075   5.137  0.00  0.00     0.009 C 
ENDBRANCH  27  28
ENDBRANCH  26  27
ENDBRANCH  25  26
ENDBRANCH  23  25
ENDBRANCH  22  23
ENDBRANCH  21  22
ENDBRANCH  20  21
ENDBRANCH  18  20
ENDBRANCH  17  18
ENDBRANCH  16  17
ENDBRANCH  15  16
ENDBRANCH   2  15
BRANCH  11  31
HETATM   31  O   UNK N   1      35.145  13.068  20.459  0.00  0.00    -0.360 OA
HETATM   32  H   UNK N   1      34.417  12.898  21.024  0.00  0.00     0.217 HD
ENDBRANCH  11  31
TORSDOF 13
ENDMDL
MODEL 7
REMARK VINA RESULT:      -5.4      1.995      4.142
REMARK  13 active torsions:
REMARK  status: ('A' for Active; 'I' for Inactive)
REMARK    1  A    between atoms: O_2  and  C_24 
REMARK    2  A    between atoms: C_3  and  C_4 
REMARK    3  A    between atoms: C_4  and  C_6 
REMARK    4  A    between atoms: C_6  and  C_8 
REMARK    5  A    between atoms: C_7  and  C_8 
REMARK    6  A    between atoms: C_7  and  C_10 
REMARK    7  A    between atoms: C_10  and  C_13 
REMARK    8  A    between atoms: C_13  and  C_15 
REMARK    9  A    between atoms: C_15  and  C_16 
REMARK   10  A    between atoms: C_16  and  C_18 
REMARK   11  A    between atoms: C_18  and  C_21 
REMARK   12  A    between atoms: C_21  and  C_25 
REMARK   13  A    between atoms: C_25  and  C_26 
ROOT
HETATM    1  O   UNK N   1      27.569  21.437  -7.837  0.00  0.00    -0.339 OA
HETATM    2  C   UNK N   1      26.340  22.097  -7.803  0.00  0.00     0.064 C 
HETATM    3  C   UNK N   1      26.170  22.918  -6.508  0.00  0.00     0.043 C 
HETATM    4  C   UNK N   1      27.434  23.712  -6.221  0.00  0.00     0.045 C 
HETATM    5  C   UNK N   1      25.245  21.046  -7.824  0.00  0.00     0.046 C 
HETATM    6  C   UNK N   1      28.559  22.743  -6.088  0.00  0.00    -0.015 A 
HETATM    7  C   UNK N   1      28.580  21.627  -6.940  0.00  0.00     0.083 A 
HETATM    8  C   UNK N   1      29.571  22.926  -5.131  0.00  0.00    -0.019 A 
HETATM    9  C   UNK N   1      29.626  20.698  -6.852  0.00  0.00    -0.019 A 
HETATM   10  C   UNK N   1      30.640  20.874  -5.889  0.00  0.00    -0.020 A 
HETATM   11  C   UNK N   1      30.607  21.985  -5.030  0.00  0.00     0.078 A 
HETATM   12  C   UNK N   1      29.547  24.111  -4.219  0.00  0.00     0.052 C 
HETATM   13  C   UNK N   1      29.640  19.513  -7.765  0.00  0.00     0.052 C 
HETATM   14  C   UNK N   1      31.748  19.877  -5.764  0.00  0.00     0.052 C 
ENDROOT
BRANCH   2  15
HETATM   15  C   UNK N   1      26.221  22.973  -9.060  0.00  0.00     0.038 C 
BRANCH  15  16
HETATM   16  C   UNK N   1      25.238  24.152  -8.954  0.00  0.00     0.003 C 
BRANCH  16  17
HETATM   17  C   UNK N   1      25.182  24.998 -10.227  0.00  0.00     0.004 C 
BRANCH  17  18
HETATM   18  C   UNK N   1      26.047  26.245 -10.096  0.00  0.00    -0.019 C 
HETATM   19  C   UNK N   1      27.159  26.266 -11.133  0.00  0.00     0.010 C 
BRANCH  18  20
HETATM   20  C   UNK N   1      26.530  26.488  -8.664  0.00  0.00     0.004 C 
BRANCH  20  21
HETATM   21  C   UNK N   1      28.045  26.575  -8.526  0.00  0.00     0.001 C 
BRANCH  21  22
HETATM   22  C   UNK N   1      28.520  27.977  -8.199  0.00  0.00     0.004 C 
BRANCH  22  23
HETATM   23  C   UNK N   1      28.094  28.314  -6.778  0.00  0.00    -0.019 C 
HETATM   24  C   UNK N   1      28.437  29.756  -6.456  0.00  0.00     0.010 C 
BRANCH  23  25
HETATM   25  C   UNK N   1      28.775  27.404  -5.779  0.00  0.00     0.004 C 
BRANCH  25  26
HETATM   26  C   UNK N   1      28.081  27.510  -4.433  0.00  0.00     0.001 C 
BRANCH  26  27
HETATM   27  C   UNK N   1      26.905  26.549  -4.380  0.00  0.00     0.004 C 
BRANCH  27  28
HETATM   28  C   UNK N   1      25.577  27.286  -4.257  0.00  0.00    -0.023 C 
HETATM   29  C   UNK N   1      24.783  27.225  -5.551  0.00  0.00     0.009 C 
HETATM   30  C   UNK N   1      25.849  28.737  -3.924  0.00  0.00     0.009 C 
ENDBRANCH  27  28
ENDBRANCH  26  27
ENDBRANCH  25  26
ENDBRANCH  23  25
ENDBRANCH  22  23
ENDBRANCH  21  22
ENDBRANCH  20  21
ENDBRANCH  18  20
ENDBRANCH  17  18
ENDBRANCH  16  17
ENDBRANCH  15  16
ENDBRANCH   2  15
BRANCH  11  31
HETATM   31  O   UNK N   1      31.573  22.149  -4.104  0.00  0.00    -0.360 OA
HETATM   32  H   UNK N   1      31.597  21.597  -3.347  0.00  0.00     0.217 HD
ENDBRANCH  11  31
TORSDOF 13
ENDMDL
MODEL 8
REMARK VINA RESULT:      -5.4      1.443      2.221
REMARK  13 active torsions:
REMARK  status: ('A' for Active; 'I' for Inactive)
REMARK    1  A    between atoms: O_2  and  C_24 
REMARK    2  A    between atoms: C_3  and  C_4 
REMARK    3  A    between atoms: C_4  and  C_6 
REMARK    4  A    between atoms: C_6  and  C_8 
REMARK    5  A    between atoms: C_7  and  C_8 
REMARK    6  A    between atoms: C_7  and  C_10 
REMARK    7  A    between atoms: C_10  and  C_13 
REMARK    8  A    between atoms: C_13  and  C_15 
REMARK    9  A    between atoms: C_15  and  C_16 
REMARK   10  A    between atoms: C_16  and  C_18 
REMARK   11  A    between atoms: C_18  and  C_21 
REMARK   12  A    between atoms: C_21  and  C_25 
REMARK   13  A    between atoms: C_25  and  C_26 
ROOT
HETATM    1  O   UNK N   1      27.931  23.795  -5.379  0.00  0.00    -0.339 OA
HETATM    2  C   UNK N   1      27.419  24.495  -4.285  0.00  0.00     0.064 C 
HETATM    3  C   UNK N   1      27.957  23.937  -2.950  0.00  0.00     0.043 C 
HETATM    4  C   UNK N   1      29.458  23.718  -3.040  0.00  0.00     0.045 C 
HETATM    5  C   UNK N   1      25.913  24.318  -4.280  0.00  0.00     0.046 C 
HETATM    6  C   UNK N   1      29.710  22.758  -4.153  0.00  0.00    -0.015 A 
HETATM    7  C   UNK N   1      28.920  22.859  -5.310  0.00  0.00     0.083 A 
HETATM    8  C   UNK N   1      30.703  21.769  -4.053  0.00  0.00    -0.019 A 
HETATM    9  C   UNK N   1      29.133  21.981  -6.382  0.00  0.00    -0.019 A 
HETATM   10  C   UNK N   1      30.124  20.983  -6.284  0.00  0.00    -0.020 A 
HETATM   11  C   UNK N   1      30.903  20.878  -5.119  0.00  0.00     0.078 A 
HETATM   12  C   UNK N   1      31.541  21.657  -2.820  0.00  0.00     0.052 C 
HETATM   13  C   UNK N   1      28.288  22.096  -7.610  0.00  0.00     0.052 C 
HETATM   14  C   UNK N   1      30.346  20.021  -7.408  0.00  0.00     0.052 C 
ENDROOT
BRANCH   2  15
HETATM   15  C   UNK N   1      27.751  25.985  -4.460  0.00  0.00     0.038 C 
BRANCH  15  16
HETATM   16  C   UNK N   1      27.876  26.468  -5.915  0.00  0.00     0.003 C 
BRANCH  16  17
HETATM   17  C   UNK N   1      27.197  27.818  -6.155  0.00  0.00     0.004 C 
BRANCH  17  18
HETATM   18  C   UNK N   1      27.991  28.665  -7.143  0.00  0.00    -0.019 C 
HETATM   19  C   UNK N   1      28.774  27.800  -8.119  0.00  0.00     0.010 C 
BRANCH  18  20
HETATM   20  C   UNK N   1      28.833  29.745  -6.459  0.00  0.00     0.004 C 
BRANCH  20  21
HETATM   21  C   UNK N   1      28.161  30.383  -5.249  0.00  0.00     0.001 C 
BRANCH  21  22
HETATM   22  C   UNK N   1      29.092  30.489  -4.056  0.00  0.00     0.004 C 
BRANCH  22  23
HETATM   23  C   UNK N   1      28.992  29.204  -3.248  0.00  0.00    -0.019 C 
HETATM   24  C   UNK N   1      27.736  29.215  -2.399  0.00  0.00     0.010 C 
BRANCH  23  25
HETATM   25  C   UNK N   1      30.199  29.035  -2.351  0.00  0.00     0.004 C 
BRANCH  25  26
HETATM   26  C   UNK N   1      31.331  28.390  -3.130  0.00  0.00     0.001 C 
BRANCH  26  27
HETATM   27  C   UNK N   1      31.045  26.912  -3.331  0.00  0.00     0.004 C 
BRANCH  27  28
HETATM   28  C   UNK N   1      31.302  26.477  -4.769  0.00  0.00    -0.023 C 
HETATM   29  C   UNK N   1      32.356  25.386  -4.842  0.00  0.00     0.009 C 
HETATM   30  C   UNK N   1      31.784  27.670  -5.565  0.00  0.00     0.009 C 
ENDBRANCH  27  28
ENDBRANCH  26  27
ENDBRANCH  25  26
ENDBRANCH  23  25
ENDBRANCH  22  23
ENDBRANCH  21  22
ENDBRANCH  20  21
ENDBRANCH  18  20
ENDBRANCH  17  18
ENDBRANCH  16  17
ENDBRANCH  15  16
ENDBRANCH   2  15
BRANCH  11  31
HETATM   31  O   UNK N   1      31.844  19.918  -5.022  0.00  0.00    -0.360 OA
HETATM   32  H   UNK N   1      32.738  20.115  -5.224  0.00  0.00     0.217 HD
ENDBRANCH  11  31
TORSDOF 13
ENDMDL
MODEL 9
REMARK VINA RESULT:      -5.4     12.723     15.755
REMARK  13 active torsions:
REMARK  status: ('A' for Active; 'I' for Inactive)
REMARK    1  A    between atoms: O_2  and  C_24 
REMARK    2  A    between atoms: C_3  and  C_4 
REMARK    3  A    between atoms: C_4  and  C_6 
REMARK    4  A    between atoms: C_6  and  C_8 
REMARK    5  A    between atoms: C_7  and  C_8 
REMARK    6  A    between atoms: C_7  and  C_10 
REMARK    7  A    between atoms: C_10  and  C_13 
REMARK    8  A    between atoms: C_13  and  C_15 
REMARK    9  A    between atoms: C_15  and  C_16 
REMARK   10  A    between atoms: C_16  and  C_18 
REMARK   11  A    between atoms: C_18  and  C_21 
REMARK   12  A    between atoms: C_21  and  C_25 
REMARK   13  A    between atoms: C_25  and  C_26 
ROOT
HETATM    1  O   UNK N   1      23.910  15.137   6.560  0.00  0.00    -0.339 OA
HETATM    2  C   UNK N   1      25.137  14.512   6.783  0.00  0.00     0.064 C 
HETATM    3  C   UNK N   1      25.138  13.715   8.104  0.00  0.00     0.043 C 
HETATM    4  C   UNK N   1      23.867  12.891   8.221  0.00  0.00     0.045 C 
HETATM    5  C   UNK N   1      26.197  15.591   6.900  0.00  0.00     0.046 C 
HETATM    6  C   UNK N   1      22.710  13.831   8.173  0.00  0.00    -0.015 A 
HETATM    7  C   UNK N   1      22.785  14.933   7.305  0.00  0.00     0.083 A 
HETATM    8  C   UNK N   1      21.575  13.636   8.977  0.00  0.00    -0.019 A 
HETATM    9  C   UNK N   1      21.715  15.835   7.224  0.00  0.00    -0.019 A 
HETATM   10  C   UNK N   1      20.576  15.645   8.034  0.00  0.00    -0.020 A 
HETATM   11  C   UNK N   1      20.512  14.549   8.911  0.00  0.00     0.078 A 
HETATM   12  C   UNK N   1      21.497  12.466   9.906  0.00  0.00     0.052 C 
HETATM   13  C   UNK N   1      21.803  17.004   6.296  0.00  0.00     0.052 C 
HETATM   14  C   UNK N   1      19.437  16.614   7.980  0.00  0.00     0.052 C 
ENDROOT
BRANCH   2  15
HETATM   15  C   UNK N   1      25.457  13.619   5.573  0.00  0.00     0.038 C 
BRANCH  15  16
HETATM   16  C   UNK N   1      25.075  14.202   4.202  0.00  0.00     0.003 C 
BRANCH  16  17
HETATM   17  C   UNK N   1      26.289  14.489   3.317  0.00  0.00     0.004 C 
BRANCH  17  18
HETATM   18  C   UNK N   1      26.450  15.983   3.071  0.00  0.00    -0.019 C 
HETATM   19  C   UNK N   1      27.784  16.496   3.590  0.00  0.00     0.010 C 
BRANCH  18  20
HETATM   20  C   UNK N   1      25.245  16.799   3.547  0.00  0.00     0.004 C 
BRANCH  20  21
HETATM   21  C   UNK N   1      25.407  18.304   3.374  0.00  0.00     0.001 C 
BRANCH  21  22
HETATM   22  C   UNK N   1      25.074  19.075   4.637  0.00  0.00     0.004 C 
BRANCH  22  23
HETATM   23  C   UNK N   1      26.016  20.264   4.741  0.00  0.00    -0.019 C 
HETATM   24  C   UNK N   1      27.132  20.141   3.721  0.00  0.00     0.010 C 
BRANCH  23  25
HETATM   25  C   UNK N   1      26.616  20.359   6.127  0.00  0.00     0.004 C 
BRANCH  25  26
HETATM   26  C   UNK N   1      27.465  19.131   6.403  0.00  0.00     0.001 C 
BRANCH  26  27
HETATM   27  C   UNK N   1      28.280  19.339   7.669  0.00  0.00     0.004 C 
BRANCH  27  28
HETATM   28  C   UNK N   1      28.710  18.014   8.288  0.00  0.00    -0.023 C 
HETATM   29  C   UNK N   1      29.382  18.220   9.634  0.00  0.00     0.009 C 
HETATM   30  C   UNK N   1      29.689  17.331   7.357  0.00  0.00     0.009 C 
ENDBRANCH  27  28
ENDBRANCH  26  27
ENDBRANCH  25  26
ENDBRANCH  23  25
ENDBRANCH  22  23
ENDBRANCH  21  22
ENDBRANCH  20  21
ENDBRANCH  18  20
ENDBRANCH  17  18
ENDBRANCH  16  17
ENDBRANCH  15  16
ENDBRANCH   2  15
BRANCH  11  31
HETATM   31  O   UNK N   1      19.427  14.373   9.691  0.00  0.00    -0.360 OA
HETATM   32  H   UNK N   1      19.507  13.932  10.513  0.00  0.00     0.217 HD
ENDBRANCH  11  31
TORSDOF 13
ENDMDL
