MODEL 1
REMARK VINA RESULT:      -4.5      0.000      0.000
REMARK  5 active torsions:
REMARK  status: ('A' for Active; 'I' for Inactive)
REMARK    1  A    between atoms: O_1  and  C_9 
REMARK    2  A    between atoms: C_5  and  N_3 
REMARK    3  A    between atoms: C_4  and  C_5 
REMARK    4  A    between atoms: C_4  and  C_6 
REMARK    5  A    between atoms: C_5  and  C_9 
ROOT
HETATM    1  C   UNK N   1      22.611  11.924  11.146  0.00  0.00     0.177 C 
ENDROOT
BRANCH   1   2
HETATM    2  N   UNK N   1      21.377  11.759  11.901  0.00  0.00    -0.417 N 
HETATM    3  H   UNK N   1      20.499  11.547  11.425  0.00  0.00     0.150 HD
HETATM    4  H   UNK N   1      21.389  11.856  12.917  0.00  0.00     0.150 HD
ENDBRANCH   1   2
BRANCH   1   5
HETATM    5  C   UNK N   1      22.470  13.094  10.145  0.00  0.00     0.014 C 
HETATM    6  C   UNK N   1      22.926  12.681   8.756  0.00  0.00     0.012 C 
BRANCH   5   7
HETATM    7  C   UNK N   1      21.016  13.542  10.002  0.00  0.00     0.002 C 
HETATM    8  C   UNK N   1      20.886  14.848   9.240  0.00  0.00     0.005 C 
ENDBRANCH   5   7
ENDBRANCH   1   5
BRANCH   1   9
HETATM    9  C   UNK N   1      23.768  12.078  12.107  0.00  0.00     0.163 C 
HETATM   10  O   UNK N   1      23.576  12.031  13.312  0.00  0.00    -0.648 OA
BRANCH   9  11
HETATM   11  O   UNK N   1      25.011  12.323  11.647  0.00  0.00    -0.775 OA
HETATM   12  H   UNK N   1      25.792  12.178  12.144  0.00  0.00     0.167 HD
ENDBRANCH   9  11
ENDBRANCH   1   9
TORSDOF 5
ENDMDL
MODEL 2
REMARK VINA RESULT:      -4.2     11.483     12.162
REMARK  5 active torsions:
REMARK  status: ('A' for Active; 'I' for Inactive)
REMARK    1  A    between atoms: O_1  and  C_9 
REMARK    2  A    between atoms: C_5  and  N_3 
REMARK    3  A    between atoms: C_4  and  C_5 
REMARK    4  A    between atoms: C_4  and  C_6 
REMARK    5  A    between atoms: C_5  and  C_9 
ROOT
HETATM    1  C   UNK N   1      34.114  16.817   8.562  0.00  0.00     0.177 C 
ENDROOT
BRANCH   1   2
HETATM    2  N   UNK N   1      34.330  17.063   9.981  0.00  0.00    -0.417 N 
HETATM    3  H   UNK N   1      34.790  17.917  10.297  0.00  0.00     0.150 HD
HETATM    4  H   UNK N   1      34.017  16.375  10.667  0.00  0.00     0.150 HD
ENDBRANCH   1   2
BRANCH   1   5
HETATM    5  C   UNK N   1      32.666  16.335   8.320  0.00  0.00     0.014 C 
HETATM    6  C   UNK N   1      32.289  15.229   9.291  0.00  0.00     0.012 C 
BRANCH   5   7
HETATM    7  C   UNK N   1      31.653  17.458   8.538  0.00  0.00     0.002 C 
HETATM    8  C   UNK N   1      30.484  17.378   7.574  0.00  0.00     0.005 C 
ENDBRANCH   5   7
ENDBRANCH   1   5
BRANCH   1   9
HETATM    9  C   UNK N   1      34.485  18.056   7.778  0.00  0.00     0.163 C 
HETATM   10  O   UNK N   1      34.366  18.073   6.563  0.00  0.00    -0.648 OA
BRANCH   9  11
HETATM   11  O   UNK N   1      35.001  19.132   8.404  0.00  0.00    -0.775 OA
HETATM   12  H   UNK N   1      35.199  19.942   7.976  0.00  0.00     0.167 HD
ENDBRANCH   9  11
ENDBRANCH   1   9
TORSDOF 5
ENDMDL
MODEL 3
REMARK VINA RESULT:      -4.0     13.900     14.566
REMARK  5 active torsions:
REMARK  status: ('A' for Active; 'I' for Inactive)
REMARK    1  A    between atoms: O_1  and  C_9 
REMARK    2  A    between atoms: C_5  and  N_3 
REMARK    3  A    between atoms: C_4  and  C_5 
REMARK    4  A    between atoms: C_4  and  C_6 
REMARK    5  A    between atoms: C_5  and  C_9 
ROOT
HETATM    1  C   UNK N   1      36.433  13.590  15.479  0.00  0.00     0.177 C 
ENDROOT
BRANCH   1   2
HETATM    2  N   UNK N   1      37.074  14.808  15.954  0.00  0.00    -0.417 N 
HETATM    3  H   UNK N   1      37.238  15.591  15.320  0.00  0.00     0.150 HD
HETATM    4  H   UNK N   1      37.363  14.881  16.930  0.00  0.00     0.150 HD
ENDBRANCH   1   2
BRANCH   1   5
HETATM    5  C   UNK N   1      35.287  13.185  16.434  0.00  0.00     0.014 C 
HETATM    6  C   UNK N   1      35.390  11.719  16.819  0.00  0.00     0.012 C 
BRANCH   5   7
HETATM    7  C   UNK N   1      35.337  13.974  17.742  0.00  0.00     0.002 C 
HETATM    8  C   UNK N   1      35.201  13.082  18.962  0.00  0.00     0.005 C 
ENDBRANCH   5   7
ENDBRANCH   1   5
BRANCH   1   9
HETATM    9  C   UNK N   1      35.993  13.783  14.045  0.00  0.00     0.163 C 
HETATM   10  O   UNK N   1      34.858  13.490  13.705  0.00  0.00    -0.648 OA
BRANCH   9  11
HETATM   11  O   UNK N   1      36.865  14.227  13.116  0.00  0.00    -0.775 OA
HETATM   12  H   UNK N   1      37.242  15.084  13.120  0.00  0.00     0.167 HD
ENDBRANCH   9  11
ENDBRANCH   1   9
TORSDOF 5
ENDMDL
MODEL 4
REMARK VINA RESULT:      -3.9     11.025     11.669
REMARK  5 active torsions:
REMARK  status: ('A' for Active; 'I' for Inactive)
REMARK    1  A    between atoms: O_1  and  C_9 
REMARK    2  A    between atoms: C_5  and  N_3 
REMARK    3  A    between atoms: C_4  and  C_5 
REMARK    4  A    between atoms: C_4  and  C_6 
REMARK    5  A    between atoms: C_5  and  C_9 
ROOT
HETATM    1  C   UNK N   1      32.987  17.070   8.012  0.00  0.00     0.177 C 
ENDROOT
BRANCH   1   2
HETATM    2  N   UNK N   1      33.189  16.880   9.442  0.00  0.00    -0.417 N 
HETATM    3  H   UNK N   1      32.570  16.272   9.978  0.00  0.00     0.150 HD
HETATM    4  H   UNK N   1      33.957  17.359   9.912  0.00  0.00     0.150 HD
ENDBRANCH   1   2
BRANCH   1   5
HETATM    5  C   UNK N   1      31.551  17.571   7.739  0.00  0.00     0.014 C 
HETATM    6  C   UNK N   1      30.917  16.810   6.587  0.00  0.00     0.012 C 
BRANCH   5   7
HETATM    7  C   UNK N   1      30.639  17.356   8.946  0.00  0.00     0.002 C 
HETATM    8  C   UNK N   1      29.953  18.635   9.390  0.00  0.00     0.005 C 
ENDBRANCH   5   7
ENDBRANCH   1   5
BRANCH   1   9
HETATM    9  C   UNK N   1      34.066  17.982   7.472  0.00  0.00     0.163 C 
HETATM   10  O   UNK N   1      34.391  17.922   6.297  0.00  0.00    -0.648 OA
BRANCH   9  11
HETATM   11  O   UNK N   1      34.717  18.831   8.293  0.00  0.00    -0.775 OA
HETATM   12  H   UNK N   1      34.655  18.807   9.227  0.00  0.00     0.167 HD
ENDBRANCH   9  11
ENDBRANCH   1   9
TORSDOF 5
ENDMDL
MODEL 5
REMARK VINA RESULT:      -3.9     12.394     12.911
REMARK  5 active torsions:
REMARK  status: ('A' for Active; 'I' for Inactive)
REMARK    1  A    between atoms: O_1  and  C_9 
REMARK    2  A    between atoms: C_5  and  N_3 
REMARK    3  A    between atoms: C_4  and  C_5 
REMARK    4  A    between atoms: C_4  and  C_6 
REMARK    5  A    between atoms: C_5  and  C_9 
ROOT
HETATM    1  C   UNK N   1      33.649  17.304   7.937  0.00  0.00     0.177 C 
ENDROOT
BRANCH   1   2
HETATM    2  N   UNK N   1      32.337  17.870   8.221  0.00  0.00    -0.417 N 
HETATM    3  H   UNK N   1      32.248  18.812   8.602  0.00  0.00     0.150 HD
HETATM    4  H   UNK N   1      31.499  17.319   8.037  0.00  0.00     0.150 HD
ENDBRANCH   1   2
BRANCH   1   5
HETATM    5  C   UNK N   1      33.891  17.261   6.412  0.00  0.00     0.014 C 
HETATM    6  C   UNK N   1      34.491  15.929   5.992  0.00  0.00     0.012 C 
BRANCH   5   7
HETATM    7  C   UNK N   1      32.588  17.408   5.628  0.00  0.00     0.002 C 
HETATM    8  C   UNK N   1      32.814  17.444   4.128  0.00  0.00     0.005 C 
ENDBRANCH   5   7
ENDBRANCH   1   5
BRANCH   1   9
HETATM    9  C   UNK N   1      34.701  18.076   8.701  0.00  0.00     0.163 C 
HETATM   10  O   UNK N   1      35.029  19.194   8.338  0.00  0.00    -0.648 OA
BRANCH   9  11
HETATM   11  O   UNK N   1      35.327  17.517   9.757  0.00  0.00    -0.775 OA
HETATM   12  H   UNK N   1      35.056  16.719  10.164  0.00  0.00     0.167 HD
ENDBRANCH   9  11
ENDBRANCH   1   9
TORSDOF 5
ENDMDL
MODEL 6
REMARK VINA RESULT:      -3.8     23.326     24.084
REMARK  5 active torsions:
REMARK  status: ('A' for Active; 'I' for Inactive)
REMARK    1  A    between atoms: O_1  and  C_9 
REMARK    2  A    between atoms: C_5  and  N_3 
REMARK    3  A    between atoms: C_4  and  C_5 
REMARK    4  A    between atoms: C_4  and  C_6 
REMARK    5  A    between atoms: C_5  and  C_9 
ROOT
HETATM    1  C   UNK N   1      43.455  22.245   3.859  0.00  0.00     0.177 C 
ENDROOT
BRANCH   1   2
HETATM    2  N   UNK N   1      43.522  23.694   3.992  0.00  0.00    -0.417 N 
HETATM    3  H   UNK N   1      42.737  24.280   3.707  0.00  0.00     0.150 HD
HETATM    4  H   UNK N   1      44.363  24.128   4.374  0.00  0.00     0.150 HD
ENDBRANCH   1   2
BRANCH   1   5
HETATM    5  C   UNK N   1      42.648  21.864   2.598  0.00  0.00     0.014 C 
HETATM    6  C   UNK N   1      41.610  20.800   2.915  0.00  0.00     0.012 C 
BRANCH   5   7
HETATM    7  C   UNK N   1      41.877  23.058   2.037  0.00  0.00     0.002 C 
HETATM    8  C   UNK N   1      40.847  22.649   1.002  0.00  0.00     0.005 C 
ENDBRANCH   5   7
ENDBRANCH   1   5
BRANCH   1   9
HETATM    9  C   UNK N   1      44.856  21.676   3.884  0.00  0.00     0.163 C 
HETATM   10  O   UNK N   1      45.047  20.503   3.605  0.00  0.00    -0.648 OA
BRANCH   9  11
HETATM   11  O   UNK N   1      45.898  22.440   4.268  0.00  0.00    -0.775 OA
HETATM   12  H   UNK N   1      45.810  23.277   4.679  0.00  0.00     0.167 HD
ENDBRANCH   9  11
ENDBRANCH   1   9
TORSDOF 5
ENDMDL
MODEL 7
REMARK VINA RESULT:      -3.8     11.550     12.166
REMARK  5 active torsions:
REMARK  status: ('A' for Active; 'I' for Inactive)
REMARK    1  A    between atoms: O_1  and  C_9 
REMARK    2  A    between atoms: C_5  and  N_3 
REMARK    3  A    between atoms: C_4  and  C_5 
REMARK    4  A    between atoms: C_4  and  C_6 
REMARK    5  A    between atoms: C_5  and  C_9 
ROOT
HETATM    1  C   UNK N   1      33.878  16.875   8.298  0.00  0.00     0.177 C 
ENDROOT
BRANCH   1   2
HETATM    2  N   UNK N   1      33.190  16.155   9.360  0.00  0.00    -0.417 N 
HETATM    3  H   UNK N   1      32.817  15.220   9.199  0.00  0.00     0.150 HD
HETATM    4  H   UNK N   1      33.080  16.591  10.277  0.00  0.00     0.150 HD
ENDBRANCH   1   2
BRANCH   1   5
HETATM    5  C   UNK N   1      32.852  17.486   7.318  0.00  0.00     0.014 C 
HETATM    6  C   UNK N   1      33.365  17.437   5.888  0.00  0.00     0.012 C 
BRANCH   5   7
HETATM    7  C   UNK N   1      31.534  16.713   7.325  0.00  0.00     0.002 C 
HETATM    8  C   UNK N   1      30.356  17.580   7.729  0.00  0.00     0.005 C 
ENDBRANCH   5   7
ENDBRANCH   1   5
BRANCH   1   9
HETATM    9  C   UNK N   1      34.819  17.888   8.909  0.00  0.00     0.163 C 
HETATM   10  O   UNK N   1      35.398  17.638   9.954  0.00  0.00    -0.648 OA
BRANCH   9  11
HETATM   11  O   UNK N   1      34.987  19.098   8.338  0.00  0.00    -0.775 OA
HETATM   12  H   UNK N   1      34.291  19.601   7.962  0.00  0.00     0.167 HD
ENDBRANCH   9  11
ENDBRANCH   1   9
TORSDOF 5
ENDMDL
MODEL 8
REMARK VINA RESULT:      -3.8     10.220     11.144
REMARK  5 active torsions:
REMARK  status: ('A' for Active; 'I' for Inactive)
REMARK    1  A    between atoms: O_1  and  C_9 
REMARK    2  A    between atoms: C_5  and  N_3 
REMARK    3  A    between atoms: C_4  and  C_5 
REMARK    4  A    between atoms: C_4  and  C_6 
REMARK    5  A    between atoms: C_5  and  C_9 
ROOT
HETATM    1  C   UNK N   1      20.447  19.581   2.879  0.00  0.00     0.177 C 
ENDROOT
BRANCH   1   2
HETATM    2  N   UNK N   1      19.184  19.249   2.233  0.00  0.00    -0.417 N 
HETATM    3  H   UNK N   1      19.125  18.475   1.572  0.00  0.00     0.150 HD
HETATM    4  H   UNK N   1      18.350  19.797   2.444  0.00  0.00     0.150 HD
ENDBRANCH   1   2
BRANCH   1   5
HETATM    5  C   UNK N   1      21.281  18.300   3.106  0.00  0.00     0.014 C 
HETATM    6  C   UNK N   1      22.062  18.381   4.407  0.00  0.00     0.012 C 
BRANCH   5   7
HETATM    7  C   UNK N   1      20.394  17.061   3.218  0.00  0.00     0.002 C 
HETATM    8  C   UNK N   1      20.800  15.968   2.247  0.00  0.00     0.005 C 
ENDBRANCH   5   7
ENDBRANCH   1   5
BRANCH   1   9
HETATM    9  C   UNK N   1      21.160  20.638   2.067  0.00  0.00     0.163 C 
HETATM   10  O   UNK N   1      21.293  20.503   0.861  0.00  0.00    -0.648 OA
BRANCH   9  11
HETATM   11  O   UNK N   1      21.705  21.713   2.672  0.00  0.00    -0.775 OA
HETATM   12  H   UNK N   1      22.249  22.340   2.236  0.00  0.00     0.167 HD
ENDBRANCH   9  11
ENDBRANCH   1   9
TORSDOF 5
ENDMDL
MODEL 9
REMARK VINA RESULT:      -3.7     19.056     19.724
REMARK  5 active torsions:
REMARK  status: ('A' for Active; 'I' for Inactive)
REMARK    1  A    between atoms: O_1  and  C_9 
REMARK    2  A    between atoms: C_5  and  N_3 
REMARK    3  A    between atoms: C_4  and  C_5 
REMARK    4  A    between atoms: C_4  and  C_6 
REMARK    5  A    between atoms: C_5  and  C_9 
ROOT
HETATM    1  C   UNK N   1      31.358  22.465  -4.108  0.00  0.00     0.177 C 
ENDROOT
BRANCH   1   2
HETATM    2  N   UNK N   1      32.636  22.207  -4.756  0.00  0.00    -0.417 N 
HETATM    3  H   UNK N   1      33.231  21.439  -4.446  0.00  0.00     0.150 HD
HETATM    4  H   UNK N   1      32.939  22.801  -5.529  0.00  0.00     0.150 HD
ENDBRANCH   1   2
BRANCH   1   5
HETATM    5  C   UNK N   1      30.245  21.621  -4.769  0.00  0.00     0.014 C 
HETATM    6  C   UNK N   1      29.356  22.484  -5.650  0.00  0.00     0.012 C 
BRANCH   5   7
HETATM    7  C   UNK N   1      30.823  20.537  -5.678  0.00  0.00     0.002 C 
HETATM    8  C   UNK N   1      29.931  20.243  -6.870  0.00  0.00     0.005 C 
ENDBRANCH   5   7
ENDBRANCH   1   5
BRANCH   1   9
HETATM    9  C   UNK N   1      31.497  22.233  -2.620  0.00  0.00     0.163 C 
HETATM   10  O   UNK N   1      30.842  22.895  -1.831  0.00  0.00    -0.648 OA
BRANCH   9  11
HETATM   11  O   UNK N   1      32.384  21.334  -2.147  0.00  0.00    -0.775 OA
HETATM   12  H   UNK N   1      32.474  21.114  -1.241  0.00  0.00     0.167 HD
ENDBRANCH   9  11
ENDBRANCH   1   9
TORSDOF 5
ENDMDL
