REMARK  0 active torsions:
REMARK  status: ('A' for Active; 'I' for Inactive)
ROOT
HETATM    1  O   UNK N   1       2.823  -2.542   0.000  0.00  0.00    -0.287 OA
HETATM    2  O   UNK N   1       2.754   2.765  -0.000  0.00  0.00    -0.288 OA
HETATM    3  C   UNK N   1       4.108  -0.576  -0.000  0.00  0.00     0.029 A 
HETATM    4  C   UNK N   1       4.093   0.832  -0.000  0.00  0.00     0.028 A 
HETATM    5  C   UNK N   1       1.542  -0.571   0.000  0.00  0.00    -0.007 A 
HETATM    6  C   UNK N   1       2.826  -1.320   0.000  0.00  0.00     0.189 A 
HETATM    7  C   UNK N   1       2.795   1.545  -0.000  0.00  0.00     0.183 A 
HETATM    8  C   UNK N   1       1.534   0.771  -0.000  0.00  0.00     0.066 A 
HETATM    9  C   UNK N   1       5.332  -1.258   0.000  0.00  0.00     0.016 A 
HETATM   10  C   UNK N   1       5.303   1.540  -0.000  0.00  0.00     0.016 A 
HETATM   11  C   UNK N   1       0.241  -1.304   0.000  0.00  0.00     0.052 C 
HETATM   12  C   UNK N   1       6.534  -0.545   0.000  0.00  0.00     0.001 A 
HETATM   13  C   UNK N   1       6.519   0.852  -0.000  0.00  0.00     0.001 A 
ENDROOT
TORSDOF 0
