MODEL 1
REMARK VINA RESULT:      -5.8      0.000      0.000
REMARK  0 active torsions:
REMARK  status: ('A' for Active; 'I' for Inactive)
ROOT
HETATM    1  O   UNK N   1      34.554  13.061  14.391  0.00  0.00    -0.287 OA
HETATM    2  O   UNK N   1      35.214   8.744  17.407  0.00  0.00    -0.288 OA
HETATM    3  C   UNK N   1      34.943  12.236  16.556  0.00  0.00     0.029 A 
HETATM    4  C   UNK N   1      35.118  11.093  17.358  0.00  0.00     0.028 A 
HETATM    5  C   UNK N   1      34.661  10.715  14.508  0.00  0.00    -0.007 A 
HETATM    6  C   UNK N   1      34.708  12.078  15.101  0.00  0.00     0.189 A 
HETATM    7  C   UNK N   1      35.065   9.751  16.734  0.00  0.00     0.183 A 
HETATM    8  C   UNK N   1      34.829   9.629  15.279  0.00  0.00     0.066 A 
HETATM    9  C   UNK N   1      34.992  13.509  17.139  0.00  0.00     0.016 A 
HETATM   10  C   UNK N   1      35.341  11.238  18.735  0.00  0.00     0.016 A 
HETATM   11  C   UNK N   1      34.425  10.537  13.044  0.00  0.00     0.052 C 
HETATM   12  C   UNK N   1      35.214  13.645  18.512  0.00  0.00     0.001 A 
HETATM   13  C   UNK N   1      35.388  12.511  19.308  0.00  0.00     0.001 A 
ENDROOT
TORSDOF 0
ENDMDL
MODEL 2
REMARK VINA RESULT:      -5.7     25.667     27.386
REMARK  0 active torsions:
REMARK  status: ('A' for Active; 'I' for Inactive)
ROOT
HETATM    1  O   UNK N   1      25.646  25.954  -7.738  0.00  0.00    -0.287 OA
HETATM    2  O   UNK N   1      26.539  23.942  -2.908  0.00  0.00    -0.288 OA
HETATM    3  C   UNK N   1      26.015  26.427  -5.467  0.00  0.00     0.029 A 
HETATM    4  C   UNK N   1      26.252  25.896  -4.184  0.00  0.00     0.028 A 
HETATM    5  C   UNK N   1      25.941  24.040  -6.406  0.00  0.00    -0.007 A 
HETATM    6  C   UNK N   1      25.852  25.509  -6.619  0.00  0.00     0.189 A 
HETATM    7  C   UNK N   1      26.334  24.428  -4.009  0.00  0.00     0.183 A 
HETATM    8  C   UNK N   1      26.167  23.540  -5.181  0.00  0.00     0.066 A 
HETATM    9  C   UNK N   1      25.936  27.815  -5.641  0.00  0.00     0.016 A 
HETATM   10  C   UNK N   1      26.407  26.761  -3.092  0.00  0.00     0.016 A 
HETATM   11  C   UNK N   1      25.779  23.100  -7.554  0.00  0.00     0.052 C 
HETATM   12  C   UNK N   1      26.091  28.671  -4.547  0.00  0.00     0.001 A 
HETATM   13  C   UNK N   1      26.326  28.144  -3.274  0.00  0.00     0.001 A 
ENDROOT
TORSDOF 0
ENDMDL
MODEL 3
REMARK VINA RESULT:      -5.6     13.046     14.696
REMARK  0 active torsions:
REMARK  status: ('A' for Active; 'I' for Inactive)
ROOT
HETATM    1  O   UNK N   1      24.244  14.113   7.467  0.00  0.00    -0.287 OA
HETATM    2  O   UNK N   1      19.792  13.392  10.265  0.00  0.00    -0.288 OA
HETATM    3  C   UNK N   1      23.290  13.208   9.414  0.00  0.00     0.029 A 
HETATM    4  C   UNK N   1      22.110  13.015  10.158  0.00  0.00     0.028 A 
HETATM    5  C   UNK N   1      21.924  14.456   7.635  0.00  0.00    -0.007 A 
HETATM    6  C   UNK N   1      23.229  13.938   8.125  0.00  0.00     0.189 A 
HETATM    7  C   UNK N   1      20.828  13.545   9.639  0.00  0.00     0.183 A 
HETATM    8  C   UNK N   1      20.803  14.269   8.349  0.00  0.00     0.066 A 
HETATM    9  C   UNK N   1      24.507  12.710   9.898  0.00  0.00     0.016 A 
HETATM   10  C   UNK N   1      22.163  12.326  11.378  0.00  0.00     0.016 A 
HETATM   11  C   UNK N   1      21.844  15.193   6.339  0.00  0.00     0.052 C 
HETATM   12  C   UNK N   1      24.551  12.024  11.114  0.00  0.00     0.001 A 
HETATM   13  C   UNK N   1      23.381  11.832  11.853  0.00  0.00     0.001 A 
ENDROOT
TORSDOF 0
ENDMDL
MODEL 4
REMARK VINA RESULT:      -5.6     11.008     13.058
REMARK  0 active torsions:
REMARK  status: ('A' for Active; 'I' for Inactive)
ROOT
HETATM    1  O   UNK N   1      29.256  17.042   6.707  0.00  0.00    -0.287 OA
HETATM    2  O   UNK N   1      34.486  17.921   6.923  0.00  0.00    -0.288 OA
HETATM    3  C   UNK N   1      31.270  17.120   5.502  0.00  0.00     0.029 A 
HETATM    4  C   UNK N   1      32.658  17.353   5.556  0.00  0.00     0.028 A 
HETATM    5  C   UNK N   1      31.124  17.606   8.018  0.00  0.00    -0.007 A 
HETATM    6  C   UNK N   1      30.461  17.241   6.738  0.00  0.00     0.189 A 
HETATM    7  C   UNK N   1      33.285  17.714   6.848  0.00  0.00     0.183 A 
HETATM    8  C   UNK N   1      32.447  17.826   8.063  0.00  0.00     0.066 A 
HETATM    9  C   UNK N   1      30.670  16.778   4.283  0.00  0.00     0.016 A 
HETATM   10  C   UNK N   1      33.428  17.240   4.390  0.00  0.00     0.016 A 
HETATM   11  C   UNK N   1      30.324  17.732   9.272  0.00  0.00     0.052 C 
HETATM   12  C   UNK N   1      31.444  16.667   3.125  0.00  0.00     0.001 A 
HETATM   13  C   UNK N   1      32.821  16.898   3.179  0.00  0.00     0.001 A 
ENDROOT
TORSDOF 0
ENDMDL
MODEL 5
REMARK VINA RESULT:      -5.5     11.158     12.325
REMARK  0 active torsions:
REMARK  status: ('A' for Active; 'I' for Inactive)
ROOT
HETATM    1  O   UNK N   1      30.468  16.185   4.300  0.00  0.00    -0.287 OA
HETATM    2  O   UNK N   1      34.571  18.008   7.131  0.00  0.00    -0.288 OA
HETATM    3  C   UNK N   1      31.171  17.106   6.344  0.00  0.00     0.029 A 
HETATM    4  C   UNK N   1      32.257  17.590   7.097  0.00  0.00     0.028 A 
HETATM    5  C   UNK N   1      32.775  16.627   4.399  0.00  0.00    -0.007 A 
HETATM    6  C   UNK N   1      31.401  16.608   4.966  0.00  0.00     0.189 A 
HETATM    7  C   UNK N   1      33.612  17.593   6.499  0.00  0.00     0.183 A 
HETATM    8  C   UNK N   1      33.806  17.090   5.122  0.00  0.00     0.066 A 
HETATM    9  C   UNK N   1      29.886  17.099   6.902  0.00  0.00     0.016 A 
HETATM   10  C   UNK N   1      32.045  18.061   8.400  0.00  0.00     0.016 A 
HETATM   11  C   UNK N   1      33.025  16.130   3.013  0.00  0.00     0.052 C 
HETATM   12  C   UNK N   1      29.682  17.570   8.202  0.00  0.00     0.001 A 
HETATM   13  C   UNK N   1      30.760  18.051   8.949  0.00  0.00     0.001 A 
ENDROOT
TORSDOF 0
ENDMDL
MODEL 6
REMARK VINA RESULT:      -5.5     12.979     14.652
REMARK  0 active torsions:
REMARK  status: ('A' for Active; 'I' for Inactive)
ROOT
HETATM    1  O   UNK N   1      19.937  13.784   9.521  0.00  0.00    -0.287 OA
HETATM    2  O   UNK N   1      24.983  13.464   7.906  0.00  0.00    -0.288 OA
HETATM    3  C   UNK N   1      22.110  13.060  10.045  0.00  0.00     0.029 A 
HETATM    4  C   UNK N   1      23.449  12.973   9.620  0.00  0.00     0.028 A 
HETATM    5  C   UNK N   1      21.521  14.245   7.846  0.00  0.00    -0.007 A 
HETATM    6  C   UNK N   1      21.104  13.701   9.165  0.00  0.00     0.189 A 
HETATM    7  C   UNK N   1      23.829  13.526   8.299  0.00  0.00     0.183 A 
HETATM    8  C   UNK N   1      22.799  14.159   7.446  0.00  0.00     0.066 A 
HETATM    9  C   UNK N   1      21.742  12.540  11.293  0.00  0.00     0.016 A 
HETATM   10  C   UNK N   1      24.404  12.368  10.448  0.00  0.00     0.016 A 
HETATM   11  C   UNK N   1      20.522  14.894   6.947  0.00  0.00     0.052 C 
HETATM   12  C   UNK N   1      22.700  11.937  12.114  0.00  0.00     0.001 A 
HETATM   13  C   UNK N   1      24.029  11.852  11.691  0.00  0.00     0.001 A 
ENDROOT
TORSDOF 0
ENDMDL
MODEL 7
REMARK VINA RESULT:      -5.4     13.074     14.849
REMARK  0 active torsions:
REMARK  status: ('A' for Active; 'I' for Inactive)
ROOT
HETATM    1  O   UNK N   1      25.172  13.179   8.600  0.00  0.00    -0.287 OA
HETATM    2  O   UNK N   1      19.987  14.244   8.217  0.00  0.00    -0.288 OA
HETATM    3  C   UNK N   1      23.061  12.975   9.608  0.00  0.00     0.029 A 
HETATM    4  C   UNK N   1      21.684  13.256   9.509  0.00  0.00     0.028 A 
HETATM    5  C   UNK N   1      23.429  14.149   7.357  0.00  0.00    -0.007 A 
HETATM    6  C   UNK N   1      23.976  13.416   8.529  0.00  0.00     0.189 A 
HETATM    7  C   UNK N   1      21.175  13.988   8.327  0.00  0.00     0.183 A 
HETATM    8  C   UNK N   1      22.116  14.414   7.268  0.00  0.00     0.066 A 
HETATM    9  C   UNK N   1      23.550  12.282  10.724  0.00  0.00     0.016 A 
HETATM   10  C   UNK N   1      20.815  12.840  10.528  0.00  0.00     0.016 A 
HETATM   11  C   UNK N   1      24.336  14.601   6.260  0.00  0.00     0.052 C 
HETATM   12  C   UNK N   1      22.677  11.871  11.735  0.00  0.00     0.001 A 
HETATM   13  C   UNK N   1      21.312  12.150  11.637  0.00  0.00     0.001 A 
ENDROOT
TORSDOF 0
ENDMDL
MODEL 8
REMARK VINA RESULT:      -5.3     10.931     12.816
REMARK  0 active torsions:
REMARK  status: ('A' for Active; 'I' for Inactive)
ROOT
HETATM    1  O   UNK N   1      34.181  17.618   5.549  0.00  0.00    -0.287 OA
HETATM    2  O   UNK N   1      29.771  17.372   8.493  0.00  0.00    -0.288 OA
HETATM    3  C   UNK N   1      31.871  17.191   5.568  0.00  0.00     0.029 A 
HETATM    4  C   UNK N   1      30.699  17.125   6.347  0.00  0.00     0.028 A 
HETATM    5  C   UNK N   1      33.191  17.847   7.669  0.00  0.00    -0.007 A 
HETATM    6  C   UNK N   1      33.156  17.556   6.212  0.00  0.00     0.189 A 
HETATM    7  C   UNK N   1      30.772  17.422   7.796  0.00  0.00     0.183 A 
HETATM    8  C   UNK N   1      32.071  17.783   8.406  0.00  0.00     0.066 A 
HETATM    9  C   UNK N   1      31.811  16.912   4.197  0.00  0.00     0.016 A 
HETATM   10  C   UNK N   1      29.482  16.781   5.742  0.00  0.00     0.016 A 
HETATM   11  C   UNK N   1      34.476  18.216   8.334  0.00  0.00     0.052 C 
HETATM   12  C   UNK N   1      30.594  16.569   3.602  0.00  0.00     0.001 A 
HETATM   13  C   UNK N   1      29.431  16.504   4.374  0.00  0.00     0.001 A 
ENDROOT
TORSDOF 0
ENDMDL
MODEL 9
REMARK VINA RESULT:      -5.3     28.288     29.211
REMARK  0 active torsions:
REMARK  status: ('A' for Active; 'I' for Inactive)
ROOT
HETATM    1  O   UNK N   1      28.667  28.714  -7.935  0.00  0.00    -0.287 OA
HETATM    2  O   UNK N   1      24.796  25.896  -5.646  0.00  0.00    -0.288 OA
HETATM    3  C   UNK N   1      27.234  28.514  -6.085  0.00  0.00     0.029 A 
HETATM    4  C   UNK N   1      26.207  27.769  -5.475  0.00  0.00     0.028 A 
HETATM    5  C   UNK N   1      27.228  26.858  -8.045  0.00  0.00    -0.007 A 
HETATM    6  C   UNK N   1      27.776  28.077  -7.394  0.00  0.00     0.189 A 
HETATM    7  C   UNK N   1      25.686  26.560  -6.153  0.00  0.00     0.183 A 
HETATM    8  C   UNK N   1      26.249  26.152  -7.459  0.00  0.00     0.066 A 
HETATM    9  C   UNK N   1      27.733  29.659  -5.450  0.00  0.00     0.016 A 
HETATM   10  C   UNK N   1      25.692  28.179  -4.237  0.00  0.00     0.016 A 
HETATM   11  C   UNK N   1      27.761  26.403  -9.364  0.00  0.00     0.052 C 
HETATM   12  C   UNK N   1      27.214  30.061  -4.216  0.00  0.00     0.001 A 
HETATM   13  C   UNK N   1      26.195  29.322  -3.611  0.00  0.00     0.001 A 
ENDROOT
TORSDOF 0
ENDMDL
