MODEL 1
REMARK VINA RESULT:      -4.3      0.000      0.000
REMARK  2 active torsions:
REMARK  status: ('A' for Active; 'I' for Inactive)
REMARK    1  A    between atoms: O_1  and  C_8 
REMARK    2  A    between atoms: C_4  and  C_8 
ROOT
HETATM    1  N   UNK N   1      35.184  17.190  10.477  0.00  0.00    -0.408 N 
HETATM    2  C   UNK N   1      34.601  17.098   9.153  0.00  0.00     0.175 A 
HETATM    3  C   UNK N   1      33.889  15.805   8.884  0.00  0.00     0.037 A 
HETATM    4  C   UNK N   1      34.061  15.040  10.176  0.00  0.00     0.022 A 
HETATM    5  C   UNK N   1      34.861  15.925  11.128  0.00  0.00     0.115 A 
HETATM    6  H   UNK N   1      35.709  17.972  10.870  0.00  0.00     0.154 HD
ENDROOT
BRANCH   2   7
HETATM    7  C   UNK N   1      34.757  18.257   8.214  0.00  0.00     0.163 C 
HETATM    8  O   UNK N   1      34.337  18.181   7.078  0.00  0.00    -0.648 OA
BRANCH   7   9
HETATM    9  O   UNK N   1      35.366  19.388   8.630  0.00  0.00    -0.775 OA
HETATM   10  H   UNK N   1      35.319  19.642   9.531  0.00  0.00     0.167 HD
ENDBRANCH   7   9
ENDBRANCH   2   7
TORSDOF 2
ENDMDL
MODEL 2
REMARK VINA RESULT:      -4.2     15.642     16.072
REMARK  2 active torsions:
REMARK  status: ('A' for Active; 'I' for Inactive)
REMARK    1  A    between atoms: O_1  and  C_8 
REMARK    2  A    between atoms: C_4  and  C_8 
ROOT
HETATM    1  N   UNK N   1      20.167  18.276   0.999  0.00  0.00    -0.408 N 
HETATM    2  C   UNK N   1      20.632  19.349   1.855  0.00  0.00     0.175 A 
HETATM    3  C   UNK N   1      20.771  18.965   3.299  0.00  0.00     0.037 A 
HETATM    4  C   UNK N   1      20.346  17.515   3.314  0.00  0.00     0.022 A 
HETATM    5  C   UNK N   1      19.984  17.130   1.882  0.00  0.00     0.115 A 
HETATM    6  H   UNK N   1      20.003  18.314  -0.008  0.00  0.00     0.154 HD
ENDROOT
BRANCH   2   7
HETATM    7  C   UNK N   1      20.920  20.687   1.243  0.00  0.00     0.163 C 
HETATM    8  O   UNK N   1      21.046  20.791   0.040  0.00  0.00    -0.648 OA
BRANCH   7   9
HETATM    9  O   UNK N   1      21.039  21.780   2.028  0.00  0.00    -0.775 OA
HETATM   10  H   UNK N   1      20.687  22.601   1.744  0.00  0.00     0.167 HD
ENDBRANCH   7   9
ENDBRANCH   2   7
TORSDOF 2
ENDMDL
MODEL 3
REMARK VINA RESULT:      -4.0      2.390      3.174
REMARK  2 active torsions:
REMARK  status: ('A' for Active; 'I' for Inactive)
REMARK    1  A    between atoms: O_1  and  C_8 
REMARK    2  A    between atoms: C_4  and  C_8 
ROOT
HETATM    1  N   UNK N   1      32.279  17.590   8.752  0.00  0.00    -0.408 N 
HETATM    2  C   UNK N   1      33.515  17.769   8.018  0.00  0.00     0.175 A 
HETATM    3  C   UNK N   1      33.395  17.520   6.543  0.00  0.00     0.037 A 
HETATM    4  C   UNK N   1      31.939  17.153   6.372  0.00  0.00     0.022 A 
HETATM    5  C   UNK N   1      31.288  17.208   7.751  0.00  0.00     0.115 A 
HETATM    6  H   UNK N   1      32.132  17.706   9.755  0.00  0.00     0.154 HD
ENDROOT
BRANCH   2   7
HETATM    7  C   UNK N   1      34.749  18.171   8.770  0.00  0.00     0.163 C 
HETATM    8  O   UNK N   1      35.191  17.451   9.643  0.00  0.00    -0.648 OA
BRANCH   7   9
HETATM    9  O   UNK N   1      35.372  19.333   8.479  0.00  0.00    -0.775 OA
HETATM   10  H   UNK N   1      36.308  19.370   8.457  0.00  0.00     0.167 HD
ENDBRANCH   7   9
ENDBRANCH   2   7
TORSDOF 2
ENDMDL
MODEL 4
REMARK VINA RESULT:      -3.9     11.906     12.539
REMARK  2 active torsions:
REMARK  status: ('A' for Active; 'I' for Inactive)
REMARK    1  A    between atoms: O_1  and  C_8 
REMARK    2  A    between atoms: C_4  and  C_8 
ROOT
HETATM    1  N   UNK N   1      22.256  13.651   9.538  0.00  0.00    -0.408 N 
HETATM    2  C   UNK N   1      23.161  12.861  10.349  0.00  0.00     0.175 A 
HETATM    3  C   UNK N   1      22.478  12.006  11.375  0.00  0.00     0.037 A 
HETATM    4  C   UNK N   1      21.014  12.311  11.161  0.00  0.00     0.022 A 
HETATM    5  C   UNK N   1      20.920  13.326  10.024  0.00  0.00     0.115 A 
HETATM    6  H   UNK N   1      22.501  14.298   8.787  0.00  0.00     0.154 HD
ENDROOT
BRANCH   2   7
HETATM    7  C   UNK N   1      24.636  12.969  10.096  0.00  0.00     0.163 C 
HETATM    8  O   UNK N   1      25.048  13.159   8.970  0.00  0.00    -0.648 OA
BRANCH   7   9
HETATM    9  O   UNK N   1      25.509  12.854  11.120  0.00  0.00    -0.775 OA
HETATM   10  H   UNK N   1      26.148  13.523  11.269  0.00  0.00     0.167 HD
ENDBRANCH   7   9
ENDBRANCH   2   7
TORSDOF 2
ENDMDL
MODEL 5
REMARK VINA RESULT:      -3.8      3.570      4.364
REMARK  2 active torsions:
REMARK  status: ('A' for Active; 'I' for Inactive)
REMARK    1  A    between atoms: O_1  and  C_8 
REMARK    2  A    between atoms: C_4  and  C_8 
ROOT
HETATM    1  N   UNK N   1      36.678  14.924  13.717  0.00  0.00    -0.408 N 
HETATM    2  C   UNK N   1      35.917  14.732  12.499  0.00  0.00     0.175 A 
HETATM    3  C   UNK N   1      35.089  13.481  12.484  0.00  0.00     0.037 A 
HETATM    4  C   UNK N   1      35.380  12.857  13.829  0.00  0.00     0.022 A 
HETATM    5  C   UNK N   1      36.360  13.774  14.556  0.00  0.00     0.115 A 
HETATM    6  H   UNK N   1      37.303  15.699  13.941  0.00  0.00     0.154 HD
ENDROOT
BRANCH   2   7
HETATM    7  C   UNK N   1      36.025  15.759  11.411  0.00  0.00     0.163 C 
HETATM    8  O   UNK N   1      35.058  16.427  11.108  0.00  0.00    -0.648 OA
BRANCH   7   9
HETATM    9  O   UNK N   1      37.198  15.944  10.768  0.00  0.00    -0.775 OA
HETATM   10  H   UNK N   1      37.829  16.548  11.107  0.00  0.00     0.167 HD
ENDBRANCH   7   9
ENDBRANCH   2   7
TORSDOF 2
ENDMDL
MODEL 6
REMARK VINA RESULT:      -3.8     12.926     13.518
REMARK  2 active torsions:
REMARK  status: ('A' for Active; 'I' for Inactive)
REMARK    1  A    between atoms: O_1  and  C_8 
REMARK    2  A    between atoms: C_4  and  C_8 
ROOT
HETATM    1  N   UNK N   1      23.057  13.489   9.462  0.00  0.00    -0.408 N 
HETATM    2  C   UNK N   1      21.750  13.346  10.072  0.00  0.00     0.175 A 
HETATM    3  C   UNK N   1      21.664  12.246  11.089  0.00  0.00     0.037 A 
HETATM    4  C   UNK N   1      23.060  11.668  11.091  0.00  0.00     0.022 A 
HETATM    5  C   UNK N   1      23.885  12.458  10.079  0.00  0.00     0.115 A 
HETATM    6  H   UNK N   1      23.338  14.166   8.752  0.00  0.00     0.154 HD
ENDROOT
BRANCH   2   7
HETATM    7  C   UNK N   1      20.651  14.273   9.648  0.00  0.00     0.163 C 
HETATM    8  O   UNK N   1      19.490  13.961   9.821  0.00  0.00    -0.648 OA
BRANCH   7   9
HETATM    9  O   UNK N   1      20.948  15.458   9.072  0.00  0.00    -0.775 OA
HETATM   10  H   UNK N   1      21.371  15.480   8.236  0.00  0.00     0.167 HD
ENDBRANCH   7   9
ENDBRANCH   2   7
TORSDOF 2
ENDMDL
MODEL 7
REMARK VINA RESULT:      -3.7      2.842      3.310
REMARK  2 active torsions:
REMARK  status: ('A' for Active; 'I' for Inactive)
REMARK    1  A    between atoms: O_1  and  C_8 
REMARK    2  A    between atoms: C_4  and  C_8 
ROOT
HETATM    1  N   UNK N   1      31.897  17.682   8.955  0.00  0.00    -0.408 N 
HETATM    2  C   UNK N   1      32.512  17.592   7.646  0.00  0.00     0.175 A 
HETATM    3  C   UNK N   1      31.591  17.099   6.568  0.00  0.00     0.037 A 
HETATM    4  C   UNK N   1      30.291  16.869   7.303  0.00  0.00     0.022 A 
HETATM    5  C   UNK N   1      30.520  17.239   8.766  0.00  0.00     0.115 A 
HETATM    6  H   UNK N   1      32.334  17.990   9.825  0.00  0.00     0.154 HD
ENDROOT
BRANCH   2   7
HETATM    7  C   UNK N   1      33.951  17.984   7.496  0.00  0.00     0.163 C 
HETATM    8  O   UNK N   1      34.531  17.782   6.449  0.00  0.00    -0.648 OA
BRANCH   7   9
HETATM    9  O   UNK N   1      34.607  18.562   8.526  0.00  0.00    -0.775 OA
HETATM   10  H   UNK N   1      34.197  18.625   9.366  0.00  0.00     0.167 HD
ENDBRANCH   7   9
ENDBRANCH   2   7
TORSDOF 2
ENDMDL
MODEL 8
REMARK VINA RESULT:      -3.7     13.097     13.708
REMARK  2 active torsions:
REMARK  status: ('A' for Active; 'I' for Inactive)
REMARK    1  A    between atoms: O_1  and  C_8 
REMARK    2  A    between atoms: C_4  and  C_8 
ROOT
HETATM    1  N   UNK N   1      22.844  18.964   3.909  0.00  0.00    -0.408 N 
HETATM    2  C   UNK N   1      22.940  20.119   3.038  0.00  0.00     0.175 A 
HETATM    3  C   UNK N   1      24.340  20.623   2.840  0.00  0.00     0.037 A 
HETATM    4  C   UNK N   1      25.170  19.677   3.676  0.00  0.00     0.022 A 
HETATM    5  C   UNK N   1      24.214  18.673   4.316  0.00  0.00     0.115 A 
HETATM    6  H   UNK N   1      21.998  18.461   4.180  0.00  0.00     0.154 HD
ENDROOT
BRANCH   2   7
HETATM    7  C   UNK N   1      21.684  20.679   2.442  0.00  0.00     0.163 C 
HETATM    8  O   UNK N   1      21.524  20.668   1.238  0.00  0.00    -0.648 OA
BRANCH   7   9
HETATM    9  O   UNK N   1      20.726  21.196   3.241  0.00  0.00    -0.775 OA
HETATM   10  H   UNK N   1      20.154  21.864   2.915  0.00  0.00     0.167 HD
ENDBRANCH   7   9
ENDBRANCH   2   7
TORSDOF 2
ENDMDL
MODEL 9
REMARK VINA RESULT:      -3.6      2.496      3.520
REMARK  2 active torsions:
REMARK  status: ('A' for Active; 'I' for Inactive)
REMARK    1  A    between atoms: O_1  and  C_8 
REMARK    2  A    between atoms: C_4  and  C_8 
ROOT
HETATM    1  N   UNK N   1      34.694  15.715   7.581  0.00  0.00    -0.408 N 
HETATM    2  C   UNK N   1      34.460  16.873   8.420  0.00  0.00     0.175 A 
HETATM    3  C   UNK N   1      33.872  18.047   7.695  0.00  0.00     0.037 A 
HETATM    4  C   UNK N   1      33.738  17.546   6.276  0.00  0.00     0.022 A 
HETATM    5  C   UNK N   1      34.254  16.109   6.247  0.00  0.00     0.115 A 
HETATM    6  H   UNK N   1      35.084  14.814   7.863  0.00  0.00     0.154 HD
ENDROOT
BRANCH   2   7
HETATM    7  C   UNK N   1      34.814  16.792   9.875  0.00  0.00     0.163 C 
HETATM    8  O   UNK N   1      35.644  17.545  10.342  0.00  0.00    -0.648 OA
BRANCH   7   9
HETATM    9  O   UNK N   1      34.210  15.883  10.670  0.00  0.00    -0.775 OA
HETATM   10  H   UNK N   1      34.521  14.999  10.691  0.00  0.00     0.167 HD
ENDBRANCH   7   9
ENDBRANCH   2   7
TORSDOF 2
ENDMDL
