MODEL 1
REMARK VINA RESULT:      -4.5      0.000      0.000
REMARK  1 active torsions:
REMARK  status: ('A' for Active; 'I' for Inactive)
REMARK    1  A    between atoms: N_8  and  C_11 
ROOT
HETATM    1  N   UNK N   1      42.170  23.738   2.067  0.00  0.00    -0.346 N 
HETATM    2  N   UNK N   1      41.525  21.604   2.435  0.00  0.00    -0.337 N 
ATOM      3  HN  UNK N   1      40.966  20.752   2.467  1.00  0.00     0.168 HD
HETATM    4  N   UNK N   1      43.592  20.861   3.426  0.00  0.00    -0.337 N 
ATOM      5  HN  UNK N   1      43.272  19.904   3.579  1.00  0.00     0.168 HD
HETATM    6  N   UNK N   1      45.273  22.540   3.580  0.00  0.00    -0.337 N 
ATOM      7  HN  UNK N   1      46.216  22.814   3.857  1.00  0.00     0.168 HD
HETATM    8  C   UNK N   1      43.171  23.053   2.640  0.00  0.00     0.121 A 
HETATM    9  C   UNK N   1      42.782  21.784   2.857  0.00  0.00     0.138 A 
HETATM   10  C   UNK N   1      44.446  23.463   3.004  0.00  0.00     0.131 A 
HETATM   11  C   UNK N   1      41.166  22.824   1.950  0.00  0.00     0.182 A 
HETATM   12  C   UNK N   1      44.854  21.249   3.791  0.00  0.00     0.183 A 
HETATM   13  H   UNK N   1      42.163  24.684   1.794  0.00  0.00     0.167 HD
ENDROOT
BRANCH  10  14
HETATM   14  N   UNK N   1      44.886  24.786   2.792  0.00  0.00    -0.383 N 
HETATM   15  H   UNK N   1      45.603  25.163   3.350  0.00  0.00     0.157 HD
HETATM   16  H   UNK N   1      44.474  25.333   2.083  0.00  0.00     0.157 HD
ENDBRANCH  10  14
TORSDOF 1
ENDMDL
MODEL 2
REMARK VINA RESULT:      -4.4     22.678     23.329
REMARK  1 active torsions:
REMARK  status: ('A' for Active; 'I' for Inactive)
REMARK    1  A    between atoms: N_8  and  C_11 
ROOT
HETATM    1  N   UNK N   1      20.083  17.886   0.322  0.00  0.00    -0.346 N 
HETATM    2  N   UNK N   1      20.227  16.530   2.123  0.00  0.00    -0.337 N 
ATOM      3  HN  UNK N   1      20.220  15.699   2.715  1.00  0.00     0.168 HD
HETATM    4  N   UNK N   1      20.770  18.252   3.719  0.00  0.00    -0.337 N 
ATOM      5  HN  UNK N   1      20.828  17.615   4.513  1.00  0.00     0.168 HD
HETATM    6  N   UNK N   1      20.909  20.443   2.798  0.00  0.00    -0.337 N 
ATOM      7  HN  UNK N   1      21.076  21.441   2.931  1.00  0.00     0.168 HD
HETATM    8  C   UNK N   1      20.389  18.607   1.410  0.00  0.00     0.121 A 
HETATM    9  C   UNK N   1      20.474  17.796   2.480  0.00  0.00     0.138 A 
HETATM   10  C   UNK N   1      20.609  19.971   1.552  0.00  0.00     0.131 A 
HETATM   11  C   UNK N   1      19.988  16.609   0.785  0.00  0.00     0.182 A 
HETATM   12  C   UNK N   1      20.990  19.594   3.876  0.00  0.00     0.183 A 
HETATM   13  H   UNK N   1      19.956  18.207  -0.601  0.00  0.00     0.167 HD
ENDROOT
BRANCH  10  14
HETATM   14  N   UNK N   1      20.528  20.849   0.452  0.00  0.00    -0.383 N 
HETATM   15  H   UNK N   1      20.408  20.491  -0.457  0.00  0.00     0.157 HD
HETATM   16  H   UNK N   1      20.592  21.822   0.594  0.00  0.00     0.157 HD
ENDBRANCH  10  14
TORSDOF 1
ENDMDL
MODEL 3
REMARK VINA RESULT:      -4.3     12.944     14.341
REMARK  1 active torsions:
REMARK  status: ('A' for Active; 'I' for Inactive)
REMARK    1  A    between atoms: N_8  and  C_11 
ROOT
HETATM    1  N   UNK N   1      34.570  13.821  11.803  0.00  0.00    -0.346 N 
HETATM    2  N   UNK N   1      36.126  15.394  12.261  0.00  0.00    -0.337 N 
ATOM      3  HN  UNK N   1      36.909  15.888  12.689  1.00  0.00     0.168 HD
HETATM    4  N   UNK N   1      35.444  16.958  10.559  0.00  0.00    -0.337 N 
ATOM      5  HN  UNK N   1      36.158  17.649  10.789  1.00  0.00     0.168 HD
HETATM    6  N   UNK N   1      33.591  16.241   9.246  0.00  0.00    -0.337 N 
ATOM      7  HN  UNK N   1      32.932  16.421   8.488  1.00  0.00     0.168 HD
HETATM    8  C   UNK N   1      34.424  14.861  10.969  0.00  0.00     0.121 A 
HETATM    9  C   UNK N   1      35.353  15.795  11.246  0.00  0.00     0.138 A 
HETATM   10  C   UNK N   1      33.510  15.071   9.946  0.00  0.00     0.131 A 
HETATM   11  C   UNK N   1      35.625  14.172  12.590  0.00  0.00     0.182 A 
HETATM   12  C   UNK N   1      34.549  17.179   9.547  0.00  0.00     0.183 A 
HETATM   13  H   UNK N   1      34.036  12.994  11.838  0.00  0.00     0.167 HD
ENDROOT
BRANCH  10  14
HETATM   14  N   UNK N   1      32.523  14.113   9.630  0.00  0.00    -0.383 N 
HETATM   15  H   UNK N   1      32.774  13.282   9.167  0.00  0.00     0.157 HD
HETATM   16  H   UNK N   1      31.583  14.278   9.873  0.00  0.00     0.157 HD
ENDBRANCH  10  14
TORSDOF 1
ENDMDL
MODEL 4
REMARK VINA RESULT:      -4.3     12.079     13.428
REMARK  1 active torsions:
REMARK  status: ('A' for Active; 'I' for Inactive)
REMARK    1  A    between atoms: N_8  and  C_11 
ROOT
HETATM    1  N   UNK N   1      33.094  16.712   7.835  0.00  0.00    -0.346 N 
HETATM    2  N   UNK N   1      34.643  18.159   8.618  0.00  0.00    -0.337 N 
ATOM      3  HN  UNK N   1      35.264  18.963   8.702  1.00  0.00     0.168 HD
HETATM    4  N   UNK N   1      35.162  16.939  10.631  0.00  0.00    -0.337 N 
ATOM      5  HN  UNK N   1      35.857  17.610  10.959  1.00  0.00     0.168 HD
HETATM    6  N   UNK N   1      33.933  14.918  10.905  0.00  0.00    -0.337 N 
ATOM      7  HN  UNK N   1      33.727  14.086  11.459  1.00  0.00     0.168 HD
HETATM    8  C   UNK N   1      33.580  16.269   9.003  0.00  0.00     0.121 A 
HETATM    9  C   UNK N   1      34.502  17.133   9.466  0.00  0.00     0.138 A 
HETATM   10  C   UNK N   1      33.273  15.125   9.728  0.00  0.00     0.131 A 
HETATM   11  C   UNK N   1      33.763  17.879   7.618  0.00  0.00     0.182 A 
HETATM   12  C   UNK N   1      34.871  15.816  11.357  0.00  0.00     0.183 A 
HETATM   13  H   UNK N   1      32.410  16.292   7.265  0.00  0.00     0.167 HD
ENDROOT
BRANCH  10  14
HETATM   14  N   UNK N   1      32.312  14.199   9.272  0.00  0.00    -0.383 N 
HETATM   15  H   UNK N   1      32.547  13.247   9.187  0.00  0.00     0.157 HD
HETATM   16  H   UNK N   1      31.405  14.505   9.039  0.00  0.00     0.157 HD
ENDBRANCH  10  14
TORSDOF 1
ENDMDL
MODEL 5
REMARK VINA RESULT:      -4.2     22.225     23.809
REMARK  1 active torsions:
REMARK  status: ('A' for Active; 'I' for Inactive)
REMARK    1  A    between atoms: N_8  and  C_11 
ROOT
HETATM    1  N   UNK N   1      22.216  13.779   8.886  0.00  0.00    -0.346 N 
HETATM    2  N   UNK N   1      20.849  12.881  10.445  0.00  0.00    -0.337 N 
ATOM      3  HN  UNK N   1      20.012  12.604  10.957  1.00  0.00     0.168 HD
HETATM    4  N   UNK N   1      22.589  11.947  11.827  0.00  0.00    -0.337 N 
ATOM      5  HN  UNK N   1      21.946  11.552  12.515  1.00  0.00     0.168 HD
HETATM    6  N   UNK N   1      24.798  12.336  11.031  0.00  0.00    -0.337 N 
ATOM      7  HN  UNK N   1      25.805  12.217  11.146  1.00  0.00     0.168 HD
HETATM    8  C   UNK N   1      22.945  13.164   9.829  0.00  0.00     0.121 A 
HETATM    9  C   UNK N   1      22.127  12.630  10.754  0.00  0.00     0.138 A 
HETATM   10  C   UNK N   1      24.321  13.024   9.952  0.00  0.00     0.131 A 
HETATM   11  C   UNK N   1      20.928  13.592   9.287  0.00  0.00     0.182 A 
HETATM   12  C   UNK N   1      23.943  11.800  11.963  0.00  0.00     0.183 A 
HETATM   13  H   UNK N   1      22.539  14.257   8.088  0.00  0.00     0.167 HD
ENDROOT
BRANCH  10  14
HETATM   14  N   UNK N   1      25.206  13.570   9.000  0.00  0.00    -0.383 N 
HETATM   15  H   UNK N   1      25.900  14.208   9.282  0.00  0.00     0.157 HD
HETATM   16  H   UNK N   1      25.129  13.313   8.052  0.00  0.00     0.157 HD
ENDBRANCH  10  14
TORSDOF 1
ENDMDL
MODEL 6
REMARK VINA RESULT:      -4.2     22.463     23.608
REMARK  1 active torsions:
REMARK  status: ('A' for Active; 'I' for Inactive)
REMARK    1  A    between atoms: N_8  and  C_11 
ROOT
HETATM    1  N   UNK N   1      20.451  19.677   1.158  0.00  0.00    -0.346 N 
HETATM    2  N   UNK N   1      21.226  20.142   3.229  0.00  0.00    -0.337 N 
ATOM      3  HN  UNK N   1      21.637  20.631   4.024  1.00  0.00     0.168 HD
HETATM    4  N   UNK N   1      20.725  17.992   4.197  0.00  0.00    -0.337 N 
ATOM      5  HN  UNK N   1      21.082  18.231   5.122  1.00  0.00     0.168 HD
HETATM    6  N   UNK N   1      19.719  16.443   2.693  0.00  0.00    -0.337 N 
ATOM      7  HN  UNK N   1      19.330  15.516   2.521  1.00  0.00     0.168 HD
HETATM    8  C   UNK N   1      20.293  18.609   1.953  0.00  0.00     0.121 A 
HETATM    9  C   UNK N   1      20.756  18.890   3.184  0.00  0.00     0.138 A 
HETATM   10  C   UNK N   1      19.757  17.358   1.679  0.00  0.00     0.131 A 
HETATM   11  C   UNK N   1      21.028  20.610   1.967  0.00  0.00     0.182 A 
HETATM   12  C   UNK N   1      20.198  16.754   3.944  0.00  0.00     0.183 A 
HETATM   13  H   UNK N   1      20.206  19.767   0.209  0.00  0.00     0.167 HD
ENDROOT
BRANCH  10  14
HETATM   14  N   UNK N   1      19.263  17.030   0.400  0.00  0.00    -0.383 N 
HETATM   15  H   UNK N   1      18.444  17.460   0.063  0.00  0.00     0.157 HD
HETATM   16  H   UNK N   1      19.738  16.371  -0.157  0.00  0.00     0.157 HD
ENDBRANCH  10  14
TORSDOF 1
ENDMDL
MODEL 7
REMARK VINA RESULT:      -4.2     23.443     24.753
REMARK  1 active torsions:
REMARK  status: ('A' for Active; 'I' for Inactive)
REMARK    1  A    between atoms: N_8  and  C_11 
ROOT
HETATM    1  N   UNK N   1      20.543  13.693   9.747  0.00  0.00    -0.346 N 
HETATM    2  N   UNK N   1      22.534  14.192   8.803  0.00  0.00    -0.337 N 
ATOM      3  HN  UNK N   1      23.244  14.597   8.193  1.00  0.00     0.168 HD
HETATM    4  N   UNK N   1      23.876  12.804  10.246  0.00  0.00    -0.337 N 
ATOM      5  HN  UNK N   1      24.759  13.048   9.799  1.00  0.00     0.168 HD
HETATM    6  N   UNK N   1      22.640  11.612  11.896  0.00  0.00    -0.337 N 
ATOM      7  HN  UNK N   1      22.628  10.961  12.682  1.00  0.00     0.168 HD
HETATM    8  C   UNK N   1      21.523  13.031  10.378  0.00  0.00     0.121 A 
HETATM    9  C   UNK N   1      22.707  13.330   9.812  0.00  0.00     0.138 A 
HETATM   10  C   UNK N   1      21.467  12.150  11.449  0.00  0.00     0.131 A 
HETATM   11  C   UNK N   1      21.190  14.403   8.780  0.00  0.00     0.182 A 
HETATM   12  C   UNK N   1      23.837  11.933  11.302  0.00  0.00     0.183 A 
HETATM   13  H   UNK N   1      19.577  13.672   9.939  0.00  0.00     0.167 HD
ENDROOT
BRANCH  10  14
HETATM   14  N   UNK N   1      20.243  11.814  12.065  0.00  0.00    -0.383 N 
HETATM   15  H   UNK N   1      19.780  12.472  12.631  0.00  0.00     0.157 HD
HETATM   16  H   UNK N   1      19.853  10.920  11.927  0.00  0.00     0.157 HD
ENDBRANCH  10  14
TORSDOF 1
ENDMDL
MODEL 8
REMARK VINA RESULT:      -4.1     22.882     23.771
REMARK  1 active torsions:
REMARK  status: ('A' for Active; 'I' for Inactive)
REMARK    1  A    between atoms: N_8  and  C_11 
ROOT
HETATM    1  N   UNK N   1      20.555  19.594   3.488  0.00  0.00    -0.346 N 
HETATM    2  N   UNK N   1      20.660  20.167   1.304  0.00  0.00    -0.337 N 
ATOM      3  HN  UNK N   1      20.778  20.709   0.448  1.00  0.00     0.168 HD
HETATM    4  N   UNK N   1      20.118  17.990   0.424  0.00  0.00    -0.337 N 
ATOM      5  HN  UNK N   1      20.173  18.279  -0.552  1.00  0.00     0.168 HD
HETATM    6  N   UNK N   1      19.740  16.322   2.081  0.00  0.00    -0.337 N 
ATOM      7  HN  UNK N   1      19.509  15.356   2.316  1.00  0.00     0.168 HD
HETATM    8  C   UNK N   1      20.284  18.526   2.724  0.00  0.00     0.121 A 
HETATM    9  C   UNK N   1      20.348  18.872   1.425  0.00  0.00     0.138 A 
HETATM   10  C   UNK N   1      19.974  17.221   3.082  0.00  0.00     0.131 A 
HETATM   11  C   UNK N   1      20.784  20.594   2.591  0.00  0.00     0.182 A 
HETATM   12  C   UNK N   1      19.811  16.699   0.761  0.00  0.00     0.183 A 
HETATM   13  H   UNK N   1      20.583  19.644   4.471  0.00  0.00     0.167 HD
ENDROOT
BRANCH  10  14
HETATM   14  N   UNK N   1      19.899  16.825   4.434  0.00  0.00    -0.383 N 
HETATM   15  H   UNK N   1      20.154  17.454   5.146  0.00  0.00     0.157 HD
HETATM   16  H   UNK N   1      19.591  15.918   4.664  0.00  0.00     0.157 HD
ENDBRANCH  10  14
TORSDOF 1
ENDMDL
MODEL 9
REMARK VINA RESULT:      -4.1      1.426      3.410
REMARK  1 active torsions:
REMARK  status: ('A' for Active; 'I' for Inactive)
REMARK    1  A    between atoms: N_8  and  C_11 
ROOT
HETATM    1  N   UNK N   1      46.040  24.460   2.425  0.00  0.00    -0.346 N 
HETATM    2  N   UNK N   1      44.466  25.288   1.031  0.00  0.00    -0.337 N 
ATOM      3  HN  UNK N   1      43.992  25.866   0.337  1.00  0.00     0.168 HD
HETATM    4  N   UNK N   1      42.742  23.700   1.591  0.00  0.00    -0.337 N 
ATOM      5  HN  UNK N   1      42.052  24.097   0.952  1.00  0.00     0.168 HD
HETATM    6  N   UNK N   1      43.378  22.087   3.223  0.00  0.00    -0.337 N 
ATOM      7  HN  UNK N   1      43.138  21.276   3.793  1.00  0.00     0.168 HD
HETATM    8  C   UNK N   1      44.915  23.737   2.528  0.00  0.00     0.121 A 
HETATM    9  C   UNK N   1      43.981  24.234   1.697  0.00  0.00     0.138 A 
HETATM   10  C   UNK N   1      44.625  22.634   3.321  0.00  0.00     0.131 A 
HETATM   11  C   UNK N   1      45.739  25.410   1.496  0.00  0.00     0.182 A 
HETATM   12  C   UNK N   1      42.440  22.612   2.366  0.00  0.00     0.183 A 
HETATM   13  H   UNK N   1      46.888  24.332   2.909  0.00  0.00     0.167 HD
ENDROOT
BRANCH  10  14
HETATM   14  N   UNK N   1      45.581  22.088   4.203  0.00  0.00    -0.383 N 
HETATM   15  H   UNK N   1      46.382  22.606   4.443  0.00  0.00     0.157 HD
HETATM   16  H   UNK N   1      45.446  21.187   4.578  0.00  0.00     0.157 HD
ENDBRANCH  10  14
TORSDOF 1
ENDMDL
