MODEL 1
REMARK VINA RESULT:      -4.5      0.000      0.000
REMARK  5 active torsions:
REMARK  status: ('A' for Active; 'I' for Inactive)
REMARK    1  A    between atoms: O_1  and  C_8 
REMARK    2  A    between atoms: C_6  and  N_4 
REMARK       I    between atoms: N_5  and  C_9 
REMARK    3  A    between atoms: C_6  and  C_7 
REMARK    4  A    between atoms: C_6  and  C_8 
REMARK    5  A    between atoms: C_7  and  C_9 
ROOT
HETATM    1  C   UNK N   1      34.744  15.053  11.191  0.00  0.00     0.182 C 
ENDROOT
BRANCH   1   2
HETATM    2  N   UNK N   1      33.347  15.132  10.789  0.00  0.00    -0.417 N 
HETATM    3  H   UNK N   1      32.831  14.279  10.573  0.00  0.00     0.150 HD
HETATM    4  H   UNK N   1      32.885  16.038  10.725  0.00  0.00     0.150 HD
ENDBRANCH   1   2
BRANCH   1   5
HETATM    5  C   UNK N   1      35.309  13.821  11.912  0.00  0.00     0.138 C 
BRANCH   5   6
HETATM    6  C   UNK N   1      35.620  13.911  13.379  0.00  0.00     0.217 C 
HETATM    7  O   UNK N   1      34.877  13.439  14.222  0.00  0.00    -0.274 OA
HETATM    8  N   UNK N   1      36.752  14.531  13.764  0.00  0.00    -0.370 N 
HETATM    9  H   UNK N   1      37.358  14.915  13.089  0.00  0.00     0.159 HD
HETATM   10  H   UNK N   1      36.974  14.601  14.721  0.00  0.00     0.159 HD
ENDBRANCH   5   6
ENDBRANCH   1   5
BRANCH   1  11
HETATM   11  C   UNK N   1      35.637  16.215  10.882  0.00  0.00     0.163 C 
HETATM   12  O   UNK N   1      35.151  17.296  10.597  0.00  0.00    -0.648 OA
BRANCH  11  13
HETATM   13  O   UNK N   1      36.976  16.075  10.918  0.00  0.00    -0.775 OA
HETATM   14  H   UNK N   1      37.433  16.141  11.733  0.00  0.00     0.167 HD
ENDBRANCH  11  13
ENDBRANCH   1  11
TORSDOF 5
ENDMDL
MODEL 2
REMARK VINA RESULT:      -4.4      2.795      3.923
REMARK  5 active torsions:
REMARK  status: ('A' for Active; 'I' for Inactive)
REMARK    1  A    between atoms: O_1  and  C_8 
REMARK    2  A    between atoms: C_6  and  N_4 
REMARK       I    between atoms: N_5  and  C_9 
REMARK    3  A    between atoms: C_6  and  C_7 
REMARK    4  A    between atoms: C_6  and  C_8 
REMARK    5  A    between atoms: C_7  and  C_9 
ROOT
HETATM    1  C   UNK N   1      33.583  17.281   8.724  0.00  0.00     0.182 C 
ENDROOT
BRANCH   1   2
HETATM    2  N   UNK N   1      32.159  17.538   8.888  0.00  0.00    -0.417 N 
HETATM    3  H   UNK N   1      31.630  17.034   9.600  0.00  0.00     0.150 HD
HETATM    4  H   UNK N   1      31.692  18.220   8.292  0.00  0.00     0.150 HD
ENDBRANCH   1   2
BRANCH   1   5
HETATM    5  C   UNK N   1      34.274  16.096   9.414  0.00  0.00     0.138 C 
BRANCH   5   6
HETATM    6  C   UNK N   1      35.207  16.361  10.562  0.00  0.00     0.217 C 
HETATM    7  O   UNK N   1      35.927  17.344  10.589  0.00  0.00    -0.274 OA
HETATM    8  N   UNK N   1      35.241  15.484  11.583  0.00  0.00    -0.370 N 
HETATM    9  H   UNK N   1      34.662  14.687  11.568  0.00  0.00     0.159 HD
HETATM   10  H   UNK N   1      35.845  15.639  12.345  0.00  0.00     0.159 HD
ENDBRANCH   5   6
ENDBRANCH   1   5
BRANCH   1  11
HETATM   11  C   UNK N   1      34.375  18.209   7.856  0.00  0.00     0.163 C 
HETATM   12  O   UNK N   1      34.372  18.062   6.646  0.00  0.00    -0.648 OA
BRANCH  11  13
HETATM   13  O   UNK N   1      35.093  19.209   8.404  0.00  0.00    -0.775 OA
HETATM   14  H   UNK N   1      34.688  19.799   9.009  0.00  0.00     0.167 HD
ENDBRANCH  11  13
ENDBRANCH   1  11
TORSDOF 5
ENDMDL
MODEL 3
REMARK VINA RESULT:      -4.4      4.281      4.752
REMARK  5 active torsions:
REMARK  status: ('A' for Active; 'I' for Inactive)
REMARK    1  A    between atoms: O_1  and  C_8 
REMARK    2  A    between atoms: C_6  and  N_4 
REMARK       I    between atoms: N_5  and  C_9 
REMARK    3  A    between atoms: C_6  and  C_7 
REMARK    4  A    between atoms: C_6  and  C_8 
REMARK    5  A    between atoms: C_7  and  C_9 
ROOT
HETATM    1  C   UNK N   1      34.517  17.096   9.133  0.00  0.00     0.182 C 
ENDROOT
BRANCH   1   2
HETATM    2  N   UNK N   1      35.006  17.221  10.499  0.00  0.00    -0.417 N 
HETATM    3  H   UNK N   1      35.731  17.904  10.719  0.00  0.00     0.150 HD
HETATM    4  H   UNK N   1      34.625  16.626  11.234  0.00  0.00     0.150 HD
ENDBRANCH   1   2
BRANCH   1   5
HETATM    5  C   UNK N   1      33.786  15.836   8.649  0.00  0.00     0.138 C 
BRANCH   5   6
HETATM    6  C   UNK N   1      32.319  15.684   8.942  0.00  0.00     0.217 C 
HETATM    7  O   UNK N   1      31.467  16.018   8.138  0.00  0.00    -0.274 OA
HETATM    8  N   UNK N   1      31.947  15.163  10.127  0.00  0.00    -0.370 N 
HETATM    9  H   UNK N   1      32.630  14.891  10.782  0.00  0.00     0.159 HD
HETATM   10  H   UNK N   1      30.991  15.055  10.338  0.00  0.00     0.159 HD
ENDBRANCH   5   6
ENDBRANCH   1   5
BRANCH   1  11
HETATM   11  C   UNK N   1      34.744  18.239   8.192  0.00  0.00     0.163 C 
HETATM   12  O   UNK N   1      34.352  18.165   7.040  0.00  0.00    -0.648 OA
BRANCH  11  13
HETATM   13  O   UNK N   1      35.378  19.351   8.612  0.00  0.00    -0.775 OA
HETATM   14  H   UNK N   1      36.056  19.289   9.256  0.00  0.00     0.167 HD
ENDBRANCH  11  13
ENDBRANCH   1  11
TORSDOF 5
ENDMDL
MODEL 4
REMARK VINA RESULT:      -4.3     17.897     18.538
REMARK  5 active torsions:
REMARK  status: ('A' for Active; 'I' for Inactive)
REMARK    1  A    between atoms: O_1  and  C_8 
REMARK    2  A    between atoms: C_6  and  N_4 
REMARK       I    between atoms: N_5  and  C_9 
REMARK    3  A    between atoms: C_6  and  C_7 
REMARK    4  A    between atoms: C_6  and  C_8 
REMARK    5  A    between atoms: C_7  and  C_9 
ROOT
HETATM    1  C   UNK N   1      20.506  19.693   1.806  0.00  0.00     0.182 C 
ENDROOT
BRANCH   1   2
HETATM    2  N   UNK N   1      20.560  20.283   0.475  0.00  0.00    -0.417 N 
HETATM    3  H   UNK N   1      20.655  21.293   0.370  0.00  0.00     0.150 HD
HETATM    4  H   UNK N   1      20.503  19.687  -0.349  0.00  0.00     0.150 HD
ENDBRANCH   1   2
BRANCH   1   5
HETATM    5  C   UNK N   1      19.987  18.267   2.037  0.00  0.00     0.138 C 
BRANCH   5   6
HETATM    6  C   UNK N   1      20.311  17.199   1.031  0.00  0.00     0.217 C 
HETATM    7  O   UNK N   1      20.330  17.429  -0.165  0.00  0.00    -0.274 OA
HETATM    8  N   UNK N   1      20.587  15.956   1.472  0.00  0.00    -0.370 N 
HETATM    9  H   UNK N   1      20.574  15.762   2.438  0.00  0.00     0.159 HD
HETATM   10  H   UNK N   1      20.801  15.242   0.830  0.00  0.00     0.159 HD
ENDBRANCH   5   6
ENDBRANCH   1   5
BRANCH   1  11
HETATM   11  C   UNK N   1      20.975  20.518   2.965  0.00  0.00     0.163 C 
HETATM   12  O   UNK N   1      20.621  20.233   4.096  0.00  0.00    -0.648 OA
BRANCH  11  13
HETATM   13  O   UNK N   1      21.786  21.575   2.766  0.00  0.00    -0.775 OA
HETATM   14  H   UNK N   1      21.859  22.240   3.422  0.00  0.00     0.167 HD
ENDBRANCH  11  13
ENDBRANCH   1  11
TORSDOF 5
ENDMDL
MODEL 5
REMARK VINA RESULT:      -4.3     12.607     13.799
REMARK  5 active torsions:
REMARK  status: ('A' for Active; 'I' for Inactive)
REMARK    1  A    between atoms: O_1  and  C_8 
REMARK    2  A    between atoms: C_6  and  N_4 
REMARK       I    between atoms: N_5  and  C_9 
REMARK    3  A    between atoms: C_6  and  C_7 
REMARK    4  A    between atoms: C_6  and  C_8 
REMARK    5  A    between atoms: C_7  and  C_9 
ROOT
HETATM    1  C   UNK N   1      22.381  12.326  11.466  0.00  0.00     0.182 C 
ENDROOT
BRANCH   1   2
HETATM    2  N   UNK N   1      21.188  11.671  11.985  0.00  0.00    -0.417 N 
HETATM    3  H   UNK N   1      21.011  10.690  11.768  0.00  0.00     0.150 HD
HETATM    4  H   UNK N   1      20.532  12.193  12.564  0.00  0.00     0.150 HD
ENDBRANCH   1   2
BRANCH   1   5
HETATM    5  C   UNK N   1      22.349  13.159  10.177  0.00  0.00     0.138 C 
BRANCH   5   6
HETATM    6  C   UNK N   1      21.080  13.868   9.795  0.00  0.00     0.217 C 
HETATM    7  O   UNK N   1      19.984  13.404  10.055  0.00  0.00    -0.274 OA
HETATM    8  N   UNK N   1      21.167  15.047   9.150  0.00  0.00    -0.370 N 
HETATM    9  H   UNK N   1      22.049  15.428   8.937  0.00  0.00     0.159 HD
HETATM   10  H   UNK N   1      20.347  15.527   8.891  0.00  0.00     0.159 HD
ENDBRANCH   5   6
ENDBRANCH   1   5
BRANCH   1  11
HETATM   11  C   UNK N   1      23.663  12.168  12.225  0.00  0.00     0.163 C 
HETATM   12  O   UNK N   1      23.637  11.989  13.431  0.00  0.00    -0.648 OA
BRANCH  11  13
HETATM   13  O   UNK N   1      24.846  12.224  11.584  0.00  0.00    -0.775 OA
HETATM   14  H   UNK N   1      25.422  12.949  11.725  0.00  0.00     0.167 HD
ENDBRANCH  11  13
ENDBRANCH   1  11
TORSDOF 5
ENDMDL
MODEL 6
REMARK VINA RESULT:      -4.1     12.256     13.504
REMARK  5 active torsions:
REMARK  status: ('A' for Active; 'I' for Inactive)
REMARK    1  A    between atoms: O_1  and  C_8 
REMARK    2  A    between atoms: C_6  and  N_4 
REMARK       I    between atoms: N_5  and  C_9 
REMARK    3  A    between atoms: C_6  and  C_7 
REMARK    4  A    between atoms: C_6  and  C_8 
REMARK    5  A    between atoms: C_7  and  C_9 
ROOT
HETATM    1  C   UNK N   1      23.662  12.117  11.489  0.00  0.00     0.182 C 
ENDROOT
BRANCH   1   2
HETATM    2  N   UNK N   1      25.054  12.384  11.156  0.00  0.00    -0.417 N 
HETATM    3  H   UNK N   1      25.313  13.274  10.729  0.00  0.00     0.150 HD
HETATM    4  H   UNK N   1      25.768  11.683  11.348  0.00  0.00     0.150 HD
ENDBRANCH   1   2
BRANCH   1   5
HETATM    5  C   UNK N   1      22.582  11.987  10.406  0.00  0.00     0.138 C 
BRANCH   5   6
HETATM    6  C   UNK N   1      21.397  12.911  10.441  0.00  0.00     0.217 C 
HETATM    7  O   UNK N   1      21.413  13.997   9.889  0.00  0.00    -0.274 OA
HETATM    8  N   UNK N   1      20.290  12.519  11.103  0.00  0.00    -0.370 N 
HETATM    9  H   UNK N   1      20.269  11.642  11.551  0.00  0.00     0.159 HD
HETATM   10  H   UNK N   1      19.503  13.109  11.138  0.00  0.00     0.159 HD
ENDBRANCH   5   6
ENDBRANCH   1   5
BRANCH   1  11
HETATM   11  C   UNK N   1      23.296  11.968  12.934  0.00  0.00     0.163 C 
HETATM   12  O   UNK N   1      22.385  11.226  13.258  0.00  0.00    -0.648 OA
BRANCH  11  13
HETATM   13  O   UNK N   1      23.968  12.652  13.881  0.00  0.00    -0.775 OA
HETATM   14  H   UNK N   1      23.503  13.195  14.486  0.00  0.00     0.167 HD
ENDBRANCH  11  13
ENDBRANCH   1  11
TORSDOF 5
ENDMDL
MODEL 7
REMARK VINA RESULT:      -3.9     13.022     13.497
REMARK  5 active torsions:
REMARK  status: ('A' for Active; 'I' for Inactive)
REMARK    1  A    between atoms: O_1  and  C_8 
REMARK    2  A    between atoms: C_6  and  N_4 
REMARK       I    between atoms: N_5  and  C_9 
REMARK    3  A    between atoms: C_6  and  C_7 
REMARK    4  A    between atoms: C_6  and  C_8 
REMARK    5  A    between atoms: C_7  and  C_9 
ROOT
HETATM    1  C   UNK N   1      42.218  21.910   2.703  0.00  0.00     0.182 C 
ENDROOT
BRANCH   1   2
HETATM    2  N   UNK N   1      42.126  23.349   2.503  0.00  0.00    -0.417 N 
HETATM    3  H   UNK N   1      42.612  23.786   1.720  0.00  0.00     0.150 HD
HETATM    4  H   UNK N   1      41.576  23.919   3.144  0.00  0.00     0.150 HD
ENDBRANCH   1   2
BRANCH   1   5
HETATM    5  C   UNK N   1      43.467  21.257   3.312  0.00  0.00     0.138 C 
BRANCH   5   6
HETATM    6  C   UNK N   1      44.307  22.045   4.277  0.00  0.00     0.217 C 
HETATM    7  O   UNK N   1      43.807  22.737   5.146  0.00  0.00    -0.274 OA
HETATM    8  N   UNK N   1      45.648  21.979   4.171  0.00  0.00    -0.370 N 
HETATM    9  H   UNK N   1      46.060  21.422   3.471  0.00  0.00     0.159 HD
HETATM   10  H   UNK N   1      46.217  22.488   4.794  0.00  0.00     0.159 HD
ENDBRANCH   5   6
ENDBRANCH   1   5
BRANCH   1  11
HETATM   11  C   UNK N   1      41.051  21.062   2.298  0.00  0.00     0.163 C 
HETATM   12  O   UNK N   1      41.226  20.089   1.585  0.00  0.00    -0.648 OA
BRANCH  11  13
HETATM   13  O   UNK N   1      39.808  21.369   2.715  0.00  0.00    -0.775 OA
HETATM   14  H   UNK N   1      39.155  21.624   2.094  0.00  0.00     0.167 HD
ENDBRANCH  11  13
ENDBRANCH   1  11
TORSDOF 5
ENDMDL
MODEL 8
REMARK VINA RESULT:      -3.9     13.929     14.610
REMARK  5 active torsions:
REMARK  status: ('A' for Active; 'I' for Inactive)
REMARK    1  A    between atoms: O_1  and  C_8 
REMARK    2  A    between atoms: C_6  and  N_4 
REMARK       I    between atoms: N_5  and  C_9 
REMARK    3  A    between atoms: C_6  and  C_7 
REMARK    4  A    between atoms: C_6  and  C_8 
REMARK    5  A    between atoms: C_7  and  C_9 
ROOT
HETATM    1  C   UNK N   1      43.750  22.871   3.271  0.00  0.00     0.182 C 
ENDROOT
BRANCH   1   2
HETATM    2  N   UNK N   1      43.528  24.058   4.084  0.00  0.00    -0.417 N 
HETATM    3  H   UNK N   1      42.590  24.452   4.163  0.00  0.00     0.150 HD
HETATM    4  H   UNK N   1      44.307  24.495   4.574  0.00  0.00     0.150 HD
ENDBRANCH   1   2
BRANCH   1   5
HETATM    5  C   UNK N   1      42.994  22.639   1.956  0.00  0.00     0.138 C 
BRANCH   5   6
HETATM    6  C   UNK N   1      41.553  23.055   1.858  0.00  0.00     0.217 C 
HETATM    7  O   UNK N   1      41.230  24.221   1.717  0.00  0.00    -0.274 OA
HETATM    8  N   UNK N   1      40.600  22.105   1.929  0.00  0.00    -0.370 N 
HETATM    9  H   UNK N   1      40.853  21.161   2.043  0.00  0.00     0.159 HD
HETATM   10  H   UNK N   1      39.650  22.356   1.867  0.00  0.00     0.159 HD
ENDBRANCH   5   6
ENDBRANCH   1   5
BRANCH   1  11
HETATM   11  C   UNK N   1      44.749  21.862   3.749  0.00  0.00     0.163 C 
HETATM   12  O   UNK N   1      44.501  20.672   3.660  0.00  0.00    -0.648 OA
BRANCH  11  13
HETATM   13  O   UNK N   1      45.921  22.262   4.279  0.00  0.00    -0.775 OA
HETATM   14  H   UNK N   1      46.367  23.005   3.923  0.00  0.00     0.167 HD
ENDBRANCH  11  13
ENDBRANCH   1  11
TORSDOF 5
ENDMDL
MODEL 9
REMARK VINA RESULT:      -3.8      4.005      4.486
REMARK  5 active torsions:
REMARK  status: ('A' for Active; 'I' for Inactive)
REMARK    1  A    between atoms: O_1  and  C_8 
REMARK    2  A    between atoms: C_6  and  N_4 
REMARK       I    between atoms: N_5  and  C_9 
REMARK    3  A    between atoms: C_6  and  C_7 
REMARK    4  A    between atoms: C_6  and  C_8 
REMARK    5  A    between atoms: C_7  and  C_9 
ROOT
HETATM    1  C   UNK N   1      34.381  17.174   9.134  0.00  0.00     0.182 C 
ENDROOT
BRANCH   1   2
HETATM    2  N   UNK N   1      34.969  17.222  10.465  0.00  0.00    -0.417 N 
HETATM    3  H   UNK N   1      34.654  17.924  11.135  0.00  0.00     0.150 HD
HETATM    4  H   UNK N   1      35.695  16.556  10.726  0.00  0.00     0.150 HD
ENDBRANCH   1   2
BRANCH   1   5
HETATM    5  C   UNK N   1      33.442  16.038   8.706  0.00  0.00     0.138 C 
BRANCH   5   6
HETATM    6  C   UNK N   1      34.026  14.696   8.363  0.00  0.00     0.217 C 
HETATM    7  O   UNK N   1      33.555  13.662   8.802  0.00  0.00    -0.274 OA
HETATM    8  N   UNK N   1      35.098  14.646   7.549  0.00  0.00    -0.370 N 
HETATM    9  H   UNK N   1      35.484  15.478   7.191  0.00  0.00     0.159 HD
HETATM   10  H   UNK N   1      35.496  13.777   7.313  0.00  0.00     0.159 HD
ENDBRANCH   5   6
ENDBRANCH   1   5
BRANCH   1  11
HETATM   11  C   UNK N   1      34.715  18.273   8.172  0.00  0.00     0.163 C 
HETATM   12  O   UNK N   1      34.398  18.173   6.999  0.00  0.00    -0.648 OA
BRANCH  11  13
HETATM   13  O   UNK N   1      35.366  19.374   8.595  0.00  0.00    -0.775 OA
HETATM   14  H   UNK N   1      35.006  20.224   8.430  0.00  0.00     0.167 HD
ENDBRANCH  11  13
ENDBRANCH   1  11
TORSDOF 5
ENDMDL
