MODEL 1
REMARK VINA RESULT:      -6.9      0.000      0.000
REMARK  15 active torsions:
REMARK  status: ('A' for Active; 'I' for Inactive)
REMARK    1  A    between atoms: C_10  and  O_1 
REMARK    2  A    between atoms: O_1  and  C_23 
REMARK    3  A    between atoms: C_15  and  O_2 
REMARK    4  A    between atoms: C_21  and  O_3 
REMARK    5  A    between atoms: C_24  and  O_5 
REMARK    6  A    between atoms: O_6  and  C_30 
REMARK    7  A    between atoms: C_9  and  C_12 
REMARK    8  A    between atoms: C_12  and  C_17 
REMARK    9  A    between atoms: C_17  and  C_21 
REMARK   10  A    between atoms: C_21  and  C_22 
REMARK   11  A    between atoms: C_22  and  C_24 
REMARK   12  A    between atoms: C_23  and  C_25 
REMARK   13  A    between atoms: C_24  and  C_26 
REMARK   14  A    between atoms: C_25  and  C_27 
REMARK   15  A    between atoms: C_26  and  C_30 
ROOT
HETATM    1  C   UNK N   1      28.348  22.639  -7.133  0.00  0.00     0.053 C 
HETATM    2  C   UNK N   1      29.162  22.080  -5.943  0.00  0.00     0.004 C 
HETATM    3  C   UNK N   1      27.266  23.720  -6.804  0.00  0.00     0.143 C 
HETATM    4  C   UNK N   1      30.197  20.987  -6.399  0.00  0.00     0.009 C 
HETATM    5  C   UNK N   1      27.697  21.421  -7.808  0.00  0.00    -0.053 C 
HETATM    6  C   UNK N   1      25.931  23.112  -6.401  0.00  0.00     0.069 C 
HETATM    7  C   UNK N   1      25.418  22.414  -7.644  0.00  0.00     0.144 C 
HETATM    8  C   UNK N   1      29.660  20.026  -7.430  0.00  0.00    -0.022 C 
HETATM    9  C   UNK N   1      26.372  21.323  -8.023  0.00  0.00     0.012 C 
HETATM   10  C   UNK N   1      28.502  20.221  -8.068  0.00  0.00     0.004 C 
HETATM   11  C   UNK N   1      31.498  21.522  -6.976  0.00  0.00     0.014 C 
ENDROOT
BRANCH   2  12
HETATM   12  C   UNK N   1      29.784  23.157  -5.033  0.00  0.00     0.009 C 
BRANCH  12  13
HETATM   13  C   UNK N   1      29.332  23.039  -3.582  0.00  0.00     0.032 C 
BRANCH  13  14
HETATM   14  C   UNK N   1      30.392  22.394  -2.722  0.00  0.00     0.120 C 
BRANCH  14  15
HETATM   15  O   UNK N   1      30.409  23.044  -1.488  0.00  0.00    -0.395 OA
HETATM   16  H   UNK N   1      29.762  23.550  -0.970  0.00  0.00     0.210 HD
ENDBRANCH  14  15
BRANCH  14  17
HETATM   17  C   UNK N   1      31.741  22.554  -3.403  0.00  0.00     0.064 C 
BRANCH  17  18
HETATM   18  C   UNK N   1      32.586  21.291  -3.297  0.00  0.00     0.130 C 
BRANCH  18  19
HETATM   19  O   UNK N   1      32.946  21.066  -1.966  0.00  0.00    -0.395 OA
HETATM   20  H   UNK N   1      32.875  21.636  -1.184  0.00  0.00     0.210 HD
ENDBRANCH  18  19
BRANCH  18  21
HETATM   21  C   UNK N   1      33.839  21.474  -4.145  0.00  0.00     0.141 C 
BRANCH  21  22
HETATM   22  C   UNK N   1      34.401  20.193  -4.695  0.00  0.00     0.141 C 
HETATM   23  O   UNK N   1      34.695  19.265  -3.958  0.00  0.00    -0.650 OA
BRANCH  22  24
HETATM   24  O   UNK N   1      34.586  20.071  -6.022  0.00  0.00    -0.776 OA
HETATM   25  H   UNK N   1      34.577  20.824  -6.579  0.00  0.00     0.167 HD
ENDBRANCH  22  24
ENDBRANCH  21  22
ENDBRANCH  18  21
ENDBRANCH  17  18
ENDBRANCH  14  17
ENDBRANCH  13  14
ENDBRANCH  12  13
ENDBRANCH   2  12
BRANCH   3  26
HETATM   26  O   UNK N   1      27.637  24.749  -5.953  0.00  0.00    -0.315 OA
BRANCH  26  27
HETATM   27  C   UNK N   1      26.700  25.545  -5.361  0.00  0.00     0.263 C 
HETATM   28  O   UNK N   1      26.441  25.405  -4.168  0.00  0.00    -0.265 OA
BRANCH  27  29
HETATM   29  C   UNK N   1      25.992  26.639  -6.111  0.00  0.00     0.081 C 
HETATM   30  C   UNK N   1      25.127  27.514  -5.217  0.00  0.00     0.020 C 
BRANCH  29  31
HETATM   31  C   UNK N   1      26.991  27.480  -6.891  0.00  0.00     0.010 C 
HETATM   32  C   UNK N   1      27.412  28.692  -6.080  0.00  0.00     0.006 C 
ENDBRANCH  29  31
ENDBRANCH  27  29
ENDBRANCH  26  27
ENDBRANCH   3  26
BRANCH   7  33
HETATM   33  O   UNK N   1      24.158  21.873  -7.397  0.00  0.00    -0.392 OA
HETATM   34  H   UNK N   1      23.520  21.516  -8.034  0.00  0.00     0.210 HD
ENDBRANCH   7  33
TORSDOF 15
ENDMDL
MODEL 2
REMARK VINA RESULT:      -6.7     12.020     14.350
REMARK  15 active torsions:
REMARK  status: ('A' for Active; 'I' for Inactive)
REMARK    1  A    between atoms: C_10  and  O_1 
REMARK    2  A    between atoms: O_1  and  C_23 
REMARK    3  A    between atoms: C_15  and  O_2 
REMARK    4  A    between atoms: C_21  and  O_3 
REMARK    5  A    between atoms: C_24  and  O_5 
REMARK    6  A    between atoms: O_6  and  C_30 
REMARK    7  A    between atoms: C_9  and  C_12 
REMARK    8  A    between atoms: C_12  and  C_17 
REMARK    9  A    between atoms: C_17  and  C_21 
REMARK   10  A    between atoms: C_21  and  C_22 
REMARK   11  A    between atoms: C_22  and  C_24 
REMARK   12  A    between atoms: C_23  and  C_25 
REMARK   13  A    between atoms: C_24  and  C_26 
REMARK   14  A    between atoms: C_25  and  C_27 
REMARK   15  A    between atoms: C_26  and  C_30 
ROOT
HETATM    1  C   UNK N   1      23.127  19.016   4.328  0.00  0.00     0.053 C 
HETATM    2  C   UNK N   1      24.022  17.819   3.930  0.00  0.00     0.004 C 
HETATM    3  C   UNK N   1      21.601  18.729   4.508  0.00  0.00     0.143 C 
HETATM    4  C   UNK N   1      25.527  18.240   3.757  0.00  0.00     0.009 C 
HETATM    5  C   UNK N   1      23.345  20.084   3.243  0.00  0.00    -0.053 C 
HETATM    6  C   UNK N   1      20.829  18.810   3.199  0.00  0.00     0.069 C 
HETATM    7  C   UNK N   1      20.904  20.264   2.780  0.00  0.00     0.144 C 
HETATM    8  C   UNK N   1      25.717  19.559   3.050  0.00  0.00    -0.022 C 
HETATM    9  C   UNK N   1      22.335  20.632   2.542  0.00  0.00     0.012 C 
HETATM   10  C   UNK N   1      24.709  20.400   2.802  0.00  0.00     0.004 C 
HETATM   11  C   UNK N   1      26.326  18.348   5.046  0.00  0.00     0.014 C 
ENDROOT
BRANCH   2  12
HETATM   12  C   UNK N   1      23.844  16.568   4.812  0.00  0.00     0.009 C 
BRANCH  12  13
HETATM   13  C   UNK N   1      23.834  15.273   4.008  0.00  0.00     0.032 C 
BRANCH  13  14
HETATM   14  C   UNK N   1      22.427  14.791   3.750  0.00  0.00     0.120 C 
BRANCH  14  15
HETATM   15  O   UNK N   1      22.439  13.397   3.737  0.00  0.00    -0.395 OA
HETATM   16  H   UNK N   1      21.798  12.707   3.501  0.00  0.00     0.210 HD
ENDBRANCH  14  15
BRANCH  14  17
HETATM   17  C   UNK N   1      21.971  15.311   2.397  0.00  0.00     0.064 C 
BRANCH  17  18
HETATM   18  C   UNK N   1      20.455  15.428   2.313  0.00  0.00     0.130 C 
BRANCH  18  19
HETATM   19  O   UNK N   1      19.855  14.449   3.110  0.00  0.00    -0.395 OA
HETATM   20  H   UNK N   1      19.132  14.510   3.754  0.00  0.00     0.210 HD
ENDBRANCH  18  19
BRANCH  18  21
HETATM   21  C   UNK N   1      20.033  15.238   0.861  0.00  0.00     0.141 C 
BRANCH  21  22
HETATM   22  C   UNK N   1      19.558  16.496   0.190  0.00  0.00     0.141 C 
HETATM   23  O   UNK N   1      20.339  17.383  -0.117  0.00  0.00    -0.650 OA
BRANCH  22  24
HETATM   24  O   UNK N   1      18.246  16.647  -0.073  0.00  0.00    -0.776 OA
HETATM   25  H   UNK N   1      17.842  17.490  -0.027  0.00  0.00     0.167 HD
ENDBRANCH  22  24
ENDBRANCH  21  22
ENDBRANCH  18  21
ENDBRANCH  17  18
ENDBRANCH  14  17
ENDBRANCH  13  14
ENDBRANCH  12  13
ENDBRANCH   2  12
BRANCH   3  26
HETATM   26  O   UNK N   1      21.249  17.606   5.239  0.00  0.00    -0.315 OA
BRANCH  26  27
HETATM   27  C   UNK N   1      21.010  17.684   6.581  0.00  0.00     0.263 C 
HETATM   28  O   UNK N   1      20.931  18.784   7.126  0.00  0.00    -0.265 OA
BRANCH  27  29
HETATM   29  C   UNK N   1      20.788  16.462   7.426  0.00  0.00     0.081 C 
HETATM   30  C   UNK N   1      19.985  16.744   8.686  0.00  0.00     0.020 C 
BRANCH  29  31
HETATM   31  C   UNK N   1      20.139  15.359   6.604  0.00  0.00     0.010 C 
HETATM   32  C   UNK N   1      20.790  14.022   6.902  0.00  0.00     0.006 C 
ENDBRANCH  29  31
ENDBRANCH  27  29
ENDBRANCH  26  27
ENDBRANCH   3  26
BRANCH   7  33
HETATM   33  O   UNK N   1      20.167  20.459   1.614  0.00  0.00    -0.392 OA
HETATM   34  H   UNK N   1      20.069  21.270   1.091  0.00  0.00     0.210 HD
ENDBRANCH   7  33
TORSDOF 15
ENDMDL
MODEL 3
REMARK VINA RESULT:      -6.7     11.760     15.120
REMARK  15 active torsions:
REMARK  status: ('A' for Active; 'I' for Inactive)
REMARK    1  A    between atoms: C_10  and  O_1 
REMARK    2  A    between atoms: O_1  and  C_23 
REMARK    3  A    between atoms: C_15  and  O_2 
REMARK    4  A    between atoms: C_21  and  O_3 
REMARK    5  A    between atoms: C_24  and  O_5 
REMARK    6  A    between atoms: O_6  and  C_30 
REMARK    7  A    between atoms: C_9  and  C_12 
REMARK    8  A    between atoms: C_12  and  C_17 
REMARK    9  A    between atoms: C_17  and  C_21 
REMARK   10  A    between atoms: C_21  and  C_22 
REMARK   11  A    between atoms: C_22  and  C_24 
REMARK   12  A    between atoms: C_23  and  C_25 
REMARK   13  A    between atoms: C_24  and  C_26 
REMARK   14  A    between atoms: C_25  and  C_27 
REMARK   15  A    between atoms: C_26  and  C_30 
ROOT
HETATM    1  C   UNK N   1      29.275  17.118   6.816  0.00  0.00     0.053 C 
HETATM    2  C   UNK N   1      30.505  17.537   7.655  0.00  0.00     0.004 C 
HETATM    3  C   UNK N   1      29.518  16.843   5.295  0.00  0.00     0.143 C 
HETATM    4  C   UNK N   1      30.128  17.808   9.157  0.00  0.00     0.009 C 
HETATM    5  C   UNK N   1      28.239  18.240   6.995  0.00  0.00    -0.053 C 
HETATM    6  C   UNK N   1      29.447  18.106   4.450  0.00  0.00     0.069 C 
HETATM    7  C   UNK N   1      28.005  18.564   4.537  0.00  0.00     0.144 C 
HETATM    8  C   UNK N   1      28.831  18.558   9.338  0.00  0.00    -0.022 C 
HETATM    9  C   UNK N   1      27.681  18.895   5.961  0.00  0.00     0.012 C 
HETATM   10  C   UNK N   1      27.970  18.767   8.339  0.00  0.00     0.004 C 
HETATM   11  C   UNK N   1      30.011  16.571  10.033  0.00  0.00     0.014 C 
ENDROOT
BRANCH   2  12
HETATM   12  C   UNK N   1      31.730  16.616   7.497  0.00  0.00     0.009 C 
BRANCH  12  13
HETATM   13  C   UNK N   1      33.043  17.313   7.836  0.00  0.00     0.032 C 
BRANCH  13  14
HETATM   14  C   UNK N   1      33.661  16.749   9.091  0.00  0.00     0.120 C 
BRANCH  14  15
HETATM   15  O   UNK N   1      34.752  17.547   9.437  0.00  0.00    -0.395 OA
HETATM   16  H   UNK N   1      34.953  18.495   9.385  0.00  0.00     0.210 HD
ENDBRANCH  14  15
BRANCH  14  17
HETATM   17  C   UNK N   1      34.133  15.331   8.812  0.00  0.00     0.064 C 
BRANCH  17  18
HETATM   18  C   UNK N   1      34.085  14.459  10.059  0.00  0.00     0.130 C 
BRANCH  18  19
HETATM   19  O   UNK N   1      33.493  15.162  11.113  0.00  0.00    -0.395 OA
HETATM   20  H   UNK N   1      33.886  15.597  11.886  0.00  0.00     0.210 HD
ENDBRANCH  18  19
BRANCH  18  21
HETATM   21  C   UNK N   1      35.510  14.071  10.436  0.00  0.00     0.141 C 
BRANCH  21  22
HETATM   22  C   UNK N   1      36.154  14.994  11.432  0.00  0.00     0.141 C 
HETATM   23  O   UNK N   1      36.170  14.727  12.623  0.00  0.00    -0.650 OA
BRANCH  22  24
HETATM   24  O   UNK N   1      36.721  16.136  11.001  0.00  0.00    -0.776 OA
HETATM   25  H   UNK N   1      36.194  16.858  10.724  0.00  0.00     0.167 HD
ENDBRANCH  22  24
ENDBRANCH  21  22
ENDBRANCH  18  21
ENDBRANCH  17  18
ENDBRANCH  14  17
ENDBRANCH  13  14
ENDBRANCH  12  13
ENDBRANCH   2  12
BRANCH   3  26
HETATM   26  O   UNK N   1      30.614  16.065   4.959  0.00  0.00    -0.315 OA
BRANCH  26  27
HETATM   27  C   UNK N   1      31.034  15.961   3.664  0.00  0.00     0.263 C 
HETATM   28  O   UNK N   1      30.286  15.484   2.813  0.00  0.00    -0.265 OA
BRANCH  27  29
HETATM   29  C   UNK N   1      32.380  16.459   3.218  0.00  0.00     0.081 C 
HETATM   30  C   UNK N   1      32.911  17.598   4.074  0.00  0.00     0.020 C 
BRANCH  29  31
HETATM   31  C   UNK N   1      33.378  15.312   3.162  0.00  0.00     0.010 C 
HETATM   32  C   UNK N   1      34.088  15.161   4.494  0.00  0.00     0.006 C 
ENDBRANCH  29  31
ENDBRANCH  27  29
ENDBRANCH  26  27
ENDBRANCH   3  26
BRANCH   7  33
HETATM   33  O   UNK N   1      27.817  19.690   3.738  0.00  0.00    -0.392 OA
HETATM   34  H   UNK N   1      28.441  20.410   3.555  0.00  0.00     0.210 HD
ENDBRANCH   7  33
TORSDOF 15
ENDMDL
MODEL 4
REMARK VINA RESULT:      -6.6      2.641      5.095
REMARK  15 active torsions:
REMARK  status: ('A' for Active; 'I' for Inactive)
REMARK    1  A    between atoms: C_10  and  O_1 
REMARK    2  A    between atoms: O_1  and  C_23 
REMARK    3  A    between atoms: C_15  and  O_2 
REMARK    4  A    between atoms: C_21  and  O_3 
REMARK    5  A    between atoms: C_24  and  O_5 
REMARK    6  A    between atoms: O_6  and  C_30 
REMARK    7  A    between atoms: C_9  and  C_12 
REMARK    8  A    between atoms: C_12  and  C_17 
REMARK    9  A    between atoms: C_17  and  C_21 
REMARK   10  A    between atoms: C_21  and  C_22 
REMARK   11  A    between atoms: C_22  and  C_24 
REMARK   12  A    between atoms: C_23  and  C_25 
REMARK   13  A    between atoms: C_24  and  C_26 
REMARK   14  A    between atoms: C_25  and  C_27 
REMARK   15  A    between atoms: C_26  and  C_30 
ROOT
HETATM    1  C   UNK N   1      27.716  26.641  -4.932  0.00  0.00     0.053 C 
HETATM    2  C   UNK N   1      27.546  25.327  -4.135  0.00  0.00     0.004 C 
HETATM    3  C   UNK N   1      28.568  27.769  -4.264  0.00  0.00     0.143 C 
HETATM    4  C   UNK N   1      26.651  24.285  -4.901  0.00  0.00     0.009 C 
HETATM    5  C   UNK N   1      26.292  27.148  -5.218  0.00  0.00    -0.053 C 
HETATM    6  C   UNK N   1      27.752  28.646  -3.326  0.00  0.00     0.069 C 
HETATM    7  C   UNK N   1      26.770  29.378  -4.218  0.00  0.00     0.144 C 
HETATM    8  C   UNK N   1      25.444  24.890  -5.573  0.00  0.00    -0.022 C 
HETATM    9  C   UNK N   1      25.871  28.381  -4.881  0.00  0.00     0.012 C 
HETATM   10  C   UNK N   1      25.274  26.209  -5.706  0.00  0.00     0.004 C 
HETATM   11  C   UNK N   1      27.362  23.483  -5.980  0.00  0.00     0.014 C 
ENDROOT
BRANCH   2  12
HETATM   12  C   UNK N   1      28.864  24.722  -3.613  0.00  0.00     0.009 C 
BRANCH  12  13
HETATM   13  C   UNK N   1      28.643  23.564  -2.647  0.00  0.00     0.032 C 
BRANCH  13  14
HETATM   14  C   UNK N   1      29.763  22.556  -2.726  0.00  0.00     0.120 C 
BRANCH  14  15
HETATM   15  O   UNK N   1      30.648  22.805  -1.677  0.00  0.00    -0.395 OA
HETATM   16  H   UNK N   1      31.614  22.813  -1.581  0.00  0.00     0.210 HD
ENDBRANCH  14  15
BRANCH  14  17
HETATM   17  C   UNK N   1      30.484  22.725  -4.053  0.00  0.00     0.064 C 
BRANCH  17  18
HETATM   18  C   UNK N   1      31.239  21.465  -4.455  0.00  0.00     0.130 C 
BRANCH  18  19
HETATM   19  O   UNK N   1      30.853  20.395  -3.643  0.00  0.00    -0.395 OA
HETATM   20  H   UNK N   1      31.058  19.449  -3.699  0.00  0.00     0.210 HD
ENDBRANCH  18  19
BRANCH  18  21
HETATM   21  C   UNK N   1      32.733  21.722  -4.291  0.00  0.00     0.141 C 
BRANCH  21  22
HETATM   22  C   UNK N   1      33.389  20.878  -3.236  0.00  0.00     0.141 C 
HETATM   23  O   UNK N   1      34.195  20.009  -3.532  0.00  0.00    -0.650 OA
BRANCH  22  24
HETATM   24  O   UNK N   1      33.080  21.082  -1.942  0.00  0.00    -0.776 OA
HETATM   25  H   UNK N   1      33.142  21.936  -1.563  0.00  0.00     0.167 HD
ENDBRANCH  22  24
ENDBRANCH  21  22
ENDBRANCH  18  21
ENDBRANCH  17  18
ENDBRANCH  14  17
ENDBRANCH  13  14
ENDBRANCH  12  13
ENDBRANCH   2  12
BRANCH   3  26
HETATM   26  O   UNK N   1      29.775  27.397  -3.693  0.00  0.00    -0.315 OA
BRANCH  26  27
HETATM   27  C   UNK N   1      30.963  27.789  -4.238  0.00  0.00     0.263 C 
HETATM   28  O   UNK N   1      31.774  28.413  -3.557  0.00  0.00    -0.265 OA
BRANCH  27  29
HETATM   29  C   UNK N   1      31.349  27.442  -5.649  0.00  0.00     0.081 C 
HETATM   30  C   UNK N   1      32.560  28.215  -6.146  0.00  0.00     0.020 C 
BRANCH  29  31
HETATM   31  C   UNK N   1      31.569  25.942  -5.785  0.00  0.00     0.010 C 
HETATM   32  C   UNK N   1      32.741  25.499  -4.930  0.00  0.00     0.006 C 
ENDBRANCH  29  31
ENDBRANCH  27  29
ENDBRANCH  26  27
ENDBRANCH   3  26
BRANCH   7  33
HETATM   33  O   UNK N   1      26.010  30.264  -3.457  0.00  0.00    -0.392 OA
HETATM   34  H   UNK N   1      26.297  31.076  -3.012  0.00  0.00     0.210 HD
ENDBRANCH   7  33
TORSDOF 15
ENDMDL
MODEL 5
REMARK VINA RESULT:      -6.6     11.668     14.098
REMARK  15 active torsions:
REMARK  status: ('A' for Active; 'I' for Inactive)
REMARK    1  A    between atoms: C_10  and  O_1 
REMARK    2  A    between atoms: O_1  and  C_23 
REMARK    3  A    between atoms: C_15  and  O_2 
REMARK    4  A    between atoms: C_21  and  O_3 
REMARK    5  A    between atoms: C_24  and  O_5 
REMARK    6  A    between atoms: O_6  and  C_30 
REMARK    7  A    between atoms: C_9  and  C_12 
REMARK    8  A    between atoms: C_12  and  C_17 
REMARK    9  A    between atoms: C_17  and  C_21 
REMARK   10  A    between atoms: C_21  and  C_22 
REMARK   11  A    between atoms: C_22  and  C_24 
REMARK   12  A    between atoms: C_23  and  C_25 
REMARK   13  A    between atoms: C_24  and  C_26 
REMARK   14  A    between atoms: C_25  and  C_27 
REMARK   15  A    between atoms: C_26  and  C_30 
ROOT
HETATM    1  C   UNK N   1      23.605  14.001   2.412  0.00  0.00     0.053 C 
HETATM    2  C   UNK N   1      22.580  14.439   1.340  0.00  0.00     0.004 C 
HETATM    3  C   UNK N   1      24.213  15.126   3.311  0.00  0.00     0.143 C 
HETATM    4  C   UNK N   1      22.061  13.224   0.488  0.00  0.00     0.009 C 
HETATM    5  C   UNK N   1      24.721  13.264   1.652  0.00  0.00    -0.053 C 
HETATM    6  C   UNK N   1      25.423  15.796   2.677  0.00  0.00     0.069 C 
HETATM    7  C   UNK N   1      26.491  14.722   2.623  0.00  0.00     0.144 C 
HETATM    8  C   UNK N   1      23.139  12.239   0.106  0.00  0.00    -0.022 C 
HETATM    9  C   UNK N   1      26.019  13.605   1.745  0.00  0.00     0.012 C 
HETATM   10  C   UNK N   1      24.366  12.268   0.633  0.00  0.00     0.004 C 
HETATM   11  C   UNK N   1      20.961  12.397   1.133  0.00  0.00     0.014 C 
ENDROOT
BRANCH   2  12
HETATM   12  C   UNK N   1      21.442  15.332   1.872  0.00  0.00     0.009 C 
BRANCH  12  13
HETATM   13  C   UNK N   1      20.443  15.726   0.791  0.00  0.00     0.032 C 
BRANCH  13  14
HETATM   14  C   UNK N   1      19.931  17.131   0.996  0.00  0.00     0.120 C 
BRANCH  14  15
HETATM   15  O   UNK N   1      20.290  17.892  -0.117  0.00  0.00    -0.395 OA
HETATM   16  H   UNK N   1      20.247  18.834  -0.347  0.00  0.00     0.210 HD
ENDBRANCH  14  15
BRANCH  14  17
HETATM   17  C   UNK N   1      20.578  17.713   2.242  0.00  0.00     0.064 C 
BRANCH  17  18
HETATM   18  C   UNK N   1      19.642  18.662   2.979  0.00  0.00     0.130 C 
BRANCH  18  19
HETATM   19  O   UNK N   1      18.451  18.813   2.262  0.00  0.00    -0.395 OA
HETATM   20  H   UNK N   1      17.752  19.482   2.327  0.00  0.00     0.210 HD
ENDBRANCH  18  19
BRANCH  18  21
HETATM   21  C   UNK N   1      20.333  20.013   3.118  0.00  0.00     0.141 C 
BRANCH  21  22
HETATM   22  C   UNK N   1      20.912  20.542   1.836  0.00  0.00     0.141 C 
HETATM   23  O   UNK N   1      22.109  20.753   1.723  0.00  0.00    -0.650 OA
BRANCH  22  24
HETATM   24  O   UNK N   1      20.094  20.791   0.797  0.00  0.00    -0.776 OA
HETATM   25  H   UNK N   1      20.423  20.804  -0.080  0.00  0.00     0.167 HD
ENDBRANCH  22  24
ENDBRANCH  21  22
ENDBRANCH  18  21
ENDBRANCH  17  18
ENDBRANCH  14  17
ENDBRANCH  13  14
ENDBRANCH  12  13
ENDBRANCH   2  12
BRANCH   3  26
HETATM   26  O   UNK N   1      23.335  16.057   3.843  0.00  0.00    -0.315 OA
BRANCH  26  27
HETATM   27  C   UNK N   1      23.391  16.406   5.161  0.00  0.00     0.263 C 
HETATM   28  O   UNK N   1      24.456  16.774   5.653  0.00  0.00    -0.265 OA
BRANCH  27  29
HETATM   29  C   UNK N   1      22.173  16.404   6.041  0.00  0.00     0.081 C 
HETATM   30  C   UNK N   1      21.475  17.754   6.100  0.00  0.00     0.020 C 
BRANCH  29  31
HETATM   31  C   UNK N   1      21.206  15.312   5.607  0.00  0.00     0.010 C 
HETATM   32  C   UNK N   1      19.816  15.884   5.405  0.00  0.00     0.006 C 
ENDBRANCH  29  31
ENDBRANCH  27  29
ENDBRANCH  26  27
ENDBRANCH   3  26
BRANCH   7  33
HETATM   33  O   UNK N   1      27.673  15.255   2.112  0.00  0.00    -0.392 OA
HETATM   34  H   UNK N   1      28.557  14.857   2.098  0.00  0.00     0.210 HD
ENDBRANCH   7  33
TORSDOF 15
ENDMDL
MODEL 6
REMARK VINA RESULT:      -6.6     12.083     14.148
REMARK  15 active torsions:
REMARK  status: ('A' for Active; 'I' for Inactive)
REMARK    1  A    between atoms: C_10  and  O_1 
REMARK    2  A    between atoms: O_1  and  C_23 
REMARK    3  A    between atoms: C_15  and  O_2 
REMARK    4  A    between atoms: C_21  and  O_3 
REMARK    5  A    between atoms: C_24  and  O_5 
REMARK    6  A    between atoms: O_6  and  C_30 
REMARK    7  A    between atoms: C_9  and  C_12 
REMARK    8  A    between atoms: C_12  and  C_17 
REMARK    9  A    between atoms: C_17  and  C_21 
REMARK   10  A    between atoms: C_21  and  C_22 
REMARK   11  A    between atoms: C_22  and  C_24 
REMARK   12  A    between atoms: C_23  and  C_25 
REMARK   13  A    between atoms: C_24  and  C_26 
REMARK   14  A    between atoms: C_25  and  C_27 
REMARK   15  A    between atoms: C_26  and  C_30 
ROOT
HETATM    1  C   UNK N   1      22.575  18.784   4.465  0.00  0.00     0.053 C 
HETATM    2  C   UNK N   1      23.984  18.280   4.073  0.00  0.00     0.004 C 
HETATM    3  C   UNK N   1      21.514  17.697   4.835  0.00  0.00     0.143 C 
HETATM    4  C   UNK N   1      24.950  19.464   3.701  0.00  0.00     0.009 C 
HETATM    5  C   UNK N   1      22.083  19.627   3.277  0.00  0.00    -0.053 C 
HETATM    6  C   UNK N   1      20.788  17.144   3.618  0.00  0.00     0.069 C 
HETATM    7  C   UNK N   1      19.981  18.306   3.072  0.00  0.00     0.144 C 
HETATM    8  C   UNK N   1      24.304  20.543   2.868  0.00  0.00    -0.022 C 
HETATM    9  C   UNK N   1      20.916  19.395   2.647  0.00  0.00     0.012 C 
HETATM   10  C   UNK N   1      22.986  20.609   2.663  0.00  0.00     0.004 C 
HETATM   11  C   UNK N   1      25.587  20.182   4.880  0.00  0.00     0.014 C 
ENDROOT
BRANCH   2  12
HETATM   12  C   UNK N   1      24.607  17.285   5.071  0.00  0.00     0.009 C 
BRANCH  12  13
HETATM   13  C   UNK N   1      25.873  16.625   4.538  0.00  0.00     0.032 C 
BRANCH  13  14
HETATM   14  C   UNK N   1      26.963  16.596   5.581  0.00  0.00     0.120 C 
BRANCH  14  15
HETATM   15  O   UNK N   1      26.364  16.618   6.840  0.00  0.00    -0.395 OA
HETATM   16  H   UNK N   1      26.648  16.390   7.740  0.00  0.00     0.210 HD
ENDBRANCH  14  15
BRANCH  14  17
HETATM   17  C   UNK N   1      27.840  17.826   5.410  0.00  0.00     0.064 C 
BRANCH  17  18
HETATM   18  C   UNK N   1      28.913  17.914   6.487  0.00  0.00     0.130 C 
BRANCH  18  19
HETATM   19  O   UNK N   1      29.048  16.681   7.131  0.00  0.00    -0.395 OA
HETATM   20  H   UNK N   1      29.414  15.839   6.819  0.00  0.00     0.210 HD
ENDBRANCH  18  19
BRANCH  18  21
HETATM   21  C   UNK N   1      28.499  18.978   7.497  0.00  0.00     0.141 C 
BRANCH  21  22
HETATM   22  C   UNK N   1      28.484  18.500   8.922  0.00  0.00     0.141 C 
HETATM   23  O   UNK N   1      29.457  18.641   9.646  0.00  0.00    -0.650 OA
BRANCH  22  24
HETATM   24  O   UNK N   1      27.379  17.904   9.405  0.00  0.00    -0.776 OA
HETATM   25  H   UNK N   1      26.586  18.388   9.526  0.00  0.00     0.167 HD
ENDBRANCH  22  24
ENDBRANCH  21  22
ENDBRANCH  18  21
ENDBRANCH  17  18
ENDBRANCH  14  17
ENDBRANCH  13  14
ENDBRANCH  12  13
ENDBRANCH   2  12
BRANCH   3  26
HETATM   26  O   UNK N   1      21.915  16.685   5.693  0.00  0.00    -0.315 OA
BRANCH  26  27
HETATM   27  C   UNK N   1      21.316  16.511   6.907  0.00  0.00     0.263 C 
HETATM   28  O   UNK N   1      20.904  17.486   7.533  0.00  0.00    -0.265 OA
BRANCH  27  29
HETATM   29  C   UNK N   1      21.092  15.149   7.500  0.00  0.00     0.081 C 
HETATM   30  C   UNK N   1      22.269  14.207   7.300  0.00  0.00     0.020 C 
BRANCH  29  31
HETATM   31  C   UNK N   1      20.734  15.264   8.974  0.00  0.00     0.010 C 
HETATM   32  C   UNK N   1      21.205  14.037   9.732  0.00  0.00     0.006 C 
ENDBRANCH  29  31
ENDBRANCH  27  29
ENDBRANCH  26  27
ENDBRANCH   3  26
BRANCH   7  33
HETATM   33  O   UNK N   1      19.223  17.884   1.982  0.00  0.00    -0.392 OA
HETATM   34  H   UNK N   1      18.258  17.877   1.886  0.00  0.00     0.210 HD
ENDBRANCH   7  33
TORSDOF 15
ENDMDL
MODEL 7
REMARK VINA RESULT:      -6.5     10.400     14.190
REMARK  15 active torsions:
REMARK  status: ('A' for Active; 'I' for Inactive)
REMARK    1  A    between atoms: C_10  and  O_1 
REMARK    2  A    between atoms: O_1  and  C_23 
REMARK    3  A    between atoms: C_15  and  O_2 
REMARK    4  A    between atoms: C_21  and  O_3 
REMARK    5  A    between atoms: C_24  and  O_5 
REMARK    6  A    between atoms: O_6  and  C_30 
REMARK    7  A    between atoms: C_9  and  C_12 
REMARK    8  A    between atoms: C_12  and  C_17 
REMARK    9  A    between atoms: C_17  and  C_21 
REMARK   10  A    between atoms: C_21  and  C_22 
REMARK   11  A    between atoms: C_22  and  C_24 
REMARK   12  A    between atoms: C_23  and  C_25 
REMARK   13  A    between atoms: C_24  and  C_26 
REMARK   14  A    between atoms: C_25  and  C_27 
REMARK   15  A    between atoms: C_26  and  C_30 
ROOT
HETATM    1  C   UNK N   1      27.474  18.363   5.570  0.00  0.00     0.053 C 
HETATM    2  C   UNK N   1      26.061  18.762   5.083  0.00  0.00     0.004 C 
HETATM    3  C   UNK N   1      27.665  16.887   6.052  0.00  0.00     0.143 C 
HETATM    4  C   UNK N   1      25.992  20.272   4.650  0.00  0.00     0.009 C 
HETATM    5  C   UNK N   1      27.821  19.342   6.704  0.00  0.00    -0.053 C 
HETATM    6  C   UNK N   1      27.294  16.693   7.514  0.00  0.00     0.069 C 
HETATM    7  C   UNK N   1      28.317  17.492   8.296  0.00  0.00     0.144 C 
HETATM    8  C   UNK N   1      26.737  21.208   5.569  0.00  0.00    -0.022 C 
HETATM    9  C   UNK N   1      28.189  18.939   7.934  0.00  0.00     0.012 C 
HETATM   10  C   UNK N   1      27.568  20.778   6.523  0.00  0.00     0.004 C 
HETATM   11  C   UNK N   1      26.508  20.574   3.252  0.00  0.00     0.014 C 
ENDROOT
BRANCH   2  12
HETATM   12  C   UNK N   1      25.453  17.807   4.038  0.00  0.00     0.009 C 
BRANCH  12  13
HETATM   13  C   UNK N   1      24.092  17.262   4.453  0.00  0.00     0.032 C 
BRANCH  13  14
HETATM   14  C   UNK N   1      23.054  18.356   4.519  0.00  0.00     0.120 C 
BRANCH  14  15
HETATM   15  O   UNK N   1      22.310  18.182   5.686  0.00  0.00    -0.395 OA
HETATM   16  H   UNK N   1      22.070  17.422   6.240  0.00  0.00     0.210 HD
ENDBRANCH  14  15
BRANCH  14  17
HETATM   17  C   UNK N   1      22.141  18.240   3.309  0.00  0.00     0.064 C 
BRANCH  17  18
HETATM   18  C   UNK N   1      20.749  18.790   3.591  0.00  0.00     0.130 C 
BRANCH  18  19
HETATM   19  O   UNK N   1      19.894  17.753   3.978  0.00  0.00    -0.395 OA
HETATM   20  H   UNK N   1      19.833  16.834   3.674  0.00  0.00     0.210 HD
ENDBRANCH  18  19
BRANCH  18  21
HETATM   21  C   UNK N   1      20.221  19.446   2.322  0.00  0.00     0.141 C 
BRANCH  21  22
HETATM   22  C   UNK N   1      21.068  20.580   1.817  0.00  0.00     0.141 C 
HETATM   23  O   UNK N   1      21.404  20.645   0.645  0.00  0.00    -0.650 OA
BRANCH  22  24
HETATM   24  O   UNK N   1      21.465  21.538   2.675  0.00  0.00    -0.776 OA
HETATM   25  H   UNK N   1      20.894  21.842   3.352  0.00  0.00     0.167 HD
ENDBRANCH  22  24
ENDBRANCH  21  22
ENDBRANCH  18  21
ENDBRANCH  17  18
ENDBRANCH  14  17
ENDBRANCH  13  14
ENDBRANCH  12  13
ENDBRANCH   2  12
BRANCH   3  26
HETATM   26  O   UNK N   1      27.135  15.886   5.254  0.00  0.00    -0.315 OA
BRANCH  26  27
HETATM   27  C   UNK N   1      27.910  15.223   4.347  0.00  0.00     0.263 C 
HETATM   28  O   UNK N   1      28.337  14.101   4.611  0.00  0.00    -0.265 OA
BRANCH  27  29
HETATM   29  C   UNK N   1      28.229  15.798   2.996  0.00  0.00     0.081 C 
HETATM   30  C   UNK N   1      29.710  16.085   2.802  0.00  0.00     0.020 C 
BRANCH  29  31
HETATM   31  C   UNK N   1      27.704  14.888   1.895  0.00  0.00     0.010 C 
HETATM   32  C   UNK N   1      26.188  14.918   1.860  0.00  0.00     0.006 C 
ENDBRANCH  29  31
ENDBRANCH  27  29
ENDBRANCH  26  27
ENDBRANCH   3  26
BRANCH   7  33
HETATM   33  O   UNK N   1      28.102  17.328   9.662  0.00  0.00    -0.392 OA
HETATM   34  H   UNK N   1      28.737  17.427  10.389  0.00  0.00     0.210 HD
ENDBRANCH   7  33
TORSDOF 15
ENDMDL
MODEL 8
REMARK VINA RESULT:      -6.3      2.593      6.187
REMARK  15 active torsions:
REMARK  status: ('A' for Active; 'I' for Inactive)
REMARK    1  A    between atoms: C_10  and  O_1 
REMARK    2  A    between atoms: O_1  and  C_23 
REMARK    3  A    between atoms: C_15  and  O_2 
REMARK    4  A    between atoms: C_21  and  O_3 
REMARK    5  A    between atoms: C_24  and  O_5 
REMARK    6  A    between atoms: O_6  and  C_30 
REMARK    7  A    between atoms: C_9  and  C_12 
REMARK    8  A    between atoms: C_12  and  C_17 
REMARK    9  A    between atoms: C_17  and  C_21 
REMARK   10  A    between atoms: C_21  and  C_22 
REMARK   11  A    between atoms: C_22  and  C_24 
REMARK   12  A    between atoms: C_23  and  C_25 
REMARK   13  A    between atoms: C_24  and  C_26 
REMARK   14  A    between atoms: C_25  and  C_27 
REMARK   15  A    between atoms: C_26  and  C_30 
ROOT
HETATM    1  C   UNK N   1      29.106  22.981  -5.418  0.00  0.00     0.053 C 
HETATM    2  C   UNK N   1      29.922  23.670  -6.536  0.00  0.00     0.004 C 
HETATM    3  C   UNK N   1      28.530  23.902  -4.293  0.00  0.00     0.143 C 
HETATM    4  C   UNK N   1      30.465  22.637  -7.590  0.00  0.00     0.009 C 
HETATM    5  C   UNK N   1      30.036  21.917  -4.811  0.00  0.00    -0.053 C 
HETATM    6  C   UNK N   1      29.527  24.155  -3.171  0.00  0.00     0.069 C 
HETATM    7  C   UNK N   1      29.729  22.808  -2.506  0.00  0.00     0.144 C 
HETATM    8  C   UNK N   1      30.993  21.361  -6.983  0.00  0.00    -0.022 C 
HETATM    9  C   UNK N   1      30.320  21.854  -3.497  0.00  0.00     0.012 C 
HETATM   10  C   UNK N   1      30.806  21.038  -5.700  0.00  0.00     0.004 C 
HETATM   11  C   UNK N   1      29.467  22.203  -8.652  0.00  0.00     0.014 C 
ENDROOT
BRANCH   2  12
HETATM   12  C   UNK N   1      29.223  24.881  -7.183  0.00  0.00     0.009 C 
BRANCH  12  13
HETATM   13  C   UNK N   1      30.193  25.996  -7.555  0.00  0.00     0.032 C 
BRANCH  13  14
HETATM   14  C   UNK N   1      29.937  27.245  -6.748  0.00  0.00     0.120 C 
BRANCH  14  15
HETATM   15  O   UNK N   1      30.102  26.934  -5.398  0.00  0.00    -0.395 OA
HETATM   16  H   UNK N   1      30.810  27.060  -4.746  0.00  0.00     0.210 HD
ENDBRANCH  14  15
BRANCH  14  17
HETATM   17  C   UNK N   1      28.510  27.706  -6.996  0.00  0.00     0.064 C 
BRANCH  17  18
HETATM   18  C   UNK N   1      28.238  29.072  -6.381  0.00  0.00     0.130 C 
BRANCH  18  19
HETATM   19  O   UNK N   1      29.387  29.548  -5.742  0.00  0.00    -0.395 OA
HETATM   20  H   UNK N   1      30.297  29.645  -6.063  0.00  0.00     0.210 HD
ENDBRANCH  18  19
BRANCH  18  21
HETATM   21  C   UNK N   1      27.108  28.931  -5.367  0.00  0.00     0.141 C 
BRANCH  21  22
HETATM   22  C   UNK N   1      27.561  28.950  -3.935  0.00  0.00     0.141 C 
HETATM   23  O   UNK N   1      27.254  29.864  -3.186  0.00  0.00    -0.650 OA
BRANCH  22  24
HETATM   24  O   UNK N   1      28.322  27.941  -3.472  0.00  0.00    -0.776 OA
HETATM   25  H   UNK N   1      28.652  27.952  -2.595  0.00  0.00     0.167 HD
ENDBRANCH  22  24
ENDBRANCH  21  22
ENDBRANCH  18  21
ENDBRANCH  17  18
ENDBRANCH  14  17
ENDBRANCH  13  14
ENDBRANCH  12  13
ENDBRANCH   2  12
BRANCH   3  26
HETATM   26  O   UNK N   1      27.903  25.072  -4.690  0.00  0.00    -0.315 OA
BRANCH  26  27
HETATM   27  C   UNK N   1      26.571  25.268  -4.469  0.00  0.00     0.263 C 
HETATM   28  O   UNK N   1      26.192  25.760  -3.408  0.00  0.00    -0.265 OA
BRANCH  27  29
HETATM   29  C   UNK N   1      25.532  24.947  -5.506  0.00  0.00     0.081 C 
HETATM   30  C   UNK N   1      25.611  25.843  -6.731  0.00  0.00     0.020 C 
BRANCH  29  31
HETATM   31  C   UNK N   1      25.613  23.480  -5.901  0.00  0.00     0.010 C 
HETATM   32  C   UNK N   1      25.842  23.345  -7.395  0.00  0.00     0.006 C 
ENDBRANCH  29  31
ENDBRANCH  27  29
ENDBRANCH  26  27
ENDBRANCH   3  26
BRANCH   7  33
HETATM   33  O   UNK N   1      30.585  22.943  -1.415  0.00  0.00    -0.392 OA
HETATM   34  H   UNK N   1      30.374  22.869  -0.471  0.00  0.00     0.210 HD
ENDBRANCH   7  33
TORSDOF 15
ENDMDL
MODEL 9
REMARK VINA RESULT:      -6.3     10.480     14.375
REMARK  15 active torsions:
REMARK  status: ('A' for Active; 'I' for Inactive)
REMARK    1  A    between atoms: C_10  and  O_1 
REMARK    2  A    between atoms: O_1  and  C_23 
REMARK    3  A    between atoms: C_15  and  O_2 
REMARK    4  A    between atoms: C_21  and  O_3 
REMARK    5  A    between atoms: C_24  and  O_5 
REMARK    6  A    between atoms: O_6  and  C_30 
REMARK    7  A    between atoms: C_9  and  C_12 
REMARK    8  A    between atoms: C_12  and  C_17 
REMARK    9  A    between atoms: C_17  and  C_21 
REMARK   10  A    between atoms: C_21  and  C_22 
REMARK   11  A    between atoms: C_22  and  C_24 
REMARK   12  A    between atoms: C_23  and  C_25 
REMARK   13  A    between atoms: C_24  and  C_26 
REMARK   14  A    between atoms: C_25  and  C_27 
REMARK   15  A    between atoms: C_26  and  C_30 
ROOT
HETATM    1  C   UNK N   1      27.956  18.799   5.654  0.00  0.00     0.053 C 
HETATM    2  C   UNK N   1      26.619  18.637   4.893  0.00  0.00     0.004 C 
HETATM    3  C   UNK N   1      28.619  17.494   6.205  0.00  0.00     0.143 C 
HETATM    4  C   UNK N   1      26.044  20.019   4.412  0.00  0.00     0.009 C 
HETATM    5  C   UNK N   1      27.671  19.779   6.804  0.00  0.00    -0.053 C 
HETATM    6  C   UNK N   1      28.087  17.098   7.575  0.00  0.00     0.069 C 
HETATM    7  C   UNK N   1      28.548  18.195   8.514  0.00  0.00     0.144 C 
HETATM    8  C   UNK N   1      26.174  21.125   5.429  0.00  0.00    -0.022 C 
HETATM    9  C   UNK N   1      27.930  19.493   8.093  0.00  0.00     0.012 C 
HETATM   10  C   UNK N   1      26.913  21.008   6.536  0.00  0.00     0.004 C 
HETATM   11  C   UNK N   1      26.651  20.567   3.130  0.00  0.00     0.014 C 
ENDROOT
BRANCH   2  12
HETATM   12  C   UNK N   1      26.643  17.573   3.779  0.00  0.00     0.009 C 
BRANCH  12  13
HETATM   13  C   UNK N   1      25.521  16.550   3.912  0.00  0.00     0.032 C 
BRANCH  13  14
HETATM   14  C   UNK N   1      24.929  16.554   5.301  0.00  0.00     0.120 C 
BRANCH  14  15
HETATM   15  O   UNK N   1      25.254  15.346   5.918  0.00  0.00    -0.395 OA
HETATM   16  H   UNK N   1      26.050  14.983   6.339  0.00  0.00     0.210 HD
ENDBRANCH  14  15
BRANCH  14  17
HETATM   17  C   UNK N   1      23.419  16.681   5.190  0.00  0.00     0.064 C 
BRANCH  17  18
HETATM   18  C   UNK N   1      22.958  18.126   5.326  0.00  0.00     0.130 C 
BRANCH  18  19
HETATM   19  O   UNK N   1      21.922  18.213   6.260  0.00  0.00    -0.395 OA
HETATM   20  H   UNK N   1      21.875  17.922   7.185  0.00  0.00     0.210 HD
ENDBRANCH  18  19
BRANCH  18  21
HETATM   21  C   UNK N   1      22.465  18.608   3.966  0.00  0.00     0.141 C 
BRANCH  21  22
HETATM   22  C   UNK N   1      21.013  18.997   3.941  0.00  0.00     0.141 C 
HETATM   23  O   UNK N   1      20.661  20.140   4.186  0.00  0.00    -0.650 OA
BRANCH  22  24
HETATM   24  O   UNK N   1      20.087  18.066   3.648  0.00  0.00    -0.776 OA
HETATM   25  H   UNK N   1      20.310  17.157   3.626  0.00  0.00     0.167 HD
ENDBRANCH  22  24
ENDBRANCH  21  22
ENDBRANCH  18  21
ENDBRANCH  17  18
ENDBRANCH  14  17
ENDBRANCH  13  14
ENDBRANCH  12  13
ENDBRANCH   2  12
BRANCH   3  26
HETATM   26  O   UNK N   1      28.685  16.407   5.349  0.00  0.00    -0.315 OA
BRANCH  26  27
HETATM   27  C   UNK N   1      29.865  16.031   4.777  0.00  0.00     0.263 C 
HETATM   28  O   UNK N   1      30.039  14.860   4.443  0.00  0.00    -0.265 OA
BRANCH  27  29
HETATM   29  C   UNK N   1      30.963  17.015   4.489  0.00  0.00     0.081 C 
HETATM   30  C   UNK N   1      32.102  16.953   5.494  0.00  0.00     0.020 C 
BRANCH  29  31
HETATM   31  C   UNK N   1      31.481  16.832   3.070  0.00  0.00     0.010 C 
HETATM   32  C   UNK N   1      32.964  16.510   3.084  0.00  0.00     0.006 C 
ENDBRANCH  29  31
ENDBRANCH  27  29
ENDBRANCH  26  27
ENDBRANCH   3  26
BRANCH   7  33
HETATM   33  O   UNK N   1      28.163  17.893   9.818  0.00  0.00    -0.392 OA
HETATM   34  H   UNK N   1      28.063  18.495  10.572  0.00  0.00     0.210 HD
ENDBRANCH   7  33
TORSDOF 15
ENDMDL
