MODEL 1
REMARK VINA RESULT:      -6.0      0.000      0.000
REMARK  11 active torsions:
REMARK  status: ('A' for Active; 'I' for Inactive)
REMARK    1  A    between atoms: O_4  and  C_14 
REMARK    2  A    between atoms: O_5  and  N_6 
REMARK    3  A    between atoms: O_5  and  C_21 
REMARK    4  A    between atoms: N_8  and  C_23 
REMARK    5  A    between atoms: C_9  and  C_10 
REMARK    6  A    between atoms: C_9  and  C_11 
REMARK    7  A    between atoms: C_10  and  C_12 
REMARK    8  A    between atoms: C_11  and  C_14 
REMARK    9  A    between atoms: C_12  and  C_13 
REMARK   10  A    between atoms: C_17  and  C_20 
REMARK   11  A    between atoms: C_21  and  C_23 
ROOT
HETATM    1  N   UNK N   1      25.221  24.012  -6.929  0.00  0.00    -0.270 N 
ATOM      2  HN  UNK N   1      24.504  24.420  -7.528  1.00  0.00     0.194 HD
HETATM    3  C   UNK N   1      26.067  24.806  -6.362  0.00  0.00     0.042 C 
ENDROOT
BRANCH   3   4
HETATM    4  C   UNK N   1      25.933  26.276  -6.620  0.00  0.00     0.060 C 
BRANCH   4   5
HETATM    5  C   UNK N   1      24.906  26.935  -5.726  0.00  0.00     0.008 C 
BRANCH   5   6
HETATM    6  C   UNK N   1      25.610  28.042  -4.968  0.00  0.00     0.027 C 
BRANCH   6   7
HETATM    7  C   UNK N   1      25.689  27.720  -3.490  0.00  0.00     0.167 C 
BRANCH   7   8
HETATM    8  O   UNK N   1      26.436  28.700  -2.839  0.00  0.00    -0.396 OA
HETATM    9  C   UNK N   1      26.441  29.783  -3.717  0.00  0.00     0.201 C 
ENDBRANCH   7   8
ENDBRANCH   6   7
ENDBRANCH   5   6
ENDBRANCH   4   5
ENDBRANCH   3   4
BRANCH   3  10
HETATM   10  C   UNK N   1      27.136  24.357  -5.414  0.00  0.00    -0.012 A 
HETATM   11  C   UNK N   1      28.382  23.871  -5.847  0.00  0.00     0.014 A 
HETATM   12  C   UNK N   1      29.313  23.383  -4.919  0.00  0.00     0.017 A 
HETATM   13  C   UNK N   1      29.019  23.398  -3.545  0.00  0.00     0.048 A 
HETATM   14  C   UNK N   1      27.795  23.911  -3.113  0.00  0.00     0.017 A 
HETATM   15  C   UNK N   1      26.859  24.369  -4.038  0.00  0.00     0.014 A 
BRANCH  13  16
HETATM   16  C   UNK N   1      29.982  22.851  -2.531  0.00  0.00     0.417 C 
HETATM   17  F   UNK N   1      29.434  22.857  -1.261  0.00  0.00    -0.166 F 
HETATM   18  F   UNK N   1      31.129  23.627  -2.522  0.00  0.00    -0.166 F 
HETATM   19  F   UNK N   1      30.322  21.553  -2.867  0.00  0.00    -0.166 F 
ENDBRANCH  13  16
ENDBRANCH   3  10
BRANCH   1  20
HETATM   20  O   UNK N   1      25.236  22.700  -6.774  0.00  0.00    -0.279 OA
BRANCH  20  21
HETATM   21  C   UNK N   1      24.735  21.847  -7.744  0.00  0.00     0.220 C 
BRANCH  21  22
HETATM   22  C   UNK N   1      25.819  21.034  -8.453  0.00  0.00     0.139 C 
BRANCH  22  23
HETATM   23  N   UNK N   1      25.441  20.803  -9.834  0.00  0.00    -0.428 N 
HETATM   24  H   UNK N   1      24.459  20.776 -10.110  0.00  0.00     0.150 HD
HETATM   25  H   UNK N   1      26.166  20.666 -10.539  0.00  0.00     0.150 HD
ENDBRANCH  22  23
ENDBRANCH  21  22
ENDBRANCH  20  21
ENDBRANCH   1  20
TORSDOF 11
ENDMDL
MODEL 2
REMARK VINA RESULT:      -5.8      2.629      5.430
REMARK  11 active torsions:
REMARK  status: ('A' for Active; 'I' for Inactive)
REMARK    1  A    between atoms: O_4  and  C_14 
REMARK    2  A    between atoms: O_5  and  N_6 
REMARK    3  A    between atoms: O_5  and  C_21 
REMARK    4  A    between atoms: N_8  and  C_23 
REMARK    5  A    between atoms: C_9  and  C_10 
REMARK    6  A    between atoms: C_9  and  C_11 
REMARK    7  A    between atoms: C_10  and  C_12 
REMARK    8  A    between atoms: C_11  and  C_14 
REMARK    9  A    between atoms: C_12  and  C_13 
REMARK   10  A    between atoms: C_17  and  C_20 
REMARK   11  A    between atoms: C_21  and  C_23 
ROOT
HETATM    1  N   UNK N   1      25.470  28.242  -4.064  0.00  0.00    -0.270 N 
ATOM      2  HN  UNK N   1      24.738  28.819  -4.477  1.00  0.00     0.194 HD
HETATM    3  C   UNK N   1      25.743  27.111  -4.623  0.00  0.00     0.042 C 
ENDROOT
BRANCH   3   4
HETATM    4  C   UNK N   1      24.965  26.725  -5.846  0.00  0.00     0.060 C 
BRANCH   4   5
HETATM    5  C   UNK N   1      25.843  26.551  -7.066  0.00  0.00     0.008 C 
BRANCH   5   6
HETATM    6  C   UNK N   1      25.807  25.084  -7.442  0.00  0.00     0.027 C 
BRANCH   6   7
HETATM    7  C   UNK N   1      27.204  24.496  -7.459  0.00  0.00     0.167 C 
BRANCH   7   8
HETATM    8  O   UNK N   1      27.260  23.404  -6.595  0.00  0.00    -0.396 OA
HETATM    9  C   UNK N   1      25.963  22.891  -6.589  0.00  0.00     0.201 C 
ENDBRANCH   7   8
ENDBRANCH   6   7
ENDBRANCH   5   6
ENDBRANCH   4   5
ENDBRANCH   3   4
BRANCH   3  10
HETATM   10  C   UNK N   1      26.828  26.186  -4.165  0.00  0.00    -0.012 A 
HETATM   11  C   UNK N   1      28.191  26.436  -4.403  0.00  0.00     0.014 A 
HETATM   12  C   UNK N   1      29.159  25.492  -4.028  0.00  0.00     0.017 A 
HETATM   13  C   UNK N   1      28.778  24.301  -3.389  0.00  0.00     0.048 A 
HETATM   14  C   UNK N   1      27.427  24.068  -3.124  0.00  0.00     0.017 A 
HETATM   15  C   UNK N   1      26.464  24.993  -3.522  0.00  0.00     0.014 A 
BRANCH  13  16
HETATM   16  C   UNK N   1      29.789  23.258  -3.007  0.00  0.00     0.417 C 
HETATM   17  F   UNK N   1      29.698  22.146  -3.825  0.00  0.00    -0.166 F 
HETATM   18  F   UNK N   1      29.569  22.864  -1.698  0.00  0.00    -0.166 F 
HETATM   19  F   UNK N   1      31.063  23.787  -3.108  0.00  0.00    -0.166 F 
ENDBRANCH  13  16
ENDBRANCH   3  10
BRANCH   1  20
HETATM   20  O   UNK N   1      26.090  28.691  -2.987  0.00  0.00    -0.279 OA
BRANCH  20  21
HETATM   21  C   UNK N   1      26.991  29.741  -3.052  0.00  0.00     0.220 C 
BRANCH  21  22
HETATM   22  C   UNK N   1      28.277  29.485  -2.265  0.00  0.00     0.139 C 
BRANCH  22  23
HETATM   23  N   UNK N   1      28.209  30.148  -0.976  0.00  0.00    -0.428 N 
HETATM   24  H   UNK N   1      27.438  29.967  -0.335  0.00  0.00     0.150 HD
HETATM   25  H   UNK N   1      28.943  30.805  -0.709  0.00  0.00     0.150 HD
ENDBRANCH  22  23
ENDBRANCH  21  22
ENDBRANCH  20  21
ENDBRANCH   1  20
TORSDOF 11
ENDMDL
MODEL 3
REMARK VINA RESULT:      -5.6     11.418     13.906
REMARK  11 active torsions:
REMARK  status: ('A' for Active; 'I' for Inactive)
REMARK    1  A    between atoms: O_4  and  C_14 
REMARK    2  A    between atoms: O_5  and  N_6 
REMARK    3  A    between atoms: O_5  and  C_21 
REMARK    4  A    between atoms: N_8  and  C_23 
REMARK    5  A    between atoms: C_9  and  C_10 
REMARK    6  A    between atoms: C_9  and  C_11 
REMARK    7  A    between atoms: C_10  and  C_12 
REMARK    8  A    between atoms: C_11  and  C_14 
REMARK    9  A    between atoms: C_12  and  C_13 
REMARK   10  A    between atoms: C_17  and  C_20 
REMARK   11  A    between atoms: C_21  and  C_23 
ROOT
HETATM    1  N   UNK N   1      30.138  16.679   6.199  0.00  0.00    -0.270 N 
ATOM      2  HN  UNK N   1      30.987  16.152   6.404  1.00  0.00     0.194 HD
HETATM    3  C   UNK N   1      29.987  17.154   5.008  0.00  0.00     0.042 C 
ENDROOT
BRANCH   3   4
HETATM    4  C   UNK N   1      31.071  16.894   4.005  0.00  0.00     0.060 C 
BRANCH   4   5
HETATM    5  C   UNK N   1      32.340  17.660   4.305  0.00  0.00     0.008 C 
BRANCH   5   6
HETATM    6  C   UNK N   1      33.435  16.643   4.553  0.00  0.00     0.027 C 
BRANCH   6   7
HETATM    7  C   UNK N   1      33.897  16.687   5.995  0.00  0.00     0.167 C 
BRANCH   7   8
HETATM    8  O   UNK N   1      34.238  17.996   6.334  0.00  0.00    -0.396 OA
HETATM    9  C   UNK N   1      34.123  18.042   7.723  0.00  0.00     0.201 C 
ENDBRANCH   7   8
ENDBRANCH   6   7
ENDBRANCH   5   6
ENDBRANCH   4   5
ENDBRANCH   3   4
BRANCH   3  10
HETATM   10  C   UNK N   1      28.771  17.895   4.547  0.00  0.00    -0.012 A 
HETATM   11  C   UNK N   1      28.593  19.273   4.762  0.00  0.00     0.014 A 
HETATM   12  C   UNK N   1      27.395  19.900   4.386  0.00  0.00     0.017 A 
HETATM   13  C   UNK N   1      26.373  19.161   3.768  0.00  0.00     0.048 A 
HETATM   14  C   UNK N   1      26.563  17.799   3.524  0.00  0.00     0.017 A 
HETATM   15  C   UNK N   1      27.741  17.172   3.924  0.00  0.00     0.014 A 
BRANCH  13  16
HETATM   16  C   UNK N   1      25.067  19.797   3.385  0.00  0.00     0.417 C 
HETATM   17  F   UNK N   1      25.113  20.307   2.100  0.00  0.00    -0.166 F 
HETATM   18  F   UNK N   1      24.787  20.831   4.262  0.00  0.00    -0.166 F 
HETATM   19  F   UNK N   1      24.054  18.858   3.460  0.00  0.00    -0.166 F 
ENDBRANCH  13  16
ENDBRANCH   3  10
BRANCH   1  20
HETATM   20  O   UNK N   1      29.251  16.837   7.165  0.00  0.00    -0.279 OA
BRANCH  20  21
HETATM   21  C   UNK N   1      29.559  17.518   8.331  0.00  0.00     0.220 C 
BRANCH  21  22
HETATM   22  C   UNK N   1      28.387  17.605   9.310  0.00  0.00     0.139 C 
BRANCH  22  23
HETATM   23  N   UNK N   1      27.522  18.713   8.949  0.00  0.00    -0.428 N 
HETATM   24  H   UNK N   1      26.920  18.661   8.129  0.00  0.00     0.150 HD
HETATM   25  H   UNK N   1      27.518  19.556   9.525  0.00  0.00     0.150 HD
ENDBRANCH  22  23
ENDBRANCH  21  22
ENDBRANCH  20  21
ENDBRANCH   1  20
TORSDOF 11
ENDMDL
MODEL 4
REMARK VINA RESULT:      -5.6     16.141     17.640
REMARK  11 active torsions:
REMARK  status: ('A' for Active; 'I' for Inactive)
REMARK    1  A    between atoms: O_4  and  C_14 
REMARK    2  A    between atoms: O_5  and  N_6 
REMARK    3  A    between atoms: O_5  and  C_21 
REMARK    4  A    between atoms: N_8  and  C_23 
REMARK    5  A    between atoms: C_9  and  C_10 
REMARK    6  A    between atoms: C_9  and  C_11 
REMARK    7  A    between atoms: C_10  and  C_12 
REMARK    8  A    between atoms: C_11  and  C_14 
REMARK    9  A    between atoms: C_12  and  C_13 
REMARK   10  A    between atoms: C_17  and  C_20 
REMARK   11  A    between atoms: C_21  and  C_23 
ROOT
HETATM    1  N   UNK N   1      20.030  16.893   7.393  0.00  0.00    -0.270 N 
ATOM      2  HN  UNK N   1      19.538  17.414   6.667  1.00  0.00     0.194 HD
HETATM    3  C   UNK N   1      20.279  15.644   7.184  0.00  0.00     0.042 C 
ENDROOT
BRANCH   3   4
HETATM    4  C   UNK N   1      19.830  15.045   5.885  0.00  0.00     0.060 C 
BRANCH   4   5
HETATM    5  C   UNK N   1      19.138  16.047   4.988  0.00  0.00     0.008 C 
BRANCH   5   6
HETATM    6  C   UNK N   1      20.084  16.364   3.848  0.00  0.00     0.027 C 
BRANCH   6   7
HETATM    7  C   UNK N   1      19.941  17.808   3.413  0.00  0.00     0.167 C 
BRANCH   7   8
HETATM    8  O   UNK N   1      19.539  17.854   2.079  0.00  0.00    -0.396 OA
HETATM    9  C   UNK N   1      20.263  16.838   1.456  0.00  0.00     0.201 C 
ENDBRANCH   7   8
ENDBRANCH   6   7
ENDBRANCH   5   6
ENDBRANCH   4   5
ENDBRANCH   3   4
BRANCH   3  10
HETATM   10  C   UNK N   1      21.041  14.769   8.130  0.00  0.00    -0.012 A 
HETATM   11  C   UNK N   1      22.345  14.315   7.865  0.00  0.00     0.014 A 
HETATM   12  C   UNK N   1      22.979  13.426   8.746  0.00  0.00     0.017 A 
HETATM   13  C   UNK N   1      22.326  13.002   9.915  0.00  0.00     0.048 A 
HETATM   14  C   UNK N   1      21.044  13.479  10.195  0.00  0.00     0.017 A 
HETATM   15  C   UNK N   1      20.404  14.338   9.305  0.00  0.00     0.014 A 
BRANCH  13  16
HETATM   16  C   UNK N   1      22.966  12.025  10.860  0.00  0.00     0.417 C 
HETATM   17  F   UNK N   1      22.873  10.730  10.383  0.00  0.00    -0.166 F 
HETATM   18  F   UNK N   1      22.331  12.091  12.088  0.00  0.00    -0.166 F 
HETATM   19  F   UNK N   1      24.301  12.347  11.028  0.00  0.00    -0.166 F 
ENDBRANCH  13  16
ENDBRANCH   3  10
BRANCH   1  20
HETATM   20  O   UNK N   1      20.380  17.532   8.495  0.00  0.00    -0.279 OA
BRANCH  20  21
HETATM   21  C   UNK N   1      19.464  18.258   9.237  0.00  0.00     0.220 C 
BRANCH  21  22
HETATM   22  C   UNK N   1      18.129  17.535   9.426  0.00  0.00     0.139 C 
BRANCH  22  23
HETATM   23  N   UNK N   1      17.250  18.330  10.263  0.00  0.00    -0.428 N 
HETATM   24  H   UNK N   1      16.469  17.900  10.758  0.00  0.00     0.150 HD
HETATM   25  H   UNK N   1      17.414  19.333  10.356  0.00  0.00     0.150 HD
ENDBRANCH  22  23
ENDBRANCH  21  22
ENDBRANCH  20  21
ENDBRANCH   1  20
TORSDOF 11
ENDMDL
MODEL 5
REMARK VINA RESULT:      -5.4     12.766     15.554
REMARK  11 active torsions:
REMARK  status: ('A' for Active; 'I' for Inactive)
REMARK    1  A    between atoms: O_4  and  C_14 
REMARK    2  A    between atoms: O_5  and  N_6 
REMARK    3  A    between atoms: O_5  and  C_21 
REMARK    4  A    between atoms: N_8  and  C_23 
REMARK    5  A    between atoms: C_9  and  C_10 
REMARK    6  A    between atoms: C_9  and  C_11 
REMARK    7  A    between atoms: C_10  and  C_12 
REMARK    8  A    between atoms: C_11  and  C_14 
REMARK    9  A    between atoms: C_12  and  C_13 
REMARK   10  A    between atoms: C_17  and  C_20 
REMARK   11  A    between atoms: C_21  and  C_23 
ROOT
HETATM    1  N   UNK N   1      31.792  16.243   9.542  0.00  0.00    -0.270 N 
ATOM      2  HN  UNK N   1      31.511  16.496  10.489  1.00  0.00     0.194 HD
HETATM    3  C   UNK N   1      31.395  16.990   8.567  0.00  0.00     0.042 C 
ENDROOT
BRANCH   3   4
HETATM    4  C   UNK N   1      30.550  18.184   8.896  0.00  0.00     0.060 C 
BRANCH   4   5
HETATM    5  C   UNK N   1      29.133  17.812   9.272  0.00  0.00     0.008 C 
BRANCH   5   6
HETATM    6  C   UNK N   1      28.204  18.704   8.475  0.00  0.00     0.027 C 
BRANCH   6   7
HETATM    7  C   UNK N   1      28.235  18.339   7.004  0.00  0.00     0.167 C 
BRANCH   7   8
HETATM    8  O   UNK N   1      27.896  19.455   6.240  0.00  0.00    -0.396 OA
HETATM    9  C   UNK N   1      28.204  19.092   4.930  0.00  0.00     0.201 C 
ENDBRANCH   7   8
ENDBRANCH   6   7
ENDBRANCH   5   6
ENDBRANCH   4   5
ENDBRANCH   3   4
BRANCH   3  10
HETATM   10  C   UNK N   1      31.774  16.776   7.135  0.00  0.00    -0.012 A 
HETATM   11  C   UNK N   1      32.864  17.427   6.531  0.00  0.00     0.014 A 
HETATM   12  C   UNK N   1      33.121  17.256   5.162  0.00  0.00     0.017 A 
HETATM   13  C   UNK N   1      32.307  16.413   4.388  0.00  0.00     0.048 A 
HETATM   14  C   UNK N   1      31.245  15.740   4.995  0.00  0.00     0.017 A 
HETATM   15  C   UNK N   1      30.973  15.934   6.348  0.00  0.00     0.014 A 
BRANCH  13  16
HETATM   16  C   UNK N   1      32.538  16.237   2.914  0.00  0.00     0.417 C 
HETATM   17  F   UNK N   1      33.888  16.184   2.619  0.00  0.00    -0.166 F 
HETATM   18  F   UNK N   1      31.976  17.303   2.232  0.00  0.00    -0.166 F 
HETATM   19  F   UNK N   1      31.938  15.066   2.487  0.00  0.00    -0.166 F 
ENDBRANCH  13  16
ENDBRANCH   3  10
BRANCH   1  20
HETATM   20  O   UNK N   1      32.544  15.169   9.377  0.00  0.00    -0.279 OA
BRANCH  20  21
HETATM   21  C   UNK N   1      33.729  14.997  10.075  0.00  0.00     0.220 C 
BRANCH  21  22
HETATM   22  C   UNK N   1      34.832  15.963   9.642  0.00  0.00     0.139 C 
BRANCH  22  23
HETATM   23  N   UNK N   1      35.016  16.989  10.651  0.00  0.00    -0.428 N 
HETATM   24  H   UNK N   1      34.455  17.840  10.640  0.00  0.00     0.150 HD
HETATM   25  H   UNK N   1      35.716  16.856  11.382  0.00  0.00     0.150 HD
ENDBRANCH  22  23
ENDBRANCH  21  22
ENDBRANCH  20  21
ENDBRANCH   1  20
TORSDOF 11
ENDMDL
MODEL 6
REMARK VINA RESULT:      -5.4     12.608     14.922
REMARK  11 active torsions:
REMARK  status: ('A' for Active; 'I' for Inactive)
REMARK    1  A    between atoms: O_4  and  C_14 
REMARK    2  A    between atoms: O_5  and  N_6 
REMARK    3  A    between atoms: O_5  and  C_21 
REMARK    4  A    between atoms: N_8  and  C_23 
REMARK    5  A    between atoms: C_9  and  C_10 
REMARK    6  A    between atoms: C_9  and  C_11 
REMARK    7  A    between atoms: C_10  and  C_12 
REMARK    8  A    between atoms: C_11  and  C_14 
REMARK    9  A    between atoms: C_12  and  C_13 
REMARK   10  A    between atoms: C_17  and  C_20 
REMARK   11  A    between atoms: C_21  and  C_23 
ROOT
HETATM    1  N   UNK N   1      31.591  16.278   6.604  0.00  0.00    -0.270 N 
ATOM      2  HN  UNK N   1      32.091  15.393   6.533  1.00  0.00     0.194 HD
HETATM    3  C   UNK N   1      30.362  16.319   6.209  0.00  0.00     0.042 C 
ENDROOT
BRANCH   3   4
HETATM    4  C   UNK N   1      29.754  15.057   5.675  0.00  0.00     0.060 C 
BRANCH   4   5
HETATM    5  C   UNK N   1      30.736  14.226   4.880  0.00  0.00     0.008 C 
BRANCH   5   6
HETATM    6  C   UNK N   1      30.906  14.894   3.531  0.00  0.00     0.027 C 
BRANCH   6   7
HETATM    7  C   UNK N   1      32.370  14.975   3.149  0.00  0.00     0.167 C 
BRANCH   7   8
HETATM    8  O   UNK N   1      32.946  16.095   3.747  0.00  0.00    -0.396 OA
HETATM    9  C   UNK N   1      32.308  17.182   3.151  0.00  0.00     0.201 C 
ENDBRANCH   7   8
ENDBRANCH   6   7
ENDBRANCH   5   6
ENDBRANCH   4   5
ENDBRANCH   3   4
BRANCH   3  10
HETATM   10  C   UNK N   1      29.488  17.530   6.306  0.00  0.00    -0.012 A 
HETATM   11  C   UNK N   1      29.032  18.043   7.532  0.00  0.00     0.014 A 
HETATM   12  C   UNK N   1      28.143  19.129   7.560  0.00  0.00     0.017 A 
HETATM   13  C   UNK N   1      27.721  19.729   6.361  0.00  0.00     0.048 A 
HETATM   14  C   UNK N   1      28.199  19.240   5.145  0.00  0.00     0.017 A 
HETATM   15  C   UNK N   1      29.059  18.144   5.118  0.00  0.00     0.014 A 
BRANCH  13  16
HETATM   16  C   UNK N   1      26.744  20.869   6.358  0.00  0.00     0.417 C 
HETATM   17  F   UNK N   1      27.370  22.067   6.063  0.00  0.00    -0.166 F 
HETATM   18  F   UNK N   1      26.156  20.974   7.607  0.00  0.00    -0.166 F 
HETATM   19  F   UNK N   1      25.757  20.634   5.417  0.00  0.00    -0.166 F 
ENDBRANCH  13  16
ENDBRANCH   3  10
BRANCH   1  20
HETATM   20  O   UNK N   1      32.232  17.323   7.098  0.00  0.00    -0.279 OA
BRANCH  20  21
HETATM   21  C   UNK N   1      32.641  17.367   8.420  0.00  0.00     0.220 C 
BRANCH  21  22
HETATM   22  C   UNK N   1      34.147  17.578   8.582  0.00  0.00     0.139 C 
BRANCH  22  23
HETATM   23  N   UNK N   1      34.562  17.188   9.916  0.00  0.00    -0.428 N 
HETATM   24  H   UNK N   1      35.527  16.920  10.106  0.00  0.00     0.150 HD
HETATM   25  H   UNK N   1      33.878  17.181  10.674  0.00  0.00     0.150 HD
ENDBRANCH  22  23
ENDBRANCH  21  22
ENDBRANCH  20  21
ENDBRANCH   1  20
TORSDOF 11
ENDMDL
MODEL 7
REMARK VINA RESULT:      -5.4     15.709     17.570
REMARK  11 active torsions:
REMARK  status: ('A' for Active; 'I' for Inactive)
REMARK    1  A    between atoms: O_4  and  C_14 
REMARK    2  A    between atoms: O_5  and  N_6 
REMARK    3  A    between atoms: O_5  and  C_21 
REMARK    4  A    between atoms: N_8  and  C_23 
REMARK    5  A    between atoms: C_9  and  C_10 
REMARK    6  A    between atoms: C_9  and  C_11 
REMARK    7  A    between atoms: C_10  and  C_12 
REMARK    8  A    between atoms: C_11  and  C_14 
REMARK    9  A    between atoms: C_12  and  C_13 
REMARK   10  A    between atoms: C_17  and  C_20 
REMARK   11  A    between atoms: C_21  and  C_23 
ROOT
HETATM    1  N   UNK N   1      19.435  16.355   9.042  0.00  0.00    -0.270 N 
ATOM      2  HN  UNK N   1      19.337  15.832   9.912  1.00  0.00     0.194 HD
HETATM    3  C   UNK N   1      20.114  15.821   8.082  0.00  0.00     0.042 C 
ENDROOT
BRANCH   3   4
HETATM    4  C   UNK N   1      20.709  14.464   8.313  0.00  0.00     0.060 C 
BRANCH   4   5
HETATM    5  C   UNK N   1      20.575  14.003   9.748  0.00  0.00     0.008 C 
BRANCH   5   6
HETATM    6  C   UNK N   1      21.370  12.721   9.887  0.00  0.00     0.027 C 
BRANCH   6   7
HETATM    7  C   UNK N   1      22.814  13.016  10.238  0.00  0.00     0.167 C 
BRANCH   7   8
HETATM    8  O   UNK N   1      23.200  12.230  11.322  0.00  0.00    -0.396 OA
HETATM    9  C   UNK N   1      24.577  12.069  11.170  0.00  0.00     0.201 C 
ENDBRANCH   7   8
ENDBRANCH   6   7
ENDBRANCH   5   6
ENDBRANCH   4   5
ENDBRANCH   3   4
BRANCH   3  10
HETATM   10  C   UNK N   1      20.294  16.443   6.733  0.00  0.00    -0.012 A 
HETATM   11  C   UNK N   1      21.206  17.485   6.491  0.00  0.00     0.014 A 
HETATM   12  C   UNK N   1      21.271  18.090   5.226  0.00  0.00     0.017 A 
HETATM   13  C   UNK N   1      20.444  17.641   4.183  0.00  0.00     0.048 A 
HETATM   14  C   UNK N   1      19.562  16.584   4.415  0.00  0.00     0.017 A 
HETATM   15  C   UNK N   1      19.477  16.004   5.679  0.00  0.00     0.014 A 
BRANCH  13  16
HETATM   16  C   UNK N   1      20.467  18.292   2.829  0.00  0.00     0.417 C 
HETATM   17  F   UNK N   1      21.579  19.100   2.679  0.00  0.00    -0.166 F 
HETATM   18  F   UNK N   1      19.331  19.068   2.674  0.00  0.00    -0.166 F 
HETATM   19  F   UNK N   1      20.483  17.318   1.847  0.00  0.00    -0.166 F 
ENDBRANCH  13  16
ENDBRANCH   3  10
BRANCH   1  20
HETATM   20  O   UNK N   1      18.860  17.541   8.955  0.00  0.00    -0.279 OA
BRANCH  20  21
HETATM   21  C   UNK N   1      17.671  17.823   9.608  0.00  0.00     0.220 C 
BRANCH  21  22
HETATM   22  C   UNK N   1      17.845  18.758  10.806  0.00  0.00     0.139 C 
BRANCH  22  23
HETATM   23  N   UNK N   1      18.962  19.655  10.576  0.00  0.00    -0.428 N 
HETATM   24  H   UNK N   1      18.846  20.501  10.019  0.00  0.00     0.150 HD
HETATM   25  H   UNK N   1      19.874  19.436  10.977  0.00  0.00     0.150 HD
ENDBRANCH  22  23
ENDBRANCH  21  22
ENDBRANCH  20  21
ENDBRANCH   1  20
TORSDOF 11
ENDMDL
MODEL 8
REMARK VINA RESULT:      -5.4     11.395     14.029
REMARK  11 active torsions:
REMARK  status: ('A' for Active; 'I' for Inactive)
REMARK    1  A    between atoms: O_4  and  C_14 
REMARK    2  A    between atoms: O_5  and  N_6 
REMARK    3  A    between atoms: O_5  and  C_21 
REMARK    4  A    between atoms: N_8  and  C_23 
REMARK    5  A    between atoms: C_9  and  C_10 
REMARK    6  A    between atoms: C_9  and  C_11 
REMARK    7  A    between atoms: C_10  and  C_12 
REMARK    8  A    between atoms: C_11  and  C_14 
REMARK    9  A    between atoms: C_12  and  C_13 
REMARK   10  A    between atoms: C_17  and  C_20 
REMARK   11  A    between atoms: C_21  and  C_23 
ROOT
HETATM    1  N   UNK N   1      27.226  18.611   6.775  0.00  0.00    -0.270 N 
ATOM      2  HN  UNK N   1      26.228  18.512   6.590  1.00  0.00     0.194 HD
HETATM    3  C   UNK N   1      27.908  17.544   7.030  0.00  0.00     0.042 C 
ENDROOT
BRANCH   3   4
HETATM    4  C   UNK N   1      27.184  16.231   7.031  0.00  0.00     0.060 C 
BRANCH   4   5
HETATM    5  C   UNK N   1      26.336  16.030   5.795  0.00  0.00     0.008 C 
BRANCH   5   6
HETATM    6  C   UNK N   1      27.238  15.473   4.713  0.00  0.00     0.027 C 
BRANCH   6   7
HETATM    7  C   UNK N   1      27.171  16.323   3.461  0.00  0.00     0.167 C 
BRANCH   7   8
HETATM    8  O   UNK N   1      28.400  16.947   3.255  0.00  0.00    -0.396 OA
HETATM    9  C   UNK N   1      29.239  15.932   2.797  0.00  0.00     0.201 C 
ENDBRANCH   7   8
ENDBRANCH   6   7
ENDBRANCH   5   6
ENDBRANCH   4   5
ENDBRANCH   3   4
BRANCH   3  10
HETATM   10  C   UNK N   1      29.386  17.528   7.264  0.00  0.00    -0.012 A 
HETATM   11  C   UNK N   1      29.967  17.904   8.488  0.00  0.00     0.014 A 
HETATM   12  C   UNK N   1      31.362  17.954   8.624  0.00  0.00     0.017 A 
HETATM   13  C   UNK N   1      32.192  17.602   7.547  0.00  0.00     0.048 A 
HETATM   14  C   UNK N   1      31.615  17.196   6.342  0.00  0.00     0.017 A 
HETATM   15  C   UNK N   1      30.229  17.176   6.199  0.00  0.00     0.014 A 
BRANCH  13  16
HETATM   16  C   UNK N   1      33.688  17.678   7.652  0.00  0.00     0.417 C 
HETATM   17  F   UNK N   1      34.094  18.879   8.206  0.00  0.00    -0.166 F 
HETATM   18  F   UNK N   1      34.244  17.563   6.389  0.00  0.00    -0.166 F 
HETATM   19  F   UNK N   1      34.151  16.640   8.441  0.00  0.00    -0.166 F 
ENDBRANCH  13  16
ENDBRANCH   3  10
BRANCH   1  20
HETATM   20  O   UNK N   1      27.753  19.822   6.741  0.00  0.00    -0.279 OA
BRANCH  20  21
HETATM   21  C   UNK N   1      27.281  20.796   5.876  0.00  0.00     0.220 C 
BRANCH  21  22
HETATM   22  C   UNK N   1      26.924  20.254   4.491  0.00  0.00     0.139 C 
BRANCH  22  23
HETATM   23  N   UNK N   1      28.125  19.818   3.804  0.00  0.00    -0.428 N 
HETATM   24  H   UNK N   1      28.067  19.260   2.953  0.00  0.00     0.150 HD
HETATM   25  H   UNK N   1      29.040  20.074   4.179  0.00  0.00     0.150 HD
ENDBRANCH  22  23
ENDBRANCH  21  22
ENDBRANCH  20  21
ENDBRANCH   1  20
TORSDOF 11
ENDMDL
MODEL 9
REMARK VINA RESULT:      -5.3      3.701      5.730
REMARK  11 active torsions:
REMARK  status: ('A' for Active; 'I' for Inactive)
REMARK    1  A    between atoms: O_4  and  C_14 
REMARK    2  A    between atoms: O_5  and  N_6 
REMARK    3  A    between atoms: O_5  and  C_21 
REMARK    4  A    between atoms: N_8  and  C_23 
REMARK    5  A    between atoms: C_9  and  C_10 
REMARK    6  A    between atoms: C_9  and  C_11 
REMARK    7  A    between atoms: C_10  and  C_12 
REMARK    8  A    between atoms: C_11  and  C_14 
REMARK    9  A    between atoms: C_12  and  C_13 
REMARK   10  A    between atoms: C_17  and  C_20 
REMARK   11  A    between atoms: C_21  and  C_23 
ROOT
HETATM    1  N   UNK N   1      28.390  21.928  -7.049  0.00  0.00    -0.270 N 
ATOM      2  HN  UNK N   1      29.010  21.121  -7.116  1.00  0.00     0.194 HD
HETATM    3  C   UNK N   1      28.568  22.756  -6.074  0.00  0.00     0.042 C 
ENDROOT
BRANCH   3   4
HETATM    4  C   UNK N   1      29.679  22.474  -5.108  0.00  0.00     0.060 C 
BRANCH   4   5
HETATM    5  C   UNK N   1      29.371  22.953  -3.707  0.00  0.00     0.008 C 
BRANCH   5   6
HETATM    6  C   UNK N   1      30.654  23.512  -3.127  0.00  0.00     0.027 C 
BRANCH   6   7
HETATM    7  C   UNK N   1      31.826  22.599  -3.428  0.00  0.00     0.167 C 
BRANCH   7   8
HETATM    8  O   UNK N   1      32.095  21.804  -2.315  0.00  0.00    -0.396 OA
HETATM    9  C   UNK N   1      33.206  21.046  -2.682  0.00  0.00     0.201 C 
ENDBRANCH   7   8
ENDBRANCH   6   7
ENDBRANCH   5   6
ENDBRANCH   4   5
ENDBRANCH   3   4
BRANCH   3  10
HETATM   10  C   UNK N   1      27.776  24.011  -5.882  0.00  0.00    -0.012 A 
HETATM   11  C   UNK N   1      28.255  25.278  -6.258  0.00  0.00     0.014 A 
HETATM   12  C   UNK N   1      27.507  26.431  -5.974  0.00  0.00     0.017 A 
HETATM   13  C   UNK N   1      26.261  26.327  -5.334  0.00  0.00     0.048 A 
HETATM   14  C   UNK N   1      25.771  25.066  -4.990  0.00  0.00     0.017 A 
HETATM   15  C   UNK N   1      26.527  23.924  -5.246  0.00  0.00     0.014 A 
BRANCH  13  16
HETATM   16  C   UNK N   1      25.453  27.545  -4.987  0.00  0.00     0.417 C 
HETATM   17  F   UNK N   1      26.112  28.706  -5.352  0.00  0.00    -0.166 F 
HETATM   18  F   UNK N   1      25.231  27.574  -3.621  0.00  0.00    -0.166 F 
HETATM   19  F   UNK N   1      24.234  27.496  -5.639  0.00  0.00    -0.166 F 
ENDBRANCH  13  16
ENDBRANCH   3  10
BRANCH   1  20
HETATM   20  O   UNK N   1      27.449  22.073  -7.965  0.00  0.00    -0.279 OA
BRANCH  20  21
HETATM   21  C   UNK N   1      26.326  21.263  -7.989  0.00  0.00     0.220 C 
BRANCH  21  22
HETATM   22  C   UNK N   1      25.013  22.047  -8.008  0.00  0.00     0.139 C 
BRANCH  22  23
HETATM   23  N   UNK N   1      24.092  21.494  -7.033  0.00  0.00    -0.428 N 
HETATM   24  H   UNK N   1      23.612  22.097  -6.366  0.00  0.00     0.150 HD
HETATM   25  H   UNK N   1      23.923  20.487  -7.016  0.00  0.00     0.150 HD
ENDBRANCH  22  23
ENDBRANCH  21  22
ENDBRANCH  20  21
ENDBRANCH   1  20
TORSDOF 11
ENDMDL
