MODEL 1
REMARK VINA RESULT:      -7.0      0.000      0.000
REMARK  11 active torsions:
REMARK  status: ('A' for Active; 'I' for Inactive)
REMARK    1  A    between atoms: O_1  and  C_18 
REMARK    2  A    between atoms: C_11  and  N_4 
REMARK    3  A    between atoms: N_4  and  C_13 
REMARK       I    between atoms: N_4  and  C_14 
REMARK    4  A    between atoms: C_11  and  C_12 
REMARK    5  A    between atoms: C_11  and  C_18 
REMARK    6  A    between atoms: C_13  and  C_19 
REMARK    7  A    between atoms: C_14  and  C_17 
REMARK    8  A    between atoms: C_17  and  C_20 
REMARK    9  A    between atoms: C_20  and  C_21 
REMARK   10  A    between atoms: C_24  and  C_28 
REMARK   11  A    between atoms: C_29  and  C_33 
ROOT
HETATM    1  C   UNK N   1      22.732  16.446   6.143  0.00  0.00    -0.040 A 
HETATM    2  C   UNK N   1      23.646  15.483   6.581  0.00  0.00     0.010 A 
HETATM    3  C   UNK N   1      23.146  17.478   5.306  0.00  0.00     0.010 A 
HETATM    4  C   UNK N   1      25.372  16.559   5.246  0.00  0.00    -0.025 A 
HETATM    5  C   UNK N   1      24.964  15.538   6.127  0.00  0.00     0.013 A 
HETATM    6  C   UNK N   1      24.460  17.547   4.879  0.00  0.00     0.013 A 
ENDROOT
BRANCH   1   7
HETATM    7  C   UNK N   1      21.316  16.446   6.591  0.00  0.00     0.165 C 
BRANCH   7   8
HETATM    8  N   UNK N   1      20.712  15.131   6.462  0.00  0.00    -0.333 N 
HETATM    9  C   UNK N   1      20.720  14.250   7.521  0.00  0.00     0.220 C 
HETATM   10  O   UNK N   1      20.201  13.149   7.403  0.00  0.00    -0.273 OA
BRANCH   8  11
HETATM   11  C   UNK N   1      19.957  14.803   5.247  0.00  0.00     0.188 C 
BRANCH  11  12
HETATM   12  C   UNK N   1      20.855  14.684   3.983  0.00  0.00     0.011 C 
HETATM   13  C   UNK N   1      20.084  14.403   2.704  0.00  0.00     0.012 C 
HETATM   14  C   UNK N   1      21.883  13.579   4.148  0.00  0.00     0.012 C 
ENDBRANCH  11  12
BRANCH  11  15
HETATM   15  C   UNK N   1      18.873  15.849   5.045  0.00  0.00     0.164 C 
HETATM   16  O   UNK N   1      17.858  15.832   5.725  0.00  0.00    -0.648 OA
BRANCH  15  17
HETATM   17  O   UNK N   1      19.013  16.794   4.098  0.00  0.00    -0.775 OA
HETATM   18  H   UNK N   1      19.082  16.629   3.178  0.00  0.00     0.167 HD
ENDBRANCH  15  17
ENDBRANCH  11  15
ENDBRANCH   8  11
BRANCH   9  19
HETATM   19  C   UNK N   1      21.331  14.634   8.852  0.00  0.00     0.103 C 
BRANCH  19  20
HETATM   20  C   UNK N   1      21.256  13.553   9.913  0.00  0.00     0.009 C 
BRANCH  20  21
HETATM   21  C   UNK N   1      22.652  13.049  10.219  0.00  0.00    -0.004 C 
HETATM   22  C   UNK N   1      22.591  12.077  11.375  0.00  0.00     0.005 C 
ENDBRANCH  20  21
ENDBRANCH  19  20
ENDBRANCH   9  19
ENDBRANCH   7   8
ENDBRANCH   1   7
BRANCH   4  23
HETATM   23  C   UNK N   1      26.716  16.597   4.637  0.00  0.00    -0.012 A 
HETATM   24  C   UNK N   1      27.840  17.214   5.259  0.00  0.00     0.021 A 
HETATM   25  C   UNK N   1      29.073  17.202   4.592  0.00  0.00     0.016 A 
HETATM   26  C   UNK N   1      29.213  16.573   3.352  0.00  0.00     0.001 A 
HETATM   27  C   UNK N   1      28.124  15.941   2.761  0.00  0.00     0.001 A 
HETATM   28  C   UNK N   1      26.887  15.955   3.398  0.00  0.00     0.013 A 
BRANCH  24  29
HETATM   29  C   UNK N   1      27.810  17.772   6.637  0.00  0.00     0.145 A 
HETATM   30  N   UNK N   1      27.416  19.016   6.969  0.00  0.00    -0.271 N 
HETATM   31  N   UNK N   1      27.501  19.085   8.283  0.00  0.00    -0.225 N 
ATOM     32  HN  UNK N   1      27.113  19.755   6.335  1.00  0.00     0.190 HD
HETATM   33  N   UNK N   1      27.918  17.918   8.755  0.00  0.00    -0.005 NA
HETATM   34  H   UNK N   1      27.290  19.877   8.828  0.00  0.00     0.205 HD
HETATM   35  N   UNK N   1      28.101  17.078   7.750  0.00  0.00    -0.266 N 
ATOM     36  HN  UNK N   1      28.401  16.104   7.808  1.00  0.00     0.186 HD
ENDBRANCH  24  29
ENDBRANCH   4  23
TORSDOF 11
ENDMDL
MODEL 2
REMARK VINA RESULT:      -7.0      1.642      2.434
REMARK  11 active torsions:
REMARK  status: ('A' for Active; 'I' for Inactive)
REMARK    1  A    between atoms: O_1  and  C_18 
REMARK    2  A    between atoms: C_11  and  N_4 
REMARK    3  A    between atoms: N_4  and  C_13 
REMARK       I    between atoms: N_4  and  C_14 
REMARK    4  A    between atoms: C_11  and  C_12 
REMARK    5  A    between atoms: C_11  and  C_18 
REMARK    6  A    between atoms: C_13  and  C_19 
REMARK    7  A    between atoms: C_14  and  C_17 
REMARK    8  A    between atoms: C_17  and  C_20 
REMARK    9  A    between atoms: C_20  and  C_21 
REMARK   10  A    between atoms: C_24  and  C_28 
REMARK   11  A    between atoms: C_29  and  C_33 
ROOT
HETATM    1  C   UNK N   1      22.578  17.793   4.734  0.00  0.00    -0.040 A 
HETATM    2  C   UNK N   1      23.193  16.741   5.419  0.00  0.00     0.010 A 
HETATM    3  C   UNK N   1      23.323  18.612   3.890  0.00  0.00     0.010 A 
HETATM    4  C   UNK N   1      25.293  17.294   4.320  0.00  0.00    -0.025 A 
HETATM    5  C   UNK N   1      24.550  16.489   5.207  0.00  0.00     0.013 A 
HETATM    6  C   UNK N   1      24.673  18.379   3.702  0.00  0.00     0.013 A 
ENDROOT
BRANCH   1   7
HETATM    7  C   UNK N   1      21.140  18.115   4.917  0.00  0.00     0.165 C 
BRANCH   7   8
HETATM    8  N   UNK N   1      20.287  17.011   4.513  0.00  0.00    -0.333 N 
HETATM    9  C   UNK N   1      19.691  16.205   5.457  0.00  0.00     0.220 C 
HETATM   10  O   UNK N   1      18.968  15.283   5.104  0.00  0.00    -0.273 OA
BRANCH   8  11
HETATM   11  C   UNK N   1      19.938  16.855   3.096  0.00  0.00     0.188 C 
BRANCH  11  12
HETATM   12  C   UNK N   1      21.045  16.140   2.270  0.00  0.00     0.011 C 
HETATM   13  C   UNK N   1      20.629  15.797   0.849  0.00  0.00     0.012 C 
HETATM   14  C   UNK N   1      21.477  14.850   2.942  0.00  0.00     0.012 C 
ENDBRANCH  11  12
BRANCH  11  15
HETATM   15  C   UNK N   1      19.626  18.224   2.513  0.00  0.00     0.164 C 
HETATM   16  O   UNK N   1      20.508  18.896   1.999  0.00  0.00    -0.648 OA
BRANCH  15  17
HETATM   17  O   UNK N   1      18.377  18.719   2.579  0.00  0.00    -0.775 OA
HETATM   18  H   UNK N   1      18.155  19.628   2.543  0.00  0.00     0.167 HD
ENDBRANCH  15  17
ENDBRANCH  11  15
ENDBRANCH   8  11
BRANCH   9  19
HETATM   19  C   UNK N   1      19.885  16.459   6.936  0.00  0.00     0.103 C 
BRANCH  19  20
HETATM   20  C   UNK N   1      20.645  15.368   7.667  0.00  0.00     0.009 C 
BRANCH  20  21
HETATM   21  C   UNK N   1      20.079  15.209   9.064  0.00  0.00    -0.004 C 
HETATM   22  C   UNK N   1      20.777  14.063   9.760  0.00  0.00     0.005 C 
ENDBRANCH  20  21
ENDBRANCH  19  20
ENDBRANCH   9  19
ENDBRANCH   7   8
ENDBRANCH   1   7
BRANCH   4  23
HETATM   23  C   UNK N   1      26.695  17.001   3.962  0.00  0.00    -0.012 A 
HETATM   24  C   UNK N   1      27.808  17.657   4.561  0.00  0.00     0.021 A 
HETATM   25  C   UNK N   1      29.101  17.311   4.144  0.00  0.00     0.016 A 
HETATM   26  C   UNK N   1      29.305  16.320   3.180  0.00  0.00     0.001 A 
HETATM   27  C   UNK N   1      28.218  15.656   2.620  0.00  0.00     0.001 A 
HETATM   28  C   UNK N   1      26.925  15.995   3.008  0.00  0.00     0.013 A 
BRANCH  24  29
HETATM   29  C   UNK N   1      27.685  18.611   5.695  0.00  0.00     0.145 A 
HETATM   30  N   UNK N   1      27.581  18.274   6.995  0.00  0.00    -0.271 N 
HETATM   31  N   UNK N   1      27.538  19.410   7.662  0.00  0.00    -0.225 N 
ATOM     32  HN  UNK N   1      27.544  17.333   7.384  1.00  0.00     0.190 HD
HETATM   33  N   UNK N   1      27.629  20.421   6.808  0.00  0.00    -0.005 NA
HETATM   34  H   UNK N   1      27.452  19.496   8.639  0.00  0.00     0.205 HD
HETATM   35  N   UNK N   1      27.739  19.949   5.578  0.00  0.00    -0.266 N 
ATOM     36  HN  UNK N   1      27.843  20.489   4.718  1.00  0.00     0.186 HD
ENDBRANCH  24  29
ENDBRANCH   4  23
TORSDOF 11
ENDMDL
MODEL 3
REMARK VINA RESULT:      -6.7     14.892     17.273
REMARK  11 active torsions:
REMARK  status: ('A' for Active; 'I' for Inactive)
REMARK    1  A    between atoms: O_1  and  C_18 
REMARK    2  A    between atoms: C_11  and  N_4 
REMARK    3  A    between atoms: N_4  and  C_13 
REMARK       I    between atoms: N_4  and  C_14 
REMARK    4  A    between atoms: C_11  and  C_12 
REMARK    5  A    between atoms: C_11  and  C_18 
REMARK    6  A    between atoms: C_13  and  C_19 
REMARK    7  A    between atoms: C_14  and  C_17 
REMARK    8  A    between atoms: C_17  and  C_20 
REMARK    9  A    between atoms: C_20  and  C_21 
REMARK   10  A    between atoms: C_24  and  C_28 
REMARK   11  A    between atoms: C_29  and  C_33 
ROOT
HETATM    1  C   UNK N   1      29.358  25.697  -4.744  0.00  0.00    -0.040 A 
HETATM    2  C   UNK N   1      28.867  24.617  -4.005  0.00  0.00     0.010 A 
HETATM    3  C   UNK N   1      29.873  25.496  -6.021  0.00  0.00     0.010 A 
HETATM    4  C   UNK N   1      29.335  23.153  -5.891  0.00  0.00    -0.025 A 
HETATM    5  C   UNK N   1      28.851  23.346  -4.582  0.00  0.00     0.013 A 
HETATM    6  C   UNK N   1      29.882  24.233  -6.582  0.00  0.00     0.013 A 
ENDROOT
BRANCH   1   7
HETATM    7  C   UNK N   1      29.406  27.072  -4.187  0.00  0.00     0.165 C 
BRANCH   7   8
HETATM    8  N   UNK N   1      28.260  27.861  -4.606  0.00  0.00    -0.333 N 
HETATM    9  C   UNK N   1      28.437  29.098  -5.185  0.00  0.00     0.220 C 
HETATM   10  O   UNK N   1      27.465  29.750  -5.541  0.00  0.00    -0.273 OA
BRANCH   8  11
HETATM   11  C   UNK N   1      26.919  27.268  -4.549  0.00  0.00     0.188 C 
BRANCH  11  12
HETATM   12  C   UNK N   1      26.089  27.512  -5.841  0.00  0.00     0.011 C 
HETATM   13  C   UNK N   1      24.625  27.121  -5.715  0.00  0.00     0.012 C 
HETATM   14  C   UNK N   1      26.667  26.739  -7.012  0.00  0.00     0.012 C 
ENDBRANCH  11  12
BRANCH  11  15
HETATM   15  C   UNK N   1      26.194  27.811  -3.328  0.00  0.00     0.164 C 
HETATM   16  O   UNK N   1      25.958  27.087  -2.372  0.00  0.00    -0.648 OA
BRANCH  15  17
HETATM   17  O   UNK N   1      25.783  29.092  -3.299  0.00  0.00    -0.775 OA
HETATM   18  H   UNK N   1      26.348  29.839  -3.307  0.00  0.00     0.167 HD
ENDBRANCH  15  17
ENDBRANCH  11  15
ENDBRANCH   8  11
BRANCH   9  19
HETATM   19  C   UNK N   1      29.822  29.657  -5.427  0.00  0.00     0.103 C 
BRANCH  19  20
HETATM   20  C   UNK N   1      30.099  30.054  -6.865  0.00  0.00     0.009 C 
BRANCH  20  21
HETATM   21  C   UNK N   1      30.384  28.812  -7.684  0.00  0.00    -0.004 C 
HETATM   22  C   UNK N   1      29.305  28.644  -8.730  0.00  0.00     0.005 C 
ENDBRANCH  20  21
ENDBRANCH  19  20
ENDBRANCH   9  19
ENDBRANCH   7   8
ENDBRANCH   1   7
BRANCH   4  23
HETATM   23  C   UNK N   1      29.229  21.860  -6.597  0.00  0.00    -0.012 A 
HETATM   24  C   UNK N   1      28.108  21.496  -7.398  0.00  0.00     0.021 A 
HETATM   25  C   UNK N   1      28.102  20.240  -8.020  0.00  0.00     0.016 A 
HETATM   26  C   UNK N   1      29.183  19.365  -7.886  0.00  0.00     0.001 A 
HETATM   27  C   UNK N   1      30.292  19.735  -7.131  0.00  0.00     0.001 A 
HETATM   28  C   UNK N   1      30.313  20.971  -6.492  0.00  0.00     0.013 A 
BRANCH  24  29
HETATM   29  C   UNK N   1      26.989  22.424  -7.712  0.00  0.00     0.145 A 
HETATM   30  N   UNK N   1      26.849  23.124  -8.853  0.00  0.00    -0.271 N 
HETATM   31  N   UNK N   1      25.710  23.779  -8.740  0.00  0.00    -0.225 N 
ATOM     32  HN  UNK N   1      27.491  23.144  -9.645  1.00  0.00     0.190 HD
HETATM   33  N   UNK N   1      25.152  23.484  -7.574  0.00  0.00    -0.005 NA
HETATM   34  H   UNK N   1      25.334  24.391  -9.413  0.00  0.00     0.205 HD
HETATM   35  N   UNK N   1      25.921  22.628  -6.923  0.00  0.00    -0.266 N 
ATOM     36  HN  UNK N   1      25.741  22.209  -6.009  1.00  0.00     0.186 HD
ENDBRANCH  24  29
ENDBRANCH   4  23
TORSDOF 11
ENDMDL
MODEL 4
REMARK VINA RESULT:      -6.7      3.766      6.365
REMARK  11 active torsions:
REMARK  status: ('A' for Active; 'I' for Inactive)
REMARK    1  A    between atoms: O_1  and  C_18 
REMARK    2  A    between atoms: C_11  and  N_4 
REMARK    3  A    between atoms: N_4  and  C_13 
REMARK       I    between atoms: N_4  and  C_14 
REMARK    4  A    between atoms: C_11  and  C_12 
REMARK    5  A    between atoms: C_11  and  C_18 
REMARK    6  A    between atoms: C_13  and  C_19 
REMARK    7  A    between atoms: C_14  and  C_17 
REMARK    8  A    between atoms: C_17  and  C_20 
REMARK    9  A    between atoms: C_20  and  C_21 
REMARK   10  A    between atoms: C_24  and  C_28 
REMARK   11  A    between atoms: C_29  and  C_33 
ROOT
HETATM    1  C   UNK N   1      28.221  16.141   4.276  0.00  0.00    -0.040 A 
HETATM    2  C   UNK N   1      28.949  15.094   4.850  0.00  0.00     0.010 A 
HETATM    3  C   UNK N   1      28.608  17.461   4.484  0.00  0.00     0.010 A 
HETATM    4  C   UNK N   1      30.509  16.722   5.764  0.00  0.00    -0.025 A 
HETATM    5  C   UNK N   1      30.096  15.386   5.589  0.00  0.00     0.013 A 
HETATM    6  C   UNK N   1      29.729  17.751   5.240  0.00  0.00     0.013 A 
ENDROOT
BRANCH   1   7
HETATM    7  C   UNK N   1      26.991  15.897   3.480  0.00  0.00     0.165 C 
BRANCH   7   8
HETATM    8  N   UNK N   1      25.795  15.995   4.299  0.00  0.00    -0.333 N 
HETATM    9  C   UNK N   1      25.075  17.169   4.347  0.00  0.00     0.220 C 
HETATM   10  O   UNK N   1      24.064  17.236   5.034  0.00  0.00    -0.273 OA
BRANCH   8  11
HETATM   11  C   UNK N   1      25.270  14.791   4.952  0.00  0.00     0.188 C 
BRANCH  11  12
HETATM   12  C   UNK N   1      26.006  14.446   6.278  0.00  0.00     0.011 C 
HETATM   13  C   UNK N   1      25.282  13.421   7.135  0.00  0.00     0.012 C 
HETATM   14  C   UNK N   1      26.208  15.688   7.126  0.00  0.00     0.012 C 
ENDBRANCH  11  12
BRANCH  11  15
HETATM   15  C   UNK N   1      25.345  13.630   3.973  0.00  0.00     0.164 C 
HETATM   16  O   UNK N   1      26.234  12.797   4.063  0.00  0.00    -0.648 OA
BRANCH  15  17
HETATM   17  O   UNK N   1      24.442  13.522   2.981  0.00  0.00    -0.775 OA
HETATM   18  H   UNK N   1      24.415  12.830   2.350  0.00  0.00     0.167 HD
ENDBRANCH  15  17
ENDBRANCH  11  15
ENDBRANCH   8  11
BRANCH   9  19
HETATM   19  C   UNK N   1      25.491  18.375   3.534  0.00  0.00     0.103 C 
BRANCH  19  20
HETATM   20  C   UNK N   1      25.365  19.699   4.264  0.00  0.00     0.009 C 
BRANCH  20  21
HETATM   21  C   UNK N   1      26.668  20.464   4.148  0.00  0.00    -0.004 C 
HETATM   22  C   UNK N   1      27.109  20.913   5.523  0.00  0.00     0.005 C 
ENDBRANCH  20  21
ENDBRANCH  19  20
ENDBRANCH   9  19
ENDBRANCH   7   8
ENDBRANCH   1   7
BRANCH   4  23
HETATM   23  C   UNK N   1      31.777  17.084   6.429  0.00  0.00    -0.012 A 
HETATM   24  C   UNK N   1      31.850  17.556   7.771  0.00  0.00     0.021 A 
HETATM   25  C   UNK N   1      33.104  17.881   8.306  0.00  0.00     0.016 A 
HETATM   26  C   UNK N   1      34.271  17.719   7.554  0.00  0.00     0.001 A 
HETATM   27  C   UNK N   1      34.202  17.226   6.255  0.00  0.00     0.001 A 
HETATM   28  C   UNK N   1      32.966  16.912   5.698  0.00  0.00     0.013 A 
BRANCH  24  29
HETATM   29  C   UNK N   1      30.677  17.615   8.683  0.00  0.00     0.145 A 
HETATM   30  N   UNK N   1      30.408  16.739   9.670  0.00  0.00    -0.271 N 
HETATM   31  N   UNK N   1      29.312  17.178  10.257  0.00  0.00    -0.225 N 
ATOM     32  HN  UNK N   1      30.942  15.906   9.915  1.00  0.00     0.190 HD
HETATM   33  N   UNK N   1      28.921  18.300   9.667  0.00  0.00    -0.005 NA
HETATM   34  H   UNK N   1      28.856  16.744  11.013  0.00  0.00     0.205 HD
HETATM   35  N   UNK N   1      29.765  18.602   8.695  0.00  0.00    -0.266 N 
ATOM     36  HN  UNK N   1      29.731  19.416   8.080  1.00  0.00     0.186 HD
ENDBRANCH  24  29
ENDBRANCH   4  23
TORSDOF 11
ENDMDL
MODEL 5
REMARK VINA RESULT:      -6.7      3.323      6.583
REMARK  11 active torsions:
REMARK  status: ('A' for Active; 'I' for Inactive)
REMARK    1  A    between atoms: O_1  and  C_18 
REMARK    2  A    between atoms: C_11  and  N_4 
REMARK    3  A    between atoms: N_4  and  C_13 
REMARK       I    between atoms: N_4  and  C_14 
REMARK    4  A    between atoms: C_11  and  C_12 
REMARK    5  A    between atoms: C_11  and  C_18 
REMARK    6  A    between atoms: C_13  and  C_19 
REMARK    7  A    between atoms: C_14  and  C_17 
REMARK    8  A    between atoms: C_17  and  C_20 
REMARK    9  A    between atoms: C_20  and  C_21 
REMARK   10  A    between atoms: C_24  and  C_28 
REMARK   11  A    between atoms: C_29  and  C_33 
ROOT
HETATM    1  C   UNK N   1      20.310  15.424   5.832  0.00  0.00    -0.040 A 
HETATM    2  C   UNK N   1      20.354  14.031   5.713  0.00  0.00     0.010 A 
HETATM    3  C   UNK N   1      20.691  16.039   7.021  0.00  0.00     0.010 A 
HETATM    4  C   UNK N   1      21.259  13.898   7.968  0.00  0.00    -0.025 A 
HETATM    5  C   UNK N   1      20.835  13.270   6.780  0.00  0.00     0.013 A 
HETATM    6  C   UNK N   1      21.140  15.282   8.088  0.00  0.00     0.013 A 
ENDROOT
BRANCH   1   7
HETATM    7  C   UNK N   1      19.808  16.290   4.735  0.00  0.00     0.165 C 
BRANCH   7   8
HETATM    8  N   UNK N   1      20.789  16.437   3.675  0.00  0.00    -0.333 N 
HETATM    9  C   UNK N   1      20.713  15.662   2.538  0.00  0.00     0.220 C 
HETATM   10  O   UNK N   1      21.540  15.801   1.648  0.00  0.00    -0.273 OA
BRANCH   8  11
HETATM   11  C   UNK N   1      21.773  17.523   3.751  0.00  0.00     0.188 C 
BRANCH  11  12
HETATM   12  C   UNK N   1      22.951  17.213   4.719  0.00  0.00     0.011 C 
HETATM   13  C   UNK N   1      24.107  18.194   4.616  0.00  0.00     0.012 C 
HETATM   14  C   UNK N   1      23.508  15.823   4.469  0.00  0.00     0.012 C 
ENDBRANCH  11  12
BRANCH  11  15
HETATM   15  C   UNK N   1      21.061  18.802   4.158  0.00  0.00     0.164 C 
HETATM   16  O   UNK N   1      20.440  19.457   3.333  0.00  0.00    -0.648 OA
BRANCH  15  17
HETATM   17  O   UNK N   1      21.126  19.240   5.429  0.00  0.00    -0.775 OA
HETATM   18  H   UNK N   1      21.253  18.695   6.180  0.00  0.00     0.167 HD
ENDBRANCH  15  17
ENDBRANCH  11  15
ENDBRANCH   8  11
BRANCH   9  19
HETATM   19  C   UNK N   1      19.595  14.660   2.350  0.00  0.00     0.103 C 
BRANCH  19  20
HETATM   20  C   UNK N   1      19.199  14.423   0.905  0.00  0.00     0.009 C 
BRANCH  20  21
HETATM   21  C   UNK N   1      19.236  12.937   0.609  0.00  0.00    -0.004 C 
HETATM   22  C   UNK N   1      20.660  12.441   0.712  0.00  0.00     0.005 C 
ENDBRANCH  20  21
ENDBRANCH  19  20
ENDBRANCH   9  19
ENDBRANCH   7   8
ENDBRANCH   1   7
BRANCH   4  23
HETATM   23  C   UNK N   1      21.889  13.158   9.079  0.00  0.00    -0.012 A 
HETATM   24  C   UNK N   1      23.233  12.687   9.042  0.00  0.00     0.021 A 
HETATM   25  C   UNK N   1      23.734  11.986  10.147  0.00  0.00     0.016 A 
HETATM   26  C   UNK N   1      22.947  11.774  11.282  0.00  0.00     0.001 A 
HETATM   27  C   UNK N   1      21.645  12.263  11.331  0.00  0.00     0.001 A 
HETATM   28  C   UNK N   1      21.122  12.948  10.238  0.00  0.00     0.013 A 
BRANCH  24  29
HETATM   29  C   UNK N   1      24.180  12.999   7.939  0.00  0.00     0.145 A 
HETATM   30  N   UNK N   1      25.023  14.049   7.904  0.00  0.00    -0.271 N 
HETATM   31  N   UNK N   1      25.707  13.928   6.783  0.00  0.00    -0.225 N 
ATOM     32  HN  UNK N   1      25.115  14.787   8.601  1.00  0.00     0.190 HD
HETATM   33  N   UNK N   1      25.316  12.830   6.150  0.00  0.00    -0.005 NA
HETATM   34  H   UNK N   1      26.399  14.553   6.467  0.00  0.00     0.205 HD
HETATM   35  N   UNK N   1      24.378  12.226   6.858  0.00  0.00    -0.266 N 
ATOM     36  HN  UNK N   1      23.902  11.352   6.631  1.00  0.00     0.186 HD
ENDBRANCH  24  29
ENDBRANCH   4  23
TORSDOF 11
ENDMDL
MODEL 6
REMARK VINA RESULT:      -6.6     14.453     16.753
REMARK  11 active torsions:
REMARK  status: ('A' for Active; 'I' for Inactive)
REMARK    1  A    between atoms: O_1  and  C_18 
REMARK    2  A    between atoms: C_11  and  N_4 
REMARK    3  A    between atoms: N_4  and  C_13 
REMARK       I    between atoms: N_4  and  C_14 
REMARK    4  A    between atoms: C_11  and  C_12 
REMARK    5  A    between atoms: C_11  and  C_18 
REMARK    6  A    between atoms: C_13  and  C_19 
REMARK    7  A    between atoms: C_14  and  C_17 
REMARK    8  A    between atoms: C_17  and  C_20 
REMARK    9  A    between atoms: C_20  and  C_21 
REMARK   10  A    between atoms: C_24  and  C_28 
REMARK   11  A    between atoms: C_29  and  C_33 
ROOT
HETATM    1  C   UNK N   1      29.417  25.700  -4.752  0.00  0.00    -0.040 A 
HETATM    2  C   UNK N   1      30.129  25.525  -5.942  0.00  0.00     0.010 A 
HETATM    3  C   UNK N   1      28.659  24.658  -4.227  0.00  0.00     0.010 A 
HETATM    4  C   UNK N   1      29.380  23.210  -6.012  0.00  0.00    -0.025 A 
HETATM    5  C   UNK N   1      30.115  24.277  -6.568  0.00  0.00     0.013 A 
HETATM    6  C   UNK N   1      28.623  23.430  -4.862  0.00  0.00     0.013 A 
ENDROOT
BRANCH   1   7
HETATM    7  C   UNK N   1      29.389  27.003  -4.039  0.00  0.00     0.165 C 
BRANCH   7   8
HETATM    8  N   UNK N   1      28.282  27.833  -4.481  0.00  0.00    -0.333 N 
HETATM    9  C   UNK N   1      28.514  29.074  -5.032  0.00  0.00     0.220 C 
HETATM   10  O   UNK N   1      27.574  29.761  -5.407  0.00  0.00    -0.273 OA
BRANCH   8  11
HETATM   11  C   UNK N   1      26.923  27.280  -4.478  0.00  0.00     0.188 C 
BRANCH  11  12
HETATM   12  C   UNK N   1      26.158  27.534  -5.808  0.00  0.00     0.011 C 
HETATM   13  C   UNK N   1      24.681  27.176  -5.747  0.00  0.00     0.012 C 
HETATM   14  C   UNK N   1      26.771  26.741  -6.947  0.00  0.00     0.012 C 
ENDBRANCH  11  12
BRANCH  11  15
HETATM   15  C   UNK N   1      26.161  27.857  -3.296  0.00  0.00     0.164 C 
HETATM   16  O   UNK N   1      25.905  27.163  -2.322  0.00  0.00    -0.648 OA
BRANCH  15  17
HETATM   17  O   UNK N   1      25.739  29.134  -3.320  0.00  0.00    -0.775 OA
HETATM   18  H   UNK N   1      26.188  29.858  -2.929  0.00  0.00     0.167 HD
ENDBRANCH  15  17
ENDBRANCH  11  15
ENDBRANCH   8  11
BRANCH   9  19
HETATM   19  C   UNK N   1      29.923  29.594  -5.219  0.00  0.00     0.103 C 
BRANCH  19  20
HETATM   20  C   UNK N   1      30.285  29.928  -6.654  0.00  0.00     0.009 C 
BRANCH  20  21
HETATM   21  C   UNK N   1      30.240  28.666  -7.491  0.00  0.00    -0.004 C 
HETATM   22  C   UNK N   1      29.319  28.881  -8.671  0.00  0.00     0.005 C 
ENDBRANCH  20  21
ENDBRANCH  19  20
ENDBRANCH   9  19
ENDBRANCH   7   8
ENDBRANCH   1   7
BRANCH   4  23
HETATM   23  C   UNK N   1      29.427  21.840  -6.559  0.00  0.00    -0.012 A 
HETATM   24  C   UNK N   1      30.336  20.844  -6.097  0.00  0.00     0.021 A 
HETATM   25  C   UNK N   1      30.306  19.574  -6.691  0.00  0.00     0.016 A 
HETATM   26  C   UNK N   1      29.384  19.272  -7.697  0.00  0.00     0.001 A 
HETATM   27  C   UNK N   1      28.474  20.235  -8.124  0.00  0.00     0.001 A 
HETATM   28  C   UNK N   1      28.498  21.507  -7.560  0.00  0.00     0.013 A 
BRANCH  24  29
HETATM   29  C   UNK N   1      31.243  21.038  -4.935  0.00  0.00     0.145 A 
HETATM   30  N   UNK N   1      30.981  20.667  -3.667  0.00  0.00    -0.271 N 
HETATM   31  N   UNK N   1      32.054  20.979  -2.968  0.00  0.00    -0.225 N 
ATOM     32  HN  UNK N   1      30.127  20.232  -3.318  1.00  0.00     0.190 HD
HETATM   33  N   UNK N   1      32.961  21.511  -3.776  0.00  0.00    -0.005 NA
HETATM   34  H   UNK N   1      32.165  20.840  -2.000  0.00  0.00     0.205 HD
HETATM   35  N   UNK N   1      32.486  21.543  -5.009  0.00  0.00    -0.266 N 
ATOM     36  HN  UNK N   1      32.964  21.881  -5.846  1.00  0.00     0.186 HD
ENDBRANCH  24  29
ENDBRANCH   4  23
TORSDOF 11
ENDMDL
MODEL 7
REMARK VINA RESULT:      -6.5     10.986     14.003
REMARK  11 active torsions:
REMARK  status: ('A' for Active; 'I' for Inactive)
REMARK    1  A    between atoms: O_1  and  C_18 
REMARK    2  A    between atoms: C_11  and  N_4 
REMARK    3  A    between atoms: N_4  and  C_13 
REMARK       I    between atoms: N_4  and  C_14 
REMARK    4  A    between atoms: C_11  and  C_12 
REMARK    5  A    between atoms: C_11  and  C_18 
REMARK    6  A    between atoms: C_13  and  C_19 
REMARK    7  A    between atoms: C_14  and  C_17 
REMARK    8  A    between atoms: C_17  and  C_20 
REMARK    9  A    between atoms: C_20  and  C_21 
REMARK   10  A    between atoms: C_24  and  C_28 
REMARK   11  A    between atoms: C_29  and  C_33 
ROOT
HETATM    1  C   UNK N   1      36.595  13.377  12.258  0.00  0.00    -0.040 A 
HETATM    2  C   UNK N   1      37.164  13.446  10.983  0.00  0.00     0.010 A 
HETATM    3  C   UNK N   1      35.477  14.145  12.570  0.00  0.00     0.010 A 
HETATM    4  C   UNK N   1      35.412  14.998  10.318  0.00  0.00    -0.025 A 
HETATM    5  C   UNK N   1      36.568  14.253  10.012  0.00  0.00     0.013 A 
HETATM    6  C   UNK N   1      34.903  14.966  11.616  0.00  0.00     0.013 A 
ENDROOT
BRANCH   1   7
HETATM    7  C   UNK N   1      37.182  12.541  13.335  0.00  0.00     0.165 C 
BRANCH   7   8
HETATM    8  N   UNK N   1      36.237  11.551  13.822  0.00  0.00    -0.333 N 
HETATM    9  C   UNK N   1      35.570  11.748  15.012  0.00  0.00     0.220 C 
HETATM   10  O   UNK N   1      34.770  10.911  15.408  0.00  0.00    -0.273 OA
BRANCH   8  11
HETATM   11  C   UNK N   1      35.881  10.414  12.966  0.00  0.00     0.188 C 
BRANCH  11  12
HETATM   12  C   UNK N   1      37.019  10.006  11.988  0.00  0.00     0.011 C 
HETATM   13  C   UNK N   1      36.586   9.017  10.918  0.00  0.00     0.012 C 
HETATM   14  C   UNK N   1      38.184   9.387  12.737  0.00  0.00     0.012 C 
ENDBRANCH  11  12
BRANCH  11  15
HETATM   15  C   UNK N   1      34.608  10.752  12.207  0.00  0.00     0.164 C 
HETATM   16  O   UNK N   1      34.663  11.223  11.081  0.00  0.00    -0.648 OA
BRANCH  15  17
HETATM   17  O   UNK N   1      33.406  10.555  12.779  0.00  0.00    -0.775 OA
HETATM   18  H   UNK N   1      33.169  10.828  13.643  0.00  0.00     0.167 HD
ENDBRANCH  15  17
ENDBRANCH  11  15
ENDBRANCH   8  11
BRANCH   9  19
HETATM   19  C   UNK N   1      35.780  13.005  15.827  0.00  0.00     0.103 C 
BRANCH  19  20
HETATM   20  C   UNK N   1      34.668  13.309  16.813  0.00  0.00     0.009 C 
BRANCH  20  21
HETATM   21  C   UNK N   1      35.237  13.353  18.217  0.00  0.00    -0.004 C 
HETATM   22  C   UNK N   1      35.298  11.949  18.777  0.00  0.00     0.005 C 
ENDBRANCH  20  21
ENDBRANCH  19  20
ENDBRANCH   9  19
ENDBRANCH   7   8
ENDBRANCH   1   7
BRANCH   4  23
HETATM   23  C   UNK N   1      34.668  15.769   9.302  0.00  0.00    -0.012 A 
HETATM   24  C   UNK N   1      33.764  15.173   8.376  0.00  0.00     0.021 A 
HETATM   25  C   UNK N   1      33.114  15.994   7.443  0.00  0.00     0.016 A 
HETATM   26  C   UNK N   1      33.320  17.376   7.435  0.00  0.00     0.001 A 
HETATM   27  C   UNK N   1      34.177  17.961   8.362  0.00  0.00     0.001 A 
HETATM   28  C   UNK N   1      34.845  17.163   9.286  0.00  0.00     0.013 A 
BRANCH  24  29
HETATM   29  C   UNK N   1      33.377  13.738   8.415  0.00  0.00     0.145 A 
HETATM   30  N   UNK N   1      32.702  13.136   9.413  0.00  0.00    -0.271 N 
HETATM   31  N   UNK N   1      32.530  11.886   9.033  0.00  0.00    -0.225 N 
ATOM     32  HN  UNK N   1      32.387  13.560  10.285  1.00  0.00     0.190 HD
HETATM   33  N   UNK N   1      33.065  11.718   7.831  0.00  0.00    -0.005 NA
HETATM   34  H   UNK N   1      32.077  11.187   9.557  0.00  0.00     0.205 HD
HETATM   35  N   UNK N   1      33.584  12.862   7.418  0.00  0.00    -0.266 N 
ATOM     36  HN  UNK N   1      34.046  13.043   6.526  1.00  0.00     0.186 HD
ENDBRANCH  24  29
ENDBRANCH   4  23
TORSDOF 11
ENDMDL
MODEL 8
REMARK VINA RESULT:      -6.5      4.307      5.974
REMARK  11 active torsions:
REMARK  status: ('A' for Active; 'I' for Inactive)
REMARK    1  A    between atoms: O_1  and  C_18 
REMARK    2  A    between atoms: C_11  and  N_4 
REMARK    3  A    between atoms: N_4  and  C_13 
REMARK       I    between atoms: N_4  and  C_14 
REMARK    4  A    between atoms: C_11  and  C_12 
REMARK    5  A    between atoms: C_11  and  C_18 
REMARK    6  A    between atoms: C_13  and  C_19 
REMARK    7  A    between atoms: C_14  and  C_17 
REMARK    8  A    between atoms: C_17  and  C_20 
REMARK    9  A    between atoms: C_20  and  C_21 
REMARK   10  A    between atoms: C_24  and  C_28 
REMARK   11  A    between atoms: C_29  and  C_33 
ROOT
HETATM    1  C   UNK N   1      28.087  16.017   3.676  0.00  0.00    -0.040 A 
HETATM    2  C   UNK N   1      28.198  15.287   4.863  0.00  0.00     0.010 A 
HETATM    3  C   UNK N   1      28.885  17.137   3.463  0.00  0.00     0.010 A 
HETATM    4  C   UNK N   1      29.990  16.772   5.571  0.00  0.00    -0.025 A 
HETATM    5  C   UNK N   1      29.155  15.662   5.807  0.00  0.00     0.013 A 
HETATM    6  C   UNK N   1      29.813  17.525   4.411  0.00  0.00     0.013 A 
ENDROOT
BRANCH   1   7
HETATM    7  C   UNK N   1      27.088  15.671   2.633  0.00  0.00     0.165 C 
BRANCH   7   8
HETATM    8  N   UNK N   1      25.775  15.430   3.205  0.00  0.00    -0.333 N 
HETATM    9  C   UNK N   1      25.030  16.473   3.710  0.00  0.00     0.220 C 
HETATM   10  O   UNK N   1      23.922  16.259   4.183  0.00  0.00    -0.273 OA
BRANCH   8  11
HETATM   11  C   UNK N   1      25.180  14.092   3.103  0.00  0.00     0.188 C 
BRANCH  11  12
HETATM   12  C   UNK N   1      26.233  12.972   2.868  0.00  0.00     0.011 C 
HETATM   13  C   UNK N   1      25.880  12.022   1.735  0.00  0.00     0.012 C 
HETATM   14  C   UNK N   1      26.426  12.136   4.120  0.00  0.00     0.012 C 
ENDBRANCH  11  12
BRANCH  11  15
HETATM   15  C   UNK N   1      24.142  14.101   1.992  0.00  0.00     0.164 C 
HETATM   16  O   UNK N   1      23.034  13.616   2.173  0.00  0.00    -0.648 OA
BRANCH  15  17
HETATM   17  O   UNK N   1      24.442  14.623   0.789  0.00  0.00    -0.775 OA
HETATM   18  H   UNK N   1      24.022  14.395  -0.017  0.00  0.00     0.167 HD
ENDBRANCH  15  17
ENDBRANCH  11  15
ENDBRANCH   8  11
BRANCH   9  19
HETATM   19  C   UNK N   1      25.543  17.895   3.660  0.00  0.00     0.103 C 
BRANCH  19  20
HETATM   20  C   UNK N   1      25.797  18.521   5.018  0.00  0.00     0.009 C 
BRANCH  20  21
HETATM   21  C   UNK N   1      26.707  19.722   4.858  0.00  0.00    -0.004 C 
HETATM   22  C   UNK N   1      26.622  20.228   3.436  0.00  0.00     0.005 C 
ENDBRANCH  20  21
ENDBRANCH  19  20
ENDBRANCH   9  19
ENDBRANCH   7   8
ENDBRANCH   1   7
BRANCH   4  23
HETATM   23  C   UNK N   1      31.099  17.141   6.474  0.00  0.00    -0.012 A 
HETATM   24  C   UNK N   1      30.901  17.726   7.758  0.00  0.00     0.021 A 
HETATM   25  C   UNK N   1      32.023  18.048   8.534  0.00  0.00     0.016 A 
HETATM   26  C   UNK N   1      33.315  17.775   8.078  0.00  0.00     0.001 A 
HETATM   27  C   UNK N   1      33.507  17.173   6.838  0.00  0.00     0.001 A 
HETATM   28  C   UNK N   1      32.408  16.860   6.044  0.00  0.00     0.013 A 
BRANCH  24  29
HETATM   29  C   UNK N   1      29.562  17.910   8.376  0.00  0.00     0.145 A 
HETATM   30  N   UNK N   1      28.685  18.887   8.072  0.00  0.00    -0.271 N 
HETATM   31  N   UNK N   1      27.618  18.661   8.811  0.00  0.00    -0.225 N 
ATOM     32  HN  UNK N   1      28.820  19.647   7.406  1.00  0.00     0.190 HD
HETATM   33  N   UNK N   1      27.815  17.570   9.539  0.00  0.00    -0.005 NA
HETATM   34  H   UNK N   1      26.803  19.213   8.822  0.00  0.00     0.205 HD
HETATM   35  N   UNK N   1      29.011  17.075   9.274  0.00  0.00    -0.266 N 
ATOM     36  HN  UNK N   1      29.431  16.232   9.668  1.00  0.00     0.186 HD
ENDBRANCH  24  29
ENDBRANCH   4  23
TORSDOF 11
ENDMDL
MODEL 9
REMARK VINA RESULT:      -6.5     14.539     16.663
REMARK  11 active torsions:
REMARK  status: ('A' for Active; 'I' for Inactive)
REMARK    1  A    between atoms: O_1  and  C_18 
REMARK    2  A    between atoms: C_11  and  N_4 
REMARK    3  A    between atoms: N_4  and  C_13 
REMARK       I    between atoms: N_4  and  C_14 
REMARK    4  A    between atoms: C_11  and  C_12 
REMARK    5  A    between atoms: C_11  and  C_18 
REMARK    6  A    between atoms: C_13  and  C_19 
REMARK    7  A    between atoms: C_14  and  C_17 
REMARK    8  A    between atoms: C_17  and  C_20 
REMARK    9  A    between atoms: C_20  and  C_21 
REMARK   10  A    between atoms: C_24  and  C_28 
REMARK   11  A    between atoms: C_29  and  C_33 
ROOT
HETATM    1  C   UNK N   1      28.093  25.545  -4.566  0.00  0.00    -0.040 A 
HETATM    2  C   UNK N   1      29.268  25.474  -5.321  0.00  0.00     0.010 A 
HETATM    3  C   UNK N   1      27.199  24.478  -4.558  0.00  0.00     0.010 A 
HETATM    4  C   UNK N   1      28.671  23.210  -5.981  0.00  0.00    -0.025 A 
HETATM    5  C   UNK N   1      29.558  24.304  -6.023  0.00  0.00     0.013 A 
HETATM    6  C   UNK N   1      27.473  23.330  -5.277  0.00  0.00     0.013 A 
ENDROOT
BRANCH   1   7
HETATM    7  C   UNK N   1      27.725  26.762  -3.799  0.00  0.00     0.165 C 
BRANCH   7   8
HETATM    8  N   UNK N   1      28.095  27.975  -4.506  0.00  0.00    -0.333 N 
HETATM    9  C   UNK N   1      27.473  28.313  -5.688  0.00  0.00     0.220 C 
HETATM   10  O   UNK N   1      27.788  29.341  -6.271  0.00  0.00    -0.273 OA
BRANCH   8  11
HETATM   11  C   UNK N   1      29.026  28.919  -3.877  0.00  0.00     0.188 C 
BRANCH  11  12
HETATM   12  C   UNK N   1      30.210  28.217  -3.153  0.00  0.00     0.011 C 
HETATM   13  C   UNK N   1      30.840  29.053  -2.051  0.00  0.00     0.012 C 
HETATM   14  C   UNK N   1      31.310  27.856  -4.135  0.00  0.00     0.012 C 
ENDBRANCH  11  12
BRANCH  11  15
HETATM   15  C   UNK N   1      28.251  29.804  -2.914  0.00  0.00     0.164 C 
HETATM   16  O   UNK N   1      28.250  31.019  -3.051  0.00  0.00    -0.648 OA
BRANCH  15  17
HETATM   17  O   UNK N   1      27.576  29.258  -1.887  0.00  0.00    -0.775 OA
HETATM   18  H   UNK N   1      27.949  29.026  -1.059  0.00  0.00     0.167 HD
ENDBRANCH  15  17
ENDBRANCH  11  15
ENDBRANCH   8  11
BRANCH   9  19
HETATM   19  C   UNK N   1      26.374  27.449  -6.267  0.00  0.00     0.103 C 
BRANCH  19  20
HETATM   20  C   UNK N   1      26.678  26.881  -7.640  0.00  0.00     0.009 C 
BRANCH  20  21
HETATM   21  C   UNK N   1      25.890  25.602  -7.843  0.00  0.00    -0.004 C 
HETATM   22  C   UNK N   1      26.661  24.678  -8.759  0.00  0.00     0.005 C 
ENDBRANCH  20  21
ENDBRANCH  19  20
ENDBRANCH   9  19
ENDBRANCH   7   8
ENDBRANCH   1   7
BRANCH   4  23
HETATM   23  C   UNK N   1      28.983  21.906  -6.600  0.00  0.00    -0.012 A 
HETATM   24  C   UNK N   1      30.029  21.054  -6.143  0.00  0.00     0.021 A 
HETATM   25  C   UNK N   1      30.250  19.839  -6.808  0.00  0.00     0.016 A 
HETATM   26  C   UNK N   1      29.444  19.449  -7.880  0.00  0.00     0.001 A 
HETATM   27  C   UNK N   1      28.401  20.267  -8.305  0.00  0.00     0.001 A 
HETATM   28  C   UNK N   1      28.174  21.485  -7.670  0.00  0.00     0.013 A 
BRANCH  24  29
HETATM   29  C   UNK N   1      30.832  21.324  -4.922  0.00  0.00     0.145 A 
HETATM   30  N   UNK N   1      30.495  20.967  -3.667  0.00  0.00    -0.271 N 
HETATM   31  N   UNK N   1      31.492  21.356  -2.898  0.00  0.00    -0.225 N 
ATOM     32  HN  UNK N   1      29.642  20.493  -3.372  1.00  0.00     0.190 HD
HETATM   33  N   UNK N   1      32.428  21.920  -3.650  0.00  0.00    -0.005 NA
HETATM   34  H   UNK N   1      31.537  21.245  -1.922  0.00  0.00     0.205 HD
HETATM   35  N   UNK N   1      32.047  21.898  -4.916  0.00  0.00    -0.266 N 
ATOM     36  HN  UNK N   1      32.569  22.244  -5.722  1.00  0.00     0.186 HD
ENDBRANCH  24  29
ENDBRANCH   4  23
TORSDOF 11
ENDMDL
