REMARK  11 active torsions:
REMARK  status: ('A' for Active; 'I' for Inactive)
REMARK    1  A    between atoms: O_1  and  C_18 
REMARK    2  A    between atoms: C_11  and  N_4 
REMARK    3  A    between atoms: N_4  and  C_13 
REMARK       I    between atoms: N_4  and  C_14 
REMARK    4  A    between atoms: C_11  and  C_12 
REMARK    5  A    between atoms: C_11  and  C_18 
REMARK    6  A    between atoms: C_13  and  C_19 
REMARK    7  A    between atoms: C_14  and  C_17 
REMARK    8  A    between atoms: C_17  and  C_20 
REMARK    9  A    between atoms: C_20  and  C_21 
REMARK   10  A    between atoms: C_24  and  C_28 
REMARK   11  A    between atoms: C_29  and  C_33 
ROOT
HETATM    1  C   UNK N   1       5.270   0.598   0.806  0.00  0.00    -0.040 A 
HETATM    2  C   UNK N   1       6.071   1.180  -0.181  0.00  0.00     0.010 A 
HETATM    3  C   UNK N   1       5.715  -0.523   1.500  0.00  0.00     0.010 A 
HETATM    4  C   UNK N   1       7.807  -0.453   0.309  0.00  0.00    -0.025 A 
HETATM    5  C   UNK N   1       7.342   0.657  -0.424  0.00  0.00     0.013 A 
HETATM    6  C   UNK N   1       6.963  -1.058   1.239  0.00  0.00     0.013 A 
ENDROOT
BRANCH   1   7
HETATM    7  C   UNK N   1       3.908   1.105   1.111  0.00  0.00     0.165 C 
BRANCH   7   8
HETATM    8  N   UNK N   1       3.008   0.939  -0.017  0.00  0.00    -0.333 N 
HETATM    9  C   UNK N   1       2.759  -0.313  -0.535  0.00  0.00     0.220 C 
HETATM   10  O   UNK N   1       1.993  -0.441  -1.480  0.00  0.00    -0.273 OA
BRANCH   8  11
HETATM   11  C   UNK N   1       2.245   2.094  -0.504  0.00  0.00     0.188 C 
BRANCH  11  12
HETATM   12  C   UNK N   1       2.792   3.452   0.020  0.00  0.00     0.011 C 
HETATM   13  C   UNK N   1       1.899   4.640  -0.299  0.00  0.00     0.012 C 
HETATM   14  C   UNK N   1       4.164   3.745  -0.559  0.00  0.00     0.012 C 
ENDBRANCH  11  12
BRANCH  11  15
HETATM   15  C   UNK N   1       0.785   1.914  -0.121  0.00  0.00     0.164 C 
HETATM   16  O   UNK N   1       0.449   1.027   0.650  0.00  0.00    -0.648 OA
BRANCH  15  17
HETATM   17  O   UNK N   1      -0.157   2.718  -0.647  0.00  0.00    -0.775 OA
HETATM   18  H   UNK N   1       0.001   3.566  -1.013  0.00  0.00     0.167 HD
ENDBRANCH  15  17
ENDBRANCH  11  15
ENDBRANCH   8  11
BRANCH   9  19
HETATM   19  C   UNK N   1       3.391  -1.548   0.069  0.00  0.00     0.103 C 
BRANCH  19  20
HETATM   20  C   UNK N   1       2.818  -2.859  -0.436  0.00  0.00     0.009 C 
BRANCH  20  21
HETATM   21  C   UNK N   1       1.498  -3.132   0.256  0.00  0.00    -0.004 C 
HETATM   22  C   UNK N   1       0.851  -4.351  -0.362  0.00  0.00     0.005 C 
ENDBRANCH  20  21
ENDBRANCH  19  20
ENDBRANCH   9  19
ENDBRANCH   7   8
ENDBRANCH   1   7
BRANCH   4  23
HETATM   23  C   UNK N   1       9.184  -0.971   0.183  0.00  0.00    -0.012 A 
HETATM   24  C   UNK N   1      10.320  -0.133  -0.009  0.00  0.00     0.021 A 
HETATM   25  C   UNK N   1      11.585  -0.726  -0.126  0.00  0.00     0.016 A 
HETATM   26  C   UNK N   1      11.742  -2.111  -0.027  0.00  0.00     0.001 A 
HETATM   27  C   UNK N   1      10.636  -2.926   0.194  0.00  0.00     0.001 A 
HETATM   28  C   UNK N   1       9.369  -2.360   0.297  0.00  0.00     0.013 A 
BRANCH  24  29
HETATM   29  C   UNK N   1      10.258   1.352   0.024  0.00  0.00     0.145 A 
HETATM   30  N   UNK N   1       9.307   2.083   0.637  0.00  0.00    -0.271 N 
HETATM   31  N   UNK N   1       9.649   3.344   0.462  0.00  0.00    -0.225 N 
ATOM     32  HN  UNK N   1       8.489   1.733   1.135  1.00  0.00     0.190 HD
HETATM   33  N   UNK N   1      10.784   3.397  -0.222  0.00  0.00    -0.005 NA
HETATM   34  H   UNK N   1       9.143   4.123   0.787  0.00  0.00     0.205 HD
HETATM   35  N   UNK N   1      11.192   2.169  -0.492  0.00  0.00    -0.266 N 
ATOM     36  HN  UNK N   1      12.041   1.897  -0.989  1.00  0.00     0.186 HD
ENDBRANCH  24  29
ENDBRANCH   4  23
TORSDOF 11
