MODEL 1
REMARK VINA RESULT:      -6.7      0.000      0.000
REMARK  11 active torsions:
REMARK  status: ('A' for Active; 'I' for Inactive)
REMARK    1  A    between atoms: O_2  and  C_16 
REMARK    2  A    between atoms: O_4  and  C_21 
REMARK    3  A    between atoms: O_4  and  C_26 
REMARK       I    between atoms: N_6  and  C_15 
REMARK    4  A    between atoms: C_17  and  N_7 
REMARK    5  A    between atoms: C_19  and  N_7 
REMARK    6  A    between atoms: C_13  and  C_16 
REMARK    7  A    between atoms: C_15  and  C_17 
REMARK    8  A    between atoms: C_19  and  C_20 
REMARK    9  A    between atoms: C_19  and  C_21 
REMARK   10  A    between atoms: C_20  and  C_22 
REMARK   11  A    between atoms: C_22  and  C_23 
ROOT
HETATM    1  N   UNK N   1      24.852  19.707   4.753  0.00  0.00    -0.397 N 
HETATM    2  H   UNK N   1      24.170  19.929   5.478  0.00  0.00     0.154 HD
ENDROOT
BRANCH   1   3
HETATM    3  C   UNK N   1      24.592  19.851   3.313  0.00  0.00     0.166 C 
HETATM    4  C   UNK N   1      25.713  20.510   2.525  0.00  0.00     0.042 C 
BRANCH   3   5
HETATM    5  C   UNK N   1      23.221  20.397   3.017  0.00  0.00     0.243 C 
HETATM    6  O   UNK N   1      23.136  21.607   2.861  0.00  0.00    -0.271 OA
HETATM    7  N   UNK N   1      22.083  19.629   2.914  0.00  0.00    -0.331 N 
HETATM    8  C   UNK N   1      21.977  18.197   3.076  0.00  0.00     0.092 C 
HETATM    9  C   UNK N   1      20.781  20.204   2.583  0.00  0.00     0.186 C 
HETATM   10  C   UNK N   1      20.557  18.091   3.540  0.00  0.00     0.011 C 
HETATM   11  C   UNK N   1      22.627  17.405   4.186  0.00  0.00     0.026 C 
HETATM   12  C   UNK N   1      19.816  19.000   2.594  0.00  0.00     0.043 C 
HETATM   13  C   UNK N   1      20.349  16.609   3.668  0.00  0.00     0.007 C 
HETATM   14  C   UNK N   1      21.676  16.196   4.333  0.00  0.00     0.002 C 
BRANCH   9  15
HETATM   15  C   UNK N   1      20.728  20.851   1.221  0.00  0.00     0.163 C 
HETATM   16  O   UNK N   1      20.858  20.187   0.205  0.00  0.00    -0.648 OA
BRANCH  15  17
HETATM   17  O   UNK N   1      20.521  22.178   1.126  0.00  0.00    -0.775 OA
HETATM   18  H   UNK N   1      20.369  22.685   1.899  0.00  0.00     0.167 HD
ENDBRANCH  15  17
ENDBRANCH   9  15
ENDBRANCH   3   5
ENDBRANCH   1   3
BRANCH   1  19
HETATM   19  C   UNK N   1      26.216  19.202   5.036  0.00  0.00     0.178 C 
BRANCH  19  20
HETATM   20  C   UNK N   1      26.200  17.688   5.181  0.00  0.00     0.039 C 
BRANCH  20  21
HETATM   21  C   UNK N   1      26.944  17.028   4.035  0.00  0.00     0.041 C 
BRANCH  21  22
HETATM   22  C   UNK N   1      26.107  15.927   3.495  0.00  0.00    -0.058 A 
HETATM   23  C   UNK N   1      25.912  15.826   2.116  0.00  0.00     0.007 A 
HETATM   24  C   UNK N   1      25.089  14.825   1.596  0.00  0.00     0.001 A 
HETATM   25  C   UNK N   1      24.461  13.921   2.458  0.00  0.00     0.000 A 
HETATM   26  C   UNK N   1      24.660  14.015   3.839  0.00  0.00     0.001 A 
HETATM   27  C   UNK N   1      25.482  15.019   4.358  0.00  0.00     0.007 A 
ENDBRANCH  21  22
ENDBRANCH  20  21
ENDBRANCH  19  20
BRANCH  19  28
HETATM   28  C   UNK N   1      26.912  19.890   6.213  0.00  0.00     0.281 C 
HETATM   29  O   UNK N   1      26.454  20.929   6.664  0.00  0.00    -0.263 OA
BRANCH  28  30
HETATM   30  O   UNK N   1      28.040  19.386   6.782  0.00  0.00    -0.320 OA
BRANCH  30  31
HETATM   31  C   UNK N   1      28.156  19.060   8.113  0.00  0.00     0.174 C 
HETATM   32  C   UNK N   1      28.251  17.552   8.257  0.00  0.00     0.034 C 
ENDBRANCH  30  31
ENDBRANCH  28  30
ENDBRANCH  19  28
ENDBRANCH   1  19
TORSDOF 11
ENDMDL
MODEL 2
REMARK VINA RESULT:      -6.7      3.755      5.302
REMARK  11 active torsions:
REMARK  status: ('A' for Active; 'I' for Inactive)
REMARK    1  A    between atoms: O_2  and  C_16 
REMARK    2  A    between atoms: O_4  and  C_21 
REMARK    3  A    between atoms: O_4  and  C_26 
REMARK       I    between atoms: N_6  and  C_15 
REMARK    4  A    between atoms: C_17  and  N_7 
REMARK    5  A    between atoms: C_19  and  N_7 
REMARK    6  A    between atoms: C_13  and  C_16 
REMARK    7  A    between atoms: C_15  and  C_17 
REMARK    8  A    between atoms: C_19  and  C_20 
REMARK    9  A    between atoms: C_19  and  C_21 
REMARK   10  A    between atoms: C_20  and  C_22 
REMARK   11  A    between atoms: C_22  and  C_23 
ROOT
HETATM    1  N   UNK N   1      23.444  17.966   5.477  0.00  0.00    -0.397 N 
HETATM    2  H   UNK N   1      23.971  18.014   6.348  0.00  0.00     0.154 HD
ENDROOT
BRANCH   1   3
HETATM    3  C   UNK N   1      22.024  17.594   5.398  0.00  0.00     0.166 C 
HETATM    4  C   UNK N   1      21.236  18.311   4.312  0.00  0.00     0.042 C 
BRANCH   3   5
HETATM    5  C   UNK N   1      21.348  17.573   6.743  0.00  0.00     0.243 C 
HETATM    6  O   UNK N   1      21.069  18.658   7.233  0.00  0.00    -0.271 OA
HETATM    7  N   UNK N   1      21.035  16.427   7.439  0.00  0.00    -0.331 N 
HETATM    8  C   UNK N   1      21.292  15.062   7.037  0.00  0.00     0.092 C 
HETATM    9  C   UNK N   1      20.340  16.460   8.724  0.00  0.00     0.186 C 
HETATM   10  C   UNK N   1      21.395  14.410   8.381  0.00  0.00     0.011 C 
HETATM   11  C   UNK N   1      22.596  14.568   6.455  0.00  0.00     0.026 C 
HETATM   12  C   UNK N   1      20.218  14.976   9.132  0.00  0.00     0.043 C 
HETATM   13  C   UNK N   1      21.600  12.962   8.043  0.00  0.00     0.007 C 
HETATM   14  C   UNK N   1      22.608  13.083   6.885  0.00  0.00     0.002 C 
BRANCH   9  15
HETATM   15  C   UNK N   1      18.956  17.055   8.654  0.00  0.00     0.163 C 
HETATM   16  O   UNK N   1      18.052  16.478   8.071  0.00  0.00    -0.648 OA
BRANCH  15  17
HETATM   17  O   UNK N   1      18.711  18.234   9.257  0.00  0.00    -0.775 OA
HETATM   18  H   UNK N   1      19.406  18.695   9.684  0.00  0.00     0.167 HD
ENDBRANCH  15  17
ENDBRANCH   9  15
ENDBRANCH   3   5
ENDBRANCH   1   3
BRANCH   1  19
HETATM   19  C   UNK N   1      24.027  18.266   4.148  0.00  0.00     0.178 C 
BRANCH  19  20
HETATM   20  C   UNK N   1      24.980  17.159   3.727  0.00  0.00     0.039 C 
BRANCH  20  21
HETATM   21  C   UNK N   1      25.519  16.421   4.938  0.00  0.00     0.041 C 
BRANCH  21  22
HETATM   22  C   UNK N   1      26.926  16.838   5.164  0.00  0.00    -0.058 A 
HETATM   23  C   UNK N   1      27.773  17.019   4.068  0.00  0.00     0.007 A 
HETATM   24  C   UNK N   1      29.111  17.365   4.266  0.00  0.00     0.001 A 
HETATM   25  C   UNK N   1      29.603  17.531   5.564  0.00  0.00     0.000 A 
HETATM   26  C   UNK N   1      28.756  17.358   6.663  0.00  0.00     0.001 A 
HETATM   27  C   UNK N   1      27.418  17.009   6.464  0.00  0.00     0.007 A 
ENDBRANCH  21  22
ENDBRANCH  20  21
ENDBRANCH  19  20
BRANCH  19  28
HETATM   28  C   UNK N   1      24.664  19.654   4.036  0.00  0.00     0.281 C 
HETATM   29  O   UNK N   1      24.369  20.382   3.101  0.00  0.00    -0.263 OA
BRANCH  28  30
HETATM   30  O   UNK N   1      25.563  20.112   4.949  0.00  0.00    -0.320 OA
BRANCH  30  31
HETATM   31  C   UNK N   1      26.821  20.570   4.633  0.00  0.00     0.174 C 
HETATM   32  C   UNK N   1      27.572  20.902   5.910  0.00  0.00     0.034 C 
ENDBRANCH  30  31
ENDBRANCH  28  30
ENDBRANCH  19  28
ENDBRANCH   1  19
TORSDOF 11
ENDMDL
MODEL 3
REMARK VINA RESULT:      -6.5     10.436     13.445
REMARK  11 active torsions:
REMARK  status: ('A' for Active; 'I' for Inactive)
REMARK    1  A    between atoms: O_2  and  C_16 
REMARK    2  A    between atoms: O_4  and  C_21 
REMARK    3  A    between atoms: O_4  and  C_26 
REMARK       I    between atoms: N_6  and  C_15 
REMARK    4  A    between atoms: C_17  and  N_7 
REMARK    5  A    between atoms: C_19  and  N_7 
REMARK    6  A    between atoms: C_13  and  C_16 
REMARK    7  A    between atoms: C_15  and  C_17 
REMARK    8  A    between atoms: C_19  and  C_20 
REMARK    9  A    between atoms: C_19  and  C_21 
REMARK   10  A    between atoms: C_20  and  C_22 
REMARK   11  A    between atoms: C_22  and  C_23 
ROOT
HETATM    1  N   UNK N   1      28.207  26.360  -4.408  0.00  0.00    -0.397 N 
HETATM    2  H   UNK N   1      29.060  26.918  -4.444  0.00  0.00     0.154 HD
ENDROOT
BRANCH   1   3
HETATM    3  C   UNK N   1      28.195  24.893  -4.295  0.00  0.00     0.166 C 
HETATM    4  C   UNK N   1      27.056  24.328  -3.460  0.00  0.00     0.042 C 
BRANCH   3   5
HETATM    5  C   UNK N   1      29.548  24.319  -3.969  0.00  0.00     0.243 C 
HETATM    6  O   UNK N   1      30.264  24.986  -3.235  0.00  0.00    -0.271 OA
HETATM    7  N   UNK N   1      30.015  23.113  -4.440  0.00  0.00    -0.331 N 
HETATM    8  C   UNK N   1      29.331  22.193  -5.320  0.00  0.00     0.092 C 
HETATM    9  C   UNK N   1      31.322  22.580  -4.060  0.00  0.00     0.186 C 
HETATM   10  C   UNK N   1      30.505  21.537  -5.977  0.00  0.00     0.011 C 
HETATM   11  C   UNK N   1      28.579  22.594  -6.568  0.00  0.00     0.026 C 
HETATM   12  C   UNK N   1      31.427  21.243  -4.823  0.00  0.00     0.043 C 
HETATM   13  C   UNK N   1      29.869  20.511  -6.869  0.00  0.00     0.007 C 
HETATM   14  C   UNK N   1      28.698  21.328  -7.447  0.00  0.00     0.002 C 
BRANCH   9  15
HETATM   15  C   UNK N   1      31.461  22.304  -2.583  0.00  0.00     0.163 C 
HETATM   16  O   UNK N   1      32.391  21.639  -2.153  0.00  0.00    -0.648 OA
BRANCH  15  17
HETATM   17  O   UNK N   1      30.554  22.810  -1.726  0.00  0.00    -0.775 OA
HETATM   18  H   UNK N   1      29.647  22.601  -1.828  0.00  0.00     0.167 HD
ENDBRANCH  15  17
ENDBRANCH   9  15
ENDBRANCH   3   5
ENDBRANCH   1   3
BRANCH   1  19
HETATM   19  C   UNK N   1      26.844  26.936  -4.464  0.00  0.00     0.178 C 
BRANCH  19  20
HETATM   20  C   UNK N   1      26.561  27.490  -5.851  0.00  0.00     0.039 C 
BRANCH  20  21
HETATM   21  C   UNK N   1      25.479  26.683  -6.544  0.00  0.00     0.041 C 
BRANCH  21  22
HETATM   22  C   UNK N   1      26.099  25.898  -7.641  0.00  0.00    -0.058 A 
HETATM   23  C   UNK N   1      27.127  26.466  -8.397  0.00  0.00     0.007 A 
HETATM   24  C   UNK N   1      27.687  25.758  -9.463  0.00  0.00     0.001 A 
HETATM   25  C   UNK N   1      27.220  24.477  -9.771  0.00  0.00     0.000 A 
HETATM   26  C   UNK N   1      26.197  23.902  -9.011  0.00  0.00     0.001 A 
HETATM   27  C   UNK N   1      25.635  24.612  -7.947  0.00  0.00     0.007 A 
ENDBRANCH  21  22
ENDBRANCH  20  21
ENDBRANCH  19  20
BRANCH  19  28
HETATM   28  C   UNK N   1      26.543  27.954  -3.360  0.00  0.00     0.281 C 
HETATM   29  O   UNK N   1      25.463  27.929  -2.791  0.00  0.00    -0.263 OA
BRANCH  28  30
HETATM   30  O   UNK N   1      27.444  28.902  -2.987  0.00  0.00    -0.320 OA
BRANCH  30  31
HETATM   31  C   UNK N   1      27.155  30.243  -2.876  0.00  0.00     0.174 C 
HETATM   32  C   UNK N   1      26.897  30.819  -4.257  0.00  0.00     0.034 C 
ENDBRANCH  30  31
ENDBRANCH  28  30
ENDBRANCH  19  28
ENDBRANCH   1  19
TORSDOF 11
ENDMDL
MODEL 4
REMARK VINA RESULT:      -6.5     10.821     13.559
REMARK  11 active torsions:
REMARK  status: ('A' for Active; 'I' for Inactive)
REMARK    1  A    between atoms: O_2  and  C_16 
REMARK    2  A    between atoms: O_4  and  C_21 
REMARK    3  A    between atoms: O_4  and  C_26 
REMARK       I    between atoms: N_6  and  C_15 
REMARK    4  A    between atoms: C_17  and  N_7 
REMARK    5  A    between atoms: C_19  and  N_7 
REMARK    6  A    between atoms: C_13  and  C_16 
REMARK    7  A    between atoms: C_15  and  C_17 
REMARK    8  A    between atoms: C_19  and  C_20 
REMARK    9  A    between atoms: C_19  and  C_21 
REMARK   10  A    between atoms: C_20  and  C_22 
REMARK   11  A    between atoms: C_22  and  C_23 
ROOT
HETATM    1  N   UNK N   1      30.316  25.103  -3.285  0.00  0.00    -0.397 N 
HETATM    2  H   UNK N   1      30.240  25.367  -2.303  0.00  0.00     0.154 HD
ENDROOT
BRANCH   1   3
HETATM    3  C   UNK N   1      30.771  26.015  -4.345  0.00  0.00     0.166 C 
HETATM    4  C   UNK N   1      32.281  26.086  -4.520  0.00  0.00     0.042 C 
BRANCH   3   5
HETATM    5  C   UNK N   1      30.089  27.356  -4.297  0.00  0.00     0.243 C 
HETATM    6  O   UNK N   1      30.104  27.939  -3.222  0.00  0.00    -0.271 OA
HETATM    7  N   UNK N   1      29.463  27.950  -5.370  0.00  0.00    -0.331 N 
HETATM    8  C   UNK N   1      29.330  27.419  -6.707  0.00  0.00     0.092 C 
HETATM    9  C   UNK N   1      28.851  29.274  -5.281  0.00  0.00     0.186 C 
HETATM   10  C   UNK N   1      28.063  28.097  -7.132  0.00  0.00     0.011 C 
HETATM   11  C   UNK N   1      28.936  25.998  -7.034  0.00  0.00     0.026 C 
HETATM   12  C   UNK N   1      28.269  29.522  -6.688  0.00  0.00     0.043 C 
HETATM   13  C   UNK N   1      27.891  27.641  -8.552  0.00  0.00     0.007 C 
HETATM   14  C   UNK N   1      28.258  26.151  -8.415  0.00  0.00     0.002 C 
BRANCH   9  15
HETATM   15  C   UNK N   1      29.829  30.378  -4.964  0.00  0.00     0.163 C 
HETATM   16  O   UNK N   1      30.570  30.828  -5.824  0.00  0.00    -0.648 OA
BRANCH  15  17
HETATM   17  O   UNK N   1      29.876  30.883  -3.717  0.00  0.00    -0.775 OA
HETATM   18  H   UNK N   1      29.431  31.685  -3.519  0.00  0.00     0.167 HD
ENDBRANCH  15  17
ENDBRANCH   9  15
ENDBRANCH   3   5
ENDBRANCH   1   3
BRANCH   1  19
HETATM   19  C   UNK N   1      29.979  23.756  -3.802  0.00  0.00     0.178 C 
BRANCH  19  20
HETATM   20  C   UNK N   1      28.543  23.723  -4.299  0.00  0.00     0.039 C 
BRANCH  20  21
HETATM   21  C   UNK N   1      27.612  24.384  -3.301  0.00  0.00     0.041 C 
BRANCH  21  22
HETATM   22  C   UNK N   1      26.758  25.363  -4.021  0.00  0.00    -0.058 A 
HETATM   23  C   UNK N   1      26.587  26.645  -3.492  0.00  0.00     0.007 A 
HETATM   24  C   UNK N   1      25.750  27.561  -4.132  0.00  0.00     0.001 A 
HETATM   25  C   UNK N   1      25.083  27.195  -5.305  0.00  0.00     0.000 A 
HETATM   26  C   UNK N   1      25.257  25.915  -5.840  0.00  0.00     0.001 A 
HETATM   27  C   UNK N   1      26.093  24.998  -5.198  0.00  0.00     0.007 A 
ENDBRANCH  21  22
ENDBRANCH  20  21
ENDBRANCH  19  20
BRANCH  19  28
HETATM   28  C   UNK N   1      30.282  22.613  -2.829  0.00  0.00     0.281 C 
HETATM   29  O   UNK N   1      30.547  22.864  -1.663  0.00  0.00    -0.263 OA
BRANCH  28  30
HETATM   30  O   UNK N   1      30.274  21.310  -3.218  0.00  0.00    -0.320 OA
BRANCH  30  31
HETATM   31  C   UNK N   1      31.239  20.733  -4.011  0.00  0.00     0.174 C 
HETATM   32  C   UNK N   1      30.723  20.622  -5.434  0.00  0.00     0.034 C 
ENDBRANCH  30  31
ENDBRANCH  28  30
ENDBRANCH  19  28
ENDBRANCH   1  19
TORSDOF 11
ENDMDL
MODEL 5
REMARK VINA RESULT:      -6.4      3.758      5.054
REMARK  11 active torsions:
REMARK  status: ('A' for Active; 'I' for Inactive)
REMARK    1  A    between atoms: O_2  and  C_16 
REMARK    2  A    between atoms: O_4  and  C_21 
REMARK    3  A    between atoms: O_4  and  C_26 
REMARK       I    between atoms: N_6  and  C_15 
REMARK    4  A    between atoms: C_17  and  N_7 
REMARK    5  A    between atoms: C_19  and  N_7 
REMARK    6  A    between atoms: C_13  and  C_16 
REMARK    7  A    between atoms: C_15  and  C_17 
REMARK    8  A    between atoms: C_19  and  C_20 
REMARK    9  A    between atoms: C_19  and  C_21 
REMARK   10  A    between atoms: C_20  and  C_22 
REMARK   11  A    between atoms: C_22  and  C_23 
ROOT
HETATM    1  N   UNK N   1      23.435  17.804   5.417  0.00  0.00    -0.397 N 
HETATM    2  H   UNK N   1      23.995  17.746   6.268  0.00  0.00     0.154 HD
ENDROOT
BRANCH   1   3
HETATM    3  C   UNK N   1      21.997  17.498   5.363  0.00  0.00     0.166 C 
HETATM    4  C   UNK N   1      21.228  18.243   4.282  0.00  0.00     0.042 C 
BRANCH   3   5
HETATM    5  C   UNK N   1      21.342  17.519   6.717  0.00  0.00     0.243 C 
HETATM    6  O   UNK N   1      21.108  18.621   7.195  0.00  0.00    -0.271 OA
HETATM    7  N   UNK N   1      20.999  16.395   7.434  0.00  0.00    -0.331 N 
HETATM    8  C   UNK N   1      21.202  15.017   7.048  0.00  0.00     0.092 C 
HETATM    9  C   UNK N   1      20.325  16.470   8.728  0.00  0.00     0.186 C 
HETATM   10  C   UNK N   1      21.303  14.380   8.400  0.00  0.00     0.011 C 
HETATM   11  C   UNK N   1      22.479  14.469   6.455  0.00  0.00     0.026 C 
HETATM   12  C   UNK N   1      20.157  14.997   9.159  0.00  0.00     0.043 C 
HETATM   13  C   UNK N   1      21.452  12.920   8.080  0.00  0.00     0.007 C 
HETATM   14  C   UNK N   1      22.446  12.990   6.905  0.00  0.00     0.002 C 
BRANCH   9  15
HETATM   15  C   UNK N   1      18.962  17.112   8.670  0.00  0.00     0.163 C 
HETATM   16  O   UNK N   1      18.023  16.548   8.129  0.00  0.00    -0.648 OA
BRANCH  15  17
HETATM   17  O   UNK N   1      18.774  18.320   9.235  0.00  0.00    -0.775 OA
HETATM   18  H   UNK N   1      18.082  18.444   9.855  0.00  0.00     0.167 HD
ENDBRANCH  15  17
ENDBRANCH   9  15
ENDBRANCH   3   5
ENDBRANCH   1   3
BRANCH   1  19
HETATM   19  C   UNK N   1      23.981  18.204   4.099  0.00  0.00     0.178 C 
BRANCH  19  20
HETATM   20  C   UNK N   1      25.014  17.194   3.626  0.00  0.00     0.039 C 
BRANCH  20  21
HETATM   21  C   UNK N   1      24.600  15.783   3.999  0.00  0.00     0.041 C 
BRANCH  21  22
HETATM   22  C   UNK N   1      23.939  15.154   2.827  0.00  0.00    -0.058 A 
HETATM   23  C   UNK N   1      22.546  15.070   2.787  0.00  0.00     0.007 A 
HETATM   24  C   UNK N   1      21.912  14.440   1.714  0.00  0.00     0.001 A 
HETATM   25  C   UNK N   1      22.675  13.893   0.677  0.00  0.00     0.000 A 
HETATM   26  C   UNK N   1      24.070  13.983   0.711  0.00  0.00     0.001 A 
HETATM   27  C   UNK N   1      24.703  14.611   1.786  0.00  0.00     0.007 A 
ENDBRANCH  21  22
ENDBRANCH  20  21
ENDBRANCH  19  20
BRANCH  19  28
HETATM   28  C   UNK N   1      24.507  19.641   4.045  0.00  0.00     0.281 C 
HETATM   29  O   UNK N   1      24.088  20.407   3.190  0.00  0.00    -0.263 OA
BRANCH  28  30
HETATM   30  O   UNK N   1      25.439  20.103   4.920  0.00  0.00    -0.320 OA
BRANCH  30  31
HETATM   31  C   UNK N   1      26.748  20.367   4.589  0.00  0.00     0.174 C 
HETATM   32  C   UNK N   1      27.446  21.019   5.768  0.00  0.00     0.034 C 
ENDBRANCH  30  31
ENDBRANCH  28  30
ENDBRANCH  19  28
ENDBRANCH   1  19
TORSDOF 11
ENDMDL
MODEL 6
REMARK VINA RESULT:      -6.4      5.004      6.724
REMARK  11 active torsions:
REMARK  status: ('A' for Active; 'I' for Inactive)
REMARK    1  A    between atoms: O_2  and  C_16 
REMARK    2  A    between atoms: O_4  and  C_21 
REMARK    3  A    between atoms: O_4  and  C_26 
REMARK       I    between atoms: N_6  and  C_15 
REMARK    4  A    between atoms: C_17  and  N_7 
REMARK    5  A    between atoms: C_19  and  N_7 
REMARK    6  A    between atoms: C_13  and  C_16 
REMARK    7  A    between atoms: C_15  and  C_17 
REMARK    8  A    between atoms: C_19  and  C_20 
REMARK    9  A    between atoms: C_19  and  C_21 
REMARK   10  A    between atoms: C_20  and  C_22 
REMARK   11  A    between atoms: C_22  and  C_23 
ROOT
HETATM    1  N   UNK N   1      20.663  15.161   6.753  0.00  0.00    -0.397 N 
HETATM    2  H   UNK N   1      20.144  14.315   6.517  0.00  0.00     0.154 HD
ENDROOT
BRANCH   1   3
HETATM    3  C   UNK N   1      21.670  15.774   5.875  0.00  0.00     0.166 C 
HETATM    4  C   UNK N   1      23.066  15.864   6.473  0.00  0.00     0.042 C 
BRANCH   3   5
HETATM    5  C   UNK N   1      21.189  17.045   5.229  0.00  0.00     0.243 C 
HETATM    6  O   UNK N   1      21.035  18.010   5.965  0.00  0.00    -0.271 OA
HETATM    7  N   UNK N   1      20.918  17.181   3.886  0.00  0.00    -0.331 N 
HETATM    8  C   UNK N   1      21.026  16.163   2.865  0.00  0.00     0.092 C 
HETATM    9  C   UNK N   1      20.492  18.450   3.300  0.00  0.00     0.186 C 
HETATM   10  C   UNK N   1      19.999  16.658   1.893  0.00  0.00     0.011 C 
HETATM   11  C   UNK N   1      20.524  14.745   3.007  0.00  0.00     0.026 C 
HETATM   12  C   UNK N   1      20.292  18.133   1.803  0.00  0.00     0.043 C 
HETATM   13  C   UNK N   1      20.099  15.678   0.761  0.00  0.00     0.007 C 
HETATM   14  C   UNK N   1      20.214  14.356   1.543  0.00  0.00     0.002 C 
BRANCH   9  15
HETATM   15  C   UNK N   1      21.514  19.553   3.426  0.00  0.00     0.163 C 
HETATM   16  O   UNK N   1      21.178  20.727   3.402  0.00  0.00    -0.648 OA
BRANCH  15  17
HETATM   17  O   UNK N   1      22.813  19.237   3.581  0.00  0.00    -0.775 OA
HETATM   18  H   UNK N   1      23.474  19.758   3.168  0.00  0.00     0.167 HD
ENDBRANCH  15  17
ENDBRANCH   9  15
ENDBRANCH   3   5
ENDBRANCH   1   3
BRANCH   1  19
HETATM   19  C   UNK N   1      20.483  15.907   8.020  0.00  0.00     0.178 C 
BRANCH  19  20
HETATM   20  C   UNK N   1      20.856  15.032   9.207  0.00  0.00     0.039 C 
BRANCH  20  21
HETATM   21  C   UNK N   1      21.122  13.606   8.763  0.00  0.00     0.041 C 
BRANCH  21  22
HETATM   22  C   UNK N   1      22.243  13.058   9.568  0.00  0.00    -0.058 A 
HETATM   23  C   UNK N   1      21.969  12.412  10.776  0.00  0.00     0.007 A 
HETATM   24  C   UNK N   1      23.015  11.934  11.568  0.00  0.00     0.001 A 
HETATM   25  C   UNK N   1      24.339  12.099  11.149  0.00  0.00     0.000 A 
HETATM   26  C   UNK N   1      24.616  12.738   9.936  0.00  0.00     0.001 A 
HETATM   27  C   UNK N   1      23.569  13.219   9.146  0.00  0.00     0.007 A 
ENDBRANCH  21  22
ENDBRANCH  20  21
ENDBRANCH  19  20
BRANCH  19  28
HETATM   28  C   UNK N   1      19.103  16.549   8.184  0.00  0.00     0.281 C 
HETATM   29  O   UNK N   1      18.232  16.334   7.355  0.00  0.00    -0.263 OA
BRANCH  28  30
HETATM   30  O   UNK N   1      18.806  17.367   9.229  0.00  0.00    -0.320 OA
BRANCH  30  31
HETATM   31  C   UNK N   1      17.531  17.603   9.689  0.00  0.00     0.174 C 
HETATM   32  C   UNK N   1      17.578  18.636  10.801  0.00  0.00     0.034 C 
ENDBRANCH  30  31
ENDBRANCH  28  30
ENDBRANCH  19  28
ENDBRANCH   1  19
TORSDOF 11
ENDMDL
MODEL 7
REMARK VINA RESULT:      -6.3      6.187      9.577
REMARK  11 active torsions:
REMARK  status: ('A' for Active; 'I' for Inactive)
REMARK    1  A    between atoms: O_2  and  C_16 
REMARK    2  A    between atoms: O_4  and  C_21 
REMARK    3  A    between atoms: O_4  and  C_26 
REMARK       I    between atoms: N_6  and  C_15 
REMARK    4  A    between atoms: C_17  and  N_7 
REMARK    5  A    between atoms: C_19  and  N_7 
REMARK    6  A    between atoms: C_13  and  C_16 
REMARK    7  A    between atoms: C_15  and  C_17 
REMARK    8  A    between atoms: C_19  and  C_20 
REMARK    9  A    between atoms: C_19  and  C_21 
REMARK   10  A    between atoms: C_20  and  C_22 
REMARK   11  A    between atoms: C_22  and  C_23 
ROOT
HETATM    1  N   UNK N   1      32.938  16.072   9.191  0.00  0.00    -0.397 N 
HETATM    2  H   UNK N   1      32.406  15.519   9.864  0.00  0.00     0.154 HD
ENDROOT
BRANCH   1   3
HETATM    3  C   UNK N   1      32.323  16.963   8.197  0.00  0.00     0.166 C 
HETATM    4  C   UNK N   1      32.968  18.337   8.087  0.00  0.00     0.042 C 
BRANCH   3   5
HETATM    5  C   UNK N   1      30.821  16.989   8.282  0.00  0.00     0.243 C 
HETATM    6  O   UNK N   1      30.334  16.905   9.401  0.00  0.00    -0.271 OA
HETATM    7  N   UNK N   1      29.982  17.099   7.195  0.00  0.00    -0.331 N 
HETATM    8  C   UNK N   1      30.361  17.196   5.804  0.00  0.00     0.092 C 
HETATM    9  C   UNK N   1      28.528  17.161   7.335  0.00  0.00     0.186 C 
HETATM   10  C   UNK N   1      29.149  16.596   5.161  0.00  0.00     0.011 C 
HETATM   11  C   UNK N   1      31.409  16.337   5.136  0.00  0.00     0.026 C 
HETATM   12  C   UNK N   1      28.008  17.261   5.886  0.00  0.00     0.043 C 
HETATM   13  C   UNK N   1      29.442  16.723   3.694  0.00  0.00     0.007 C 
HETATM   14  C   UNK N   1      30.925  16.307   3.667  0.00  0.00     0.002 C 
BRANCH   9  15
HETATM   15  C   UNK N   1      28.041  18.362   8.106  0.00  0.00     0.163 C 
HETATM   16  O   UNK N   1      28.071  19.479   7.614  0.00  0.00    -0.648 OA
BRANCH  15  17
HETATM   17  O   UNK N   1      27.553  18.197   9.350  0.00  0.00    -0.775 OA
HETATM   18  H   UNK N   1      27.635  17.368   9.779  0.00  0.00     0.167 HD
ENDBRANCH  15  17
ENDBRANCH   9  15
ENDBRANCH   3   5
ENDBRANCH   1   3
BRANCH   1  19
HETATM   19  C   UNK N   1      34.417  16.063   9.109  0.00  0.00     0.178 C 
BRANCH  19  20
HETATM   20  C   UNK N   1      34.901  14.802   8.412  0.00  0.00     0.039 C 
BRANCH  20  21
HETATM   21  C   UNK N   1      35.357  15.109   6.998  0.00  0.00     0.041 C 
BRANCH  21  22
HETATM   22  C   UNK N   1      34.476  14.386   6.045  0.00  0.00    -0.058 A 
HETATM   23  C   UNK N   1      33.459  13.566   6.538  0.00  0.00     0.007 A 
HETATM   24  C   UNK N   1      32.653  12.843   5.656  0.00  0.00     0.001 A 
HETATM   25  C   UNK N   1      32.865  12.941   4.278  0.00  0.00     0.000 A 
HETATM   26  C   UNK N   1      33.878  13.766   3.781  0.00  0.00     0.001 A 
HETATM   27  C   UNK N   1      34.686  14.488   4.664  0.00  0.00     0.007 A 
ENDBRANCH  21  22
ENDBRANCH  20  21
ENDBRANCH  19  20
BRANCH  19  28
HETATM   28  C   UNK N   1      35.124  16.294  10.448  0.00  0.00     0.281 C 
HETATM   29  O   UNK N   1      35.883  17.242  10.577  0.00  0.00    -0.263 OA
BRANCH  28  30
HETATM   30  O   UNK N   1      34.943  15.468  11.513  0.00  0.00    -0.320 OA
BRANCH  30  31
HETATM   31  C   UNK N   1      35.957  15.016  12.324  0.00  0.00     0.174 C 
HETATM   32  C   UNK N   1      36.572  13.768  11.718  0.00  0.00     0.034 C 
ENDBRANCH  30  31
ENDBRANCH  28  30
ENDBRANCH  19  28
ENDBRANCH   1  19
TORSDOF 11
ENDMDL
MODEL 8
REMARK VINA RESULT:      -6.3     13.293     16.793
REMARK  11 active torsions:
REMARK  status: ('A' for Active; 'I' for Inactive)
REMARK    1  A    between atoms: O_2  and  C_16 
REMARK    2  A    between atoms: O_4  and  C_21 
REMARK    3  A    between atoms: O_4  and  C_26 
REMARK       I    between atoms: N_6  and  C_15 
REMARK    4  A    between atoms: C_17  and  N_7 
REMARK    5  A    between atoms: C_19  and  N_7 
REMARK    6  A    between atoms: C_13  and  C_16 
REMARK    7  A    between atoms: C_15  and  C_17 
REMARK    8  A    between atoms: C_19  and  C_20 
REMARK    9  A    between atoms: C_19  and  C_21 
REMARK   10  A    between atoms: C_20  and  C_22 
REMARK   11  A    between atoms: C_22  and  C_23 
ROOT
HETATM    1  N   UNK N   1      34.837  11.661  13.502  0.00  0.00    -0.397 N 
HETATM    2  H   UNK N   1      33.889  11.305  13.387  0.00  0.00     0.154 HD
ENDROOT
BRANCH   1   3
HETATM    3  C   UNK N   1      35.690  12.093  12.385  0.00  0.00     0.166 C 
HETATM    4  C   UNK N   1      37.185  12.009  12.655  0.00  0.00     0.042 C 
BRANCH   3   5
HETATM    5  C   UNK N   1      35.242  13.394  11.774  0.00  0.00     0.243 C 
HETATM    6  O   UNK N   1      34.720  14.202  12.529  0.00  0.00    -0.271 OA
HETATM    7  N   UNK N   1      35.383  13.718  10.444  0.00  0.00    -0.331 N 
HETATM    8  C   UNK N   1      35.957  12.899   9.400  0.00  0.00     0.092 C 
HETATM    9  C   UNK N   1      34.968  15.013   9.908  0.00  0.00     0.186 C 
HETATM   10  C   UNK N   1      35.218  13.434   8.212  0.00  0.00     0.011 C 
HETATM   11  C   UNK N   1      35.662  11.431   9.197  0.00  0.00     0.026 C 
HETATM   12  C   UNK N   1      35.293  14.926   8.402  0.00  0.00     0.043 C 
HETATM   13  C   UNK N   1      35.814  12.669   7.066  0.00  0.00     0.007 C 
HETATM   14  C   UNK N   1      35.884  11.256   7.677  0.00  0.00     0.002 C 
BRANCH   9  15
HETATM   15  C   UNK N   1      35.717  16.183  10.495  0.00  0.00     0.163 C 
HETATM   16  O   UNK N   1      35.143  17.228  10.761  0.00  0.00    -0.648 OA
BRANCH  15  17
HETATM   17  O   UNK N   1      37.036  16.069  10.743  0.00  0.00    -0.775 OA
HETATM   18  H   UNK N   1      37.651  16.134  10.039  0.00  0.00     0.167 HD
ENDBRANCH  15  17
ENDBRANCH   9  15
ENDBRANCH   3   5
ENDBRANCH   1   3
BRANCH   1  19
HETATM   19  C   UNK N   1      35.508  11.800  14.816  0.00  0.00     0.178 C 
BRANCH  19  20
HETATM   20  C   UNK N   1      35.489  10.476  15.562  0.00  0.00     0.039 C 
BRANCH  20  21
HETATM   21  C   UNK N   1      36.357  10.544  16.804  0.00  0.00     0.041 C 
BRANCH  21  22
HETATM   22  C   UNK N   1      35.512  10.266  17.993  0.00  0.00    -0.058 A 
HETATM   23  C   UNK N   1      35.715  10.994  19.167  0.00  0.00     0.007 A 
HETATM   24  C   UNK N   1      34.961  10.712  20.307  0.00  0.00     0.001 A 
HETATM   25  C   UNK N   1      33.998   9.698  20.273  0.00  0.00     0.000 A 
HETATM   26  C   UNK N   1      33.787   8.972  19.097  0.00  0.00     0.001 A 
HETATM   27  C   UNK N   1      34.544   9.253  17.957  0.00  0.00     0.007 A 
ENDBRANCH  21  22
ENDBRANCH  20  21
ENDBRANCH  19  20
BRANCH  19  28
HETATM   28  C   UNK N   1      34.984  12.956  15.672  0.00  0.00     0.281 C 
HETATM   29  O   UNK N   1      33.811  12.973  16.014  0.00  0.00    -0.263 OA
BRANCH  28  30
HETATM   30  O   UNK N   1      35.783  13.983  16.069  0.00  0.00    -0.320 OA
BRANCH  30  31
HETATM   31  C   UNK N   1      36.995  14.286  15.494  0.00  0.00     0.174 C 
HETATM   32  C   UNK N   1      37.500  15.606  16.048  0.00  0.00     0.034 C 
ENDBRANCH  30  31
ENDBRANCH  28  30
ENDBRANCH  19  28
ENDBRANCH   1  19
TORSDOF 11
ENDMDL
MODEL 9
REMARK VINA RESULT:      -6.2      4.971      7.318
REMARK  11 active torsions:
REMARK  status: ('A' for Active; 'I' for Inactive)
REMARK    1  A    between atoms: O_2  and  C_16 
REMARK    2  A    between atoms: O_4  and  C_21 
REMARK    3  A    between atoms: O_4  and  C_26 
REMARK       I    between atoms: N_6  and  C_15 
REMARK    4  A    between atoms: C_17  and  N_7 
REMARK    5  A    between atoms: C_19  and  N_7 
REMARK    6  A    between atoms: C_13  and  C_16 
REMARK    7  A    between atoms: C_15  and  C_17 
REMARK    8  A    between atoms: C_19  and  C_20 
REMARK    9  A    between atoms: C_19  and  C_21 
REMARK   10  A    between atoms: C_20  and  C_22 
REMARK   11  A    between atoms: C_22  and  C_23 
ROOT
HETATM    1  N   UNK N   1      25.917  15.614   7.027  0.00  0.00    -0.397 N 
HETATM    2  H   UNK N   1      26.019  16.246   7.821  0.00  0.00     0.154 HD
ENDROOT
BRANCH   1   3
HETATM    3  C   UNK N   1      25.165  14.351   7.080  0.00  0.00     0.166 C 
HETATM    4  C   UNK N   1      25.450  13.391   5.935  0.00  0.00     0.042 C 
BRANCH   3   5
HETATM    5  C   UNK N   1      23.702  14.551   7.372  0.00  0.00     0.243 C 
HETATM    6  O   UNK N   1      23.121  15.395   6.704  0.00  0.00    -0.271 OA
HETATM    7  N   UNK N   1      22.996  13.854   8.327  0.00  0.00    -0.331 N 
HETATM    8  C   UNK N   1      23.502  12.835   9.218  0.00  0.00     0.092 C 
HETATM    9  C   UNK N   1      21.565  14.058   8.543  0.00  0.00     0.186 C 
HETATM   10  C   UNK N   1      22.557  13.000  10.368  0.00  0.00     0.011 C 
HETATM   11  C   UNK N   1      24.799  12.932   9.988  0.00  0.00     0.026 C 
HETATM   12  C   UNK N   1      21.211  13.096   9.697  0.00  0.00     0.043 C 
HETATM   13  C   UNK N   1      22.982  11.919  11.318  0.00  0.00     0.007 C 
HETATM   14  C   UNK N   1      24.515  12.052  11.227  0.00  0.00     0.002 C 
BRANCH   9  15
HETATM   15  C   UNK N   1      20.713  13.709   7.348  0.00  0.00     0.163 C 
HETATM   16  O   UNK N   1      20.006  14.549   6.814  0.00  0.00    -0.648 OA
BRANCH  15  17
HETATM   17  O   UNK N   1      20.744  12.457   6.855  0.00  0.00    -0.775 OA
HETATM   18  H   UNK N   1      20.087  12.176   6.248  0.00  0.00     0.167 HD
ENDBRANCH  15  17
ENDBRANCH   9  15
ENDBRANCH   3   5
ENDBRANCH   1   3
BRANCH   1  19
HETATM   19  C   UNK N   1      26.509  15.866   5.693  0.00  0.00     0.178 C 
BRANCH  19  20
HETATM   20  C   UNK N   1      27.997  16.153   5.821  0.00  0.00     0.039 C 
BRANCH  20  21
HETATM   21  C   UNK N   1      28.289  16.930   7.091  0.00  0.00     0.041 C 
BRANCH  21  22
HETATM   22  C   UNK N   1      29.751  17.178   7.172  0.00  0.00    -0.058 A 
HETATM   23  C   UNK N   1      30.548  16.965   6.045  0.00  0.00     0.007 A 
HETATM   24  C   UNK N   1      31.930  17.148   6.119  0.00  0.00     0.001 A 
HETATM   25  C   UNK N   1      32.518  17.545   7.324  0.00  0.00     0.000 A 
HETATM   26  C   UNK N   1      31.722  17.766   8.452  0.00  0.00     0.001 A 
HETATM   27  C   UNK N   1      30.339  17.581   8.378  0.00  0.00     0.007 A 
ENDBRANCH  21  22
ENDBRANCH  20  21
ENDBRANCH  19  20
BRANCH  19  28
HETATM   28  C   UNK N   1      25.781  16.933   4.871  0.00  0.00     0.281 C 
HETATM   29  O   UNK N   1      24.902  16.601   4.091  0.00  0.00    -0.263 OA
BRANCH  28  30
HETATM   30  O   UNK N   1      26.083  18.255   4.973  0.00  0.00    -0.320 OA
BRANCH  30  31
HETATM   31  C   UNK N   1      26.582  19.017   3.942  0.00  0.00     0.174 C 
HETATM   32  C   UNK N   1      27.776  19.815   4.435  0.00  0.00     0.034 C 
ENDBRANCH  30  31
ENDBRANCH  28  30
ENDBRANCH  19  28
ENDBRANCH   1  19
TORSDOF 11
ENDMDL
