MODEL 1
REMARK VINA RESULT:      -7.1      0.000      0.000
REMARK  9 active torsions:
REMARK  status: ('A' for Active; 'I' for Inactive)
REMARK    1  A    between atoms: O_1  and  C_17 
REMARK    2  A    between atoms: O_2  and  C_18 
REMARK    3  A    between atoms: O_3  and  C_21 
REMARK    4  A    between atoms: O_4  and  C_22 
REMARK    5  A    between atoms: C_5  and  C_6 
REMARK    6  A    between atoms: C_5  and  C_7 
REMARK    7  A    between atoms: C_6  and  C_8 
REMARK    8  A    between atoms: C_7  and  C_11 
REMARK    9  A    between atoms: C_8  and  C_12 
ROOT
HETATM    1  C   UNK N   1      28.456  23.435  -6.404  0.00  0.00    -0.011 C 
HETATM    2  C   UNK N   1      29.298  24.238  -7.387  0.00  0.00     0.010 C 
ENDROOT
BRANCH   1   3
HETATM    3  C   UNK N   1      27.019  23.310  -6.953  0.00  0.00    -0.011 C 
HETATM    4  C   UNK N   1      26.789  21.883  -7.436  0.00  0.00     0.010 C 
BRANCH   3   5
HETATM    5  C   UNK N   1      25.992  23.661  -5.861  0.00  0.00     0.043 C 
BRANCH   5   6
HETATM    6  C   UNK N   1      25.957  25.090  -5.373  0.00  0.00    -0.055 A 
HETATM    7  C   UNK N   1      26.198  25.350  -4.017  0.00  0.00     0.046 A 
HETATM    8  C   UNK N   1      26.052  26.646  -3.505  0.00  0.00     0.099 A 
HETATM    9  C   UNK N   1      25.659  27.692  -4.353  0.00  0.00     0.098 A 
HETATM   10  C   UNK N   1      25.423  27.439  -5.705  0.00  0.00     0.040 A 
HETATM   11  C   UNK N   1      25.560  26.143  -6.211  0.00  0.00     0.010 A 
BRANCH   8  12
HETATM   12  O   UNK N   1      26.274  26.879  -2.200  0.00  0.00    -0.358 OA
HETATM   13  H   UNK N   1      25.552  26.962  -1.609  0.00  0.00     0.217 HD
ENDBRANCH   8  12
BRANCH   9  14
HETATM   14  O   UNK N   1      25.500  28.936  -3.869  0.00  0.00    -0.358 OA
HETATM   15  H   UNK N   1      24.763  29.454  -4.129  0.00  0.00     0.217 HD
ENDBRANCH   9  14
ENDBRANCH   5   6
ENDBRANCH   3   5
ENDBRANCH   1   3
BRANCH   1  16
HETATM   16  C   UNK N   1      29.078  22.040  -6.205  0.00  0.00     0.043 C 
BRANCH  16  17
HETATM   17  C   UNK N   1      30.119  21.894  -5.120  0.00  0.00    -0.055 A 
HETATM   18  C   UNK N   1      29.931  22.565  -3.903  0.00  0.00     0.046 A 
HETATM   19  C   UNK N   1      30.808  22.350  -2.830  0.00  0.00     0.099 A 
HETATM   20  C   UNK N   1      31.877  21.456  -2.971  0.00  0.00     0.098 A 
HETATM   21  C   UNK N   1      32.071  20.788  -4.182  0.00  0.00     0.040 A 
HETATM   22  C   UNK N   1      31.190  20.997  -5.247  0.00  0.00     0.010 A 
BRANCH  19  23
HETATM   23  O   UNK N   1      30.608  22.991  -1.666  0.00  0.00    -0.358 OA
HETATM   24  H   UNK N   1      30.618  22.515  -0.860  0.00  0.00     0.217 HD
ENDBRANCH  19  23
BRANCH  20  25
HETATM   25  O   UNK N   1      32.714  21.229  -1.943  0.00  0.00    -0.358 OA
HETATM   26  H   UNK N   1      32.396  21.242  -1.062  0.00  0.00     0.217 HD
ENDBRANCH  20  25
ENDBRANCH  16  17
ENDBRANCH   1  16
TORSDOF 9
ENDMDL
MODEL 2
REMARK VINA RESULT:      -6.8      0.828      6.451
REMARK  9 active torsions:
REMARK  status: ('A' for Active; 'I' for Inactive)
REMARK    1  A    between atoms: O_1  and  C_17 
REMARK    2  A    between atoms: O_2  and  C_18 
REMARK    3  A    between atoms: O_3  and  C_21 
REMARK    4  A    between atoms: O_4  and  C_22 
REMARK    5  A    between atoms: C_5  and  C_6 
REMARK    6  A    between atoms: C_5  and  C_7 
REMARK    7  A    between atoms: C_6  and  C_8 
REMARK    8  A    between atoms: C_7  and  C_11 
REMARK    9  A    between atoms: C_8  and  C_12 
ROOT
HETATM    1  C   UNK N   1      26.516  22.712  -6.712  0.00  0.00    -0.011 C 
HETATM    2  C   UNK N   1      25.426  21.961  -7.466  0.00  0.00     0.010 C 
ENDROOT
BRANCH   1   3
HETATM    3  C   UNK N   1      27.880  22.049  -7.001  0.00  0.00    -0.011 C 
HETATM    4  C   UNK N   1      28.038  21.865  -8.506  0.00  0.00     0.010 C 
BRANCH   3   5
HETATM    5  C   UNK N   1      29.028  22.919  -6.459  0.00  0.00     0.043 C 
BRANCH   5   6
HETATM    6  C   UNK N   1      29.810  22.385  -5.283  0.00  0.00    -0.055 A 
HETATM    7  C   UNK N   1      29.818  23.113  -4.086  0.00  0.00     0.046 A 
HETATM    8  C   UNK N   1      30.630  22.714  -3.016  0.00  0.00     0.099 A 
HETATM    9  C   UNK N   1      31.444  21.580  -3.142  0.00  0.00     0.098 A 
HETATM   10  C   UNK N   1      31.437  20.848  -4.332  0.00  0.00     0.040 A 
HETATM   11  C   UNK N   1      30.632  21.254  -5.400  0.00  0.00     0.010 A 
BRANCH   8  12
HETATM   12  O   UNK N   1      30.636  23.430  -1.878  0.00  0.00    -0.358 OA
HETATM   13  H   UNK N   1      31.244  24.134  -1.771  0.00  0.00     0.217 HD
ENDBRANCH   8  12
BRANCH   9  14
HETATM   14  O   UNK N   1      32.240  21.197  -2.129  0.00  0.00    -0.358 OA
HETATM   15  H   UNK N   1      32.905  20.551  -2.267  0.00  0.00     0.217 HD
ENDBRANCH   9  14
ENDBRANCH   5   6
ENDBRANCH   3   5
ENDBRANCH   1   3
BRANCH   1  16
HETATM   16  C   UNK N   1      26.531  24.187  -7.153  0.00  0.00     0.043 C 
BRANCH  16  17
HETATM   17  C   UNK N   1      26.110  25.219  -6.133  0.00  0.00    -0.055 A 
HETATM   18  C   UNK N   1      26.443  25.020  -4.786  0.00  0.00     0.046 A 
HETATM   19  C   UNK N   1      26.183  26.017  -3.835  0.00  0.00     0.099 A 
HETATM   20  C   UNK N   1      25.589  27.223  -4.231  0.00  0.00     0.098 A 
HETATM   21  C   UNK N   1      25.251  27.424  -5.571  0.00  0.00     0.040 A 
HETATM   22  C   UNK N   1      25.521  26.433  -6.519  0.00  0.00     0.010 A 
BRANCH  19  23
HETATM   23  O   UNK N   1      26.519  25.817  -2.549  0.00  0.00    -0.358 OA
HETATM   24  H   UNK N   1      26.839  26.529  -2.031  0.00  0.00     0.217 HD
ENDBRANCH  19  23
BRANCH  20  25
HETATM   25  O   UNK N   1      25.350  28.192  -3.331  0.00  0.00    -0.358 OA
HETATM   26  H   UNK N   1      24.685  28.833  -3.491  0.00  0.00     0.217 HD
ENDBRANCH  20  25
ENDBRANCH  16  17
ENDBRANCH   1  16
TORSDOF 9
ENDMDL
MODEL 3
REMARK VINA RESULT:      -6.7     24.212     26.969
REMARK  9 active torsions:
REMARK  status: ('A' for Active; 'I' for Inactive)
REMARK    1  A    between atoms: O_1  and  C_17 
REMARK    2  A    between atoms: O_2  and  C_18 
REMARK    3  A    between atoms: O_3  and  C_21 
REMARK    4  A    between atoms: O_4  and  C_22 
REMARK    5  A    between atoms: C_5  and  C_6 
REMARK    6  A    between atoms: C_5  and  C_7 
REMARK    7  A    between atoms: C_6  and  C_8 
REMARK    8  A    between atoms: C_7  and  C_11 
REMARK    9  A    between atoms: C_8  and  C_12 
ROOT
HETATM    1  C   UNK N   1      34.659  10.610  15.556  0.00  0.00    -0.011 C 
HETATM    2  C   UNK N   1      33.495  10.724  14.579  0.00  0.00     0.010 C 
ENDROOT
BRANCH   1   3
HETATM    3  C   UNK N   1      35.218   9.172  15.512  0.00  0.00    -0.011 C 
HETATM    4  C   UNK N   1      36.115   9.021  14.290  0.00  0.00     0.010 C 
BRANCH   3   5
HETATM    5  C   UNK N   1      36.021   8.865  16.789  0.00  0.00     0.043 C 
BRANCH   5   6
HETATM    6  C   UNK N   1      35.469   9.379  18.097  0.00  0.00    -0.055 A 
HETATM    7  C   UNK N   1      36.287  10.168  18.917  0.00  0.00     0.046 A 
HETATM    8  C   UNK N   1      35.853  10.557  20.191  0.00  0.00     0.099 A 
HETATM    9  C   UNK N   1      34.593  10.154  20.654  0.00  0.00     0.098 A 
HETATM   10  C   UNK N   1      33.771   9.371  19.839  0.00  0.00     0.040 A 
HETATM   11  C   UNK N   1      34.211   8.977  18.572  0.00  0.00     0.010 A 
BRANCH   8  12
HETATM   12  O   UNK N   1      36.654  11.304  20.972  0.00  0.00    -0.358 OA
HETATM   13  H   UNK N   1      36.892  12.170  20.705  0.00  0.00     0.217 HD
ENDBRANCH   8  12
BRANCH   9  14
HETATM   14  O   UNK N   1      34.173  10.507  21.881  0.00  0.00    -0.358 OA
HETATM   15  H   UNK N   1      33.258  10.510  22.086  0.00  0.00     0.217 HD
ENDBRANCH   9  14
ENDBRANCH   5   6
ENDBRANCH   3   5
ENDBRANCH   1   3
BRANCH   1  16
HETATM   16  C   UNK N   1      35.755  11.624  15.179  0.00  0.00     0.043 C 
BRANCH  16  17
HETATM   17  C   UNK N   1      35.950  12.807  16.098  0.00  0.00    -0.055 A 
HETATM   18  C   UNK N   1      36.815  13.838  15.706  0.00  0.00     0.046 A 
HETATM   19  C   UNK N   1      36.920  15.009  16.471  0.00  0.00     0.099 A 
HETATM   20  C   UNK N   1      36.153  15.152  17.635  0.00  0.00     0.098 A 
HETATM   21  C   UNK N   1      35.293  14.127  18.032  0.00  0.00     0.040 A 
HETATM   22  C   UNK N   1      35.183  12.965  17.262  0.00  0.00     0.010 A 
BRANCH  19  23
HETATM   23  O   UNK N   1      37.744  15.994  16.075  0.00  0.00    -0.358 OA
HETATM   24  H   UNK N   1      37.474  16.590  15.405  0.00  0.00     0.217 HD
ENDBRANCH  19  23
BRANCH  20  25
HETATM   25  O   UNK N   1      36.232  16.277  18.367  0.00  0.00    -0.358 OA
HETATM   26  H   UNK N   1      37.044  16.529  18.761  0.00  0.00     0.217 HD
ENDBRANCH  20  25
ENDBRANCH  16  17
ENDBRANCH   1  16
TORSDOF 9
ENDMDL
MODEL 4
REMARK VINA RESULT:      -6.6     19.895     23.913
REMARK  9 active torsions:
REMARK  status: ('A' for Active; 'I' for Inactive)
REMARK    1  A    between atoms: O_1  and  C_17 
REMARK    2  A    between atoms: O_2  and  C_18 
REMARK    3  A    between atoms: O_3  and  C_21 
REMARK    4  A    between atoms: O_4  and  C_22 
REMARK    5  A    between atoms: C_5  and  C_6 
REMARK    6  A    between atoms: C_5  and  C_7 
REMARK    7  A    between atoms: C_6  and  C_8 
REMARK    8  A    between atoms: C_7  and  C_11 
REMARK    9  A    between atoms: C_8  and  C_12 
ROOT
HETATM    1  C   UNK N   1      36.163  12.130  13.448  0.00  0.00    -0.011 C 
HETATM    2  C   UNK N   1      37.514  11.569  13.873  0.00  0.00     0.010 C 
ENDROOT
BRANCH   1   3
HETATM    3  C   UNK N   1      35.104  11.758  14.508  0.00  0.00    -0.011 C 
HETATM    4  C   UNK N   1      34.112  10.773  13.901  0.00  0.00     0.010 C 
BRANCH   3   5
HETATM    5  C   UNK N   1      35.776  11.127  15.742  0.00  0.00     0.043 C 
BRANCH   5   6
HETATM    6  C   UNK N   1      35.589  11.826  17.067  0.00  0.00    -0.055 A 
HETATM    7  C   UNK N   1      35.599  11.064  18.243  0.00  0.00     0.046 A 
HETATM    8  C   UNK N   1      35.306  11.659  19.478  0.00  0.00     0.099 A 
HETATM    9  C   UNK N   1      34.997  13.025  19.540  0.00  0.00     0.098 A 
HETATM   10  C   UNK N   1      34.990  13.790  18.371  0.00  0.00     0.040 A 
HETATM   11  C   UNK N   1      35.274  13.192  17.140  0.00  0.00     0.010 A 
BRANCH   8  12
HETATM   12  O   UNK N   1      35.307  10.913  20.597  0.00  0.00    -0.358 OA
HETATM   13  H   UNK N   1      36.112  10.564  20.926  0.00  0.00     0.217 HD
ENDBRANCH   8  12
BRANCH   9  14
HETATM   14  O   UNK N   1      34.698  13.603  20.716  0.00  0.00    -0.358 OA
HETATM   15  H   UNK N   1      33.984  14.208  20.779  0.00  0.00     0.217 HD
ENDBRANCH   9  14
ENDBRANCH   5   6
ENDBRANCH   3   5
ENDBRANCH   1   3
BRANCH   1  16
HETATM   16  C   UNK N   1      36.259  13.660  13.298  0.00  0.00     0.043 C 
BRANCH  16  17
HETATM   17  C   UNK N   1      35.595  14.281  12.092  0.00  0.00    -0.055 A 
HETATM   18  C   UNK N   1      35.825  15.634  11.809  0.00  0.00     0.046 A 
HETATM   19  C   UNK N   1      35.331  16.209  10.629  0.00  0.00     0.099 A 
HETATM   20  C   UNK N   1      34.604  15.426   9.723  0.00  0.00     0.098 A 
HETATM   21  C   UNK N   1      34.368  14.078  10.001  0.00  0.00     0.040 A 
HETATM   22  C   UNK N   1      34.870  13.506  11.174  0.00  0.00     0.010 A 
BRANCH  19  23
HETATM   23  O   UNK N   1      35.571  17.505  10.366  0.00  0.00    -0.358 OA
HETATM   24  H   UNK N   1      34.993  17.986   9.807  0.00  0.00     0.217 HD
ENDBRANCH  19  23
BRANCH  20  25
HETATM   25  O   UNK N   1      34.140  15.962   8.580  0.00  0.00    -0.358 OA
HETATM   26  H   UNK N   1      34.661  15.941   7.802  0.00  0.00     0.217 HD
ENDBRANCH  20  25
ENDBRANCH  16  17
ENDBRANCH   1  16
TORSDOF 9
ENDMDL
MODEL 5
REMARK VINA RESULT:      -6.6     11.092     14.517
REMARK  9 active torsions:
REMARK  status: ('A' for Active; 'I' for Inactive)
REMARK    1  A    between atoms: O_1  and  C_17 
REMARK    2  A    between atoms: O_2  and  C_18 
REMARK    3  A    between atoms: O_3  and  C_21 
REMARK    4  A    between atoms: O_4  and  C_22 
REMARK    5  A    between atoms: C_5  and  C_6 
REMARK    6  A    between atoms: C_5  and  C_7 
REMARK    7  A    between atoms: C_6  and  C_8 
REMARK    8  A    between atoms: C_7  and  C_11 
REMARK    9  A    between atoms: C_8  and  C_12 
ROOT
HETATM    1  C   UNK N   1      29.433  16.180   4.770  0.00  0.00    -0.011 C 
HETATM    2  C   UNK N   1      28.950  15.383   3.564  0.00  0.00     0.010 C 
ENDROOT
BRANCH   1   3
HETATM    3  C   UNK N   1      30.822  15.658   5.197  0.00  0.00    -0.011 C 
HETATM    4  C   UNK N   1      31.357  14.721   4.121  0.00  0.00     0.010 C 
BRANCH   3   5
HETATM    5  C   UNK N   1      31.799  16.830   5.399  0.00  0.00     0.043 C 
BRANCH   5   6
HETATM    6  C   UNK N   1      32.477  16.945   6.744  0.00  0.00    -0.055 A 
HETATM    7  C   UNK N   1      33.383  17.992   6.960  0.00  0.00     0.046 A 
HETATM    8  C   UNK N   1      34.123  18.059   8.148  0.00  0.00     0.099 A 
HETATM    9  C   UNK N   1      33.959  17.070   9.129  0.00  0.00     0.098 A 
HETATM   10  C   UNK N   1      33.054  16.027   8.921  0.00  0.00     0.040 A 
HETATM   11  C   UNK N   1      32.325  15.959   7.730  0.00  0.00     0.010 A 
BRANCH   8  12
HETATM   12  O   UNK N   1      34.997  19.062   8.337  0.00  0.00    -0.358 OA
HETATM   13  H   UNK N   1      35.456  19.427   7.607  0.00  0.00     0.217 HD
ENDBRANCH   8  12
BRANCH   9  14
HETATM   14  O   UNK N   1      34.676  17.114  10.266  0.00  0.00    -0.358 OA
HETATM   15  H   UNK N   1      35.611  17.052  10.239  0.00  0.00     0.217 HD
ENDBRANCH   9  14
ENDBRANCH   5   6
ENDBRANCH   3   5
ENDBRANCH   1   3
BRANCH   1  16
HETATM   16  C   UNK N   1      29.509  17.675   4.408  0.00  0.00     0.043 C 
BRANCH  16  17
HETATM   17  C   UNK N   1      28.577  18.613   5.139  0.00  0.00    -0.055 A 
HETATM   18  C   UNK N   1      28.396  18.452   6.520  0.00  0.00     0.046 A 
HETATM   19  C   UNK N   1      27.642  19.382   7.251  0.00  0.00     0.099 A 
HETATM   20  C   UNK N   1      27.067  20.481   6.599  0.00  0.00     0.098 A 
HETATM   21  C   UNK N   1      27.241  20.643   5.224  0.00  0.00     0.040 A 
HETATM   22  C   UNK N   1      28.001  19.720   4.499  0.00  0.00     0.010 A 
BRANCH  19  23
HETATM   23  O   UNK N   1      27.488  19.221   8.577  0.00  0.00    -0.358 OA
HETATM   24  H   UNK N   1      27.353  18.366   8.934  0.00  0.00     0.217 HD
ENDBRANCH  19  23
BRANCH  20  25
HETATM   25  O   UNK N   1      26.356  21.388   7.293  0.00  0.00    -0.358 OA
HETATM   26  H   UNK N   1      26.299  21.331   8.227  0.00  0.00     0.217 HD
ENDBRANCH  20  25
ENDBRANCH  16  17
ENDBRANCH   1  16
TORSDOF 9
ENDMDL
MODEL 6
REMARK VINA RESULT:      -6.5     19.661     23.678
REMARK  9 active torsions:
REMARK  status: ('A' for Active; 'I' for Inactive)
REMARK    1  A    between atoms: O_1  and  C_17 
REMARK    2  A    between atoms: O_2  and  C_18 
REMARK    3  A    between atoms: O_3  and  C_21 
REMARK    4  A    between atoms: O_4  and  C_22 
REMARK    5  A    between atoms: C_5  and  C_6 
REMARK    6  A    between atoms: C_5  and  C_7 
REMARK    7  A    between atoms: C_6  and  C_8 
REMARK    8  A    between atoms: C_7  and  C_11 
REMARK    9  A    between atoms: C_8  and  C_12 
ROOT
HETATM    1  C   UNK N   1      34.880  11.101  12.750  0.00  0.00    -0.011 C 
HETATM    2  C   UNK N   1      35.259   9.632  12.897  0.00  0.00     0.010 C 
ENDROOT
BRANCH   1   3
HETATM    3  C   UNK N   1      34.487  11.662  14.133  0.00  0.00    -0.011 C 
HETATM    4  C   UNK N   1      33.418  10.769  14.751  0.00  0.00     0.010 C 
BRANCH   3   5
HETATM    5  C   UNK N   1      35.715  11.721  15.060  0.00  0.00     0.043 C 
BRANCH   5   6
HETATM    6  C   UNK N   1      35.474  12.053  16.513  0.00  0.00    -0.055 A 
HETATM    7  C   UNK N   1      35.361  13.397  16.893  0.00  0.00     0.046 A 
HETATM    8  C   UNK N   1      35.261  13.748  18.246  0.00  0.00     0.099 A 
HETATM    9  C   UNK N   1      35.278  12.749  19.230  0.00  0.00     0.098 A 
HETATM   10  C   UNK N   1      35.386  11.408  18.857  0.00  0.00     0.040 A 
HETATM   11  C   UNK N   1      35.495  11.062  17.507  0.00  0.00     0.010 A 
BRANCH   8  12
HETATM   12  O   UNK N   1      35.165  15.043  18.596  0.00  0.00    -0.358 OA
HETATM   13  H   UNK N   1      35.599  15.699  18.088  0.00  0.00     0.217 HD
ENDBRANCH   8  12
BRANCH   9  14
HETATM   14  O   UNK N   1      35.200  13.075  20.532  0.00  0.00    -0.358 OA
HETATM   15  H   UNK N   1      35.286  13.969  20.802  0.00  0.00     0.217 HD
ENDBRANCH   9  14
ENDBRANCH   5   6
ENDBRANCH   3   5
ENDBRANCH   1   3
BRANCH   1  16
HETATM   16  C   UNK N   1      36.069  11.889  12.169  0.00  0.00     0.043 C 
BRANCH  16  17
HETATM   17  C   UNK N   1      35.789  13.277  11.642  0.00  0.00    -0.055 A 
HETATM   18  C   UNK N   1      34.999  13.422  10.493  0.00  0.00     0.046 A 
HETATM   19  C   UNK N   1      34.612  14.696  10.053  0.00  0.00     0.099 A 
HETATM   20  C   UNK N   1      35.013  15.833  10.767  0.00  0.00     0.098 A 
HETATM   21  C   UNK N   1      35.803  15.694  11.909  0.00  0.00     0.040 A 
HETATM   22  C   UNK N   1      36.180  14.422  12.352  0.00  0.00     0.010 A 
BRANCH  19  23
HETATM   23  O   UNK N   1      33.845  14.819   8.956  0.00  0.00    -0.358 OA
HETATM   24  H   UNK N   1      33.935  15.568   8.401  0.00  0.00     0.217 HD
ENDBRANCH  19  23
BRANCH  20  25
HETATM   25  O   UNK N   1      34.634  17.058  10.363  0.00  0.00    -0.358 OA
HETATM   26  H   UNK N   1      34.404  17.713  10.993  0.00  0.00     0.217 HD
ENDBRANCH  20  25
ENDBRANCH  16  17
ENDBRANCH   1  16
TORSDOF 9
ENDMDL
MODEL 7
REMARK VINA RESULT:      -6.5     13.257     16.004
REMARK  9 active torsions:
REMARK  status: ('A' for Active; 'I' for Inactive)
REMARK    1  A    between atoms: O_1  and  C_17 
REMARK    2  A    between atoms: O_2  and  C_18 
REMARK    3  A    between atoms: O_3  and  C_21 
REMARK    4  A    between atoms: O_4  and  C_22 
REMARK    5  A    between atoms: C_5  and  C_6 
REMARK    6  A    between atoms: C_5  and  C_7 
REMARK    7  A    between atoms: C_6  and  C_8 
REMARK    8  A    between atoms: C_7  and  C_11 
REMARK    9  A    between atoms: C_8  and  C_12 
ROOT
HETATM    1  C   UNK N   1      31.964  15.645   5.226  0.00  0.00    -0.011 C 
HETATM    2  C   UNK N   1      31.450  14.527   4.327  0.00  0.00     0.010 C 
ENDROOT
BRANCH   1   3
HETATM    3  C   UNK N   1      33.383  16.049   4.769  0.00  0.00    -0.011 C 
HETATM    4  C   UNK N   1      33.480  17.569   4.721  0.00  0.00     0.010 C 
BRANCH   3   5
HETATM    5  C   UNK N   1      34.441  15.489   5.737  0.00  0.00     0.043 C 
BRANCH   5   6
HETATM    6  C   UNK N   1      34.058  15.373   7.193  0.00  0.00    -0.055 A 
HETATM    7  C   UNK N   1      34.478  16.367   8.087  0.00  0.00     0.046 A 
HETATM    8  C   UNK N   1      34.249  16.230   9.462  0.00  0.00     0.099 A 
HETATM    9  C   UNK N   1      33.598  15.088   9.952  0.00  0.00     0.098 A 
HETATM   10  C   UNK N   1      33.173  14.097   9.065  0.00  0.00     0.040 A 
HETATM   11  C   UNK N   1      33.411  14.233   7.694  0.00  0.00     0.010 A 
BRANCH   8  12
HETATM   12  O   UNK N   1      34.668  17.186  10.310  0.00  0.00    -0.358 OA
HETATM   13  H   UNK N   1      35.378  17.014  10.896  0.00  0.00     0.217 HD
ENDBRANCH   8  12
BRANCH   9  14
HETATM   14  O   UNK N   1      33.388  14.938  11.271  0.00  0.00    -0.358 OA
HETATM   15  H   UNK N   1      33.980  14.428  11.789  0.00  0.00     0.217 HD
ENDBRANCH   9  14
ENDBRANCH   5   6
ENDBRANCH   3   5
ENDBRANCH   1   3
BRANCH   1  16
HETATM   16  C   UNK N   1      31.012  16.853   5.151  0.00  0.00     0.043 C 
BRANCH  16  17
HETATM   17  C   UNK N   1      30.048  17.047   6.297  0.00  0.00    -0.055 A 
HETATM   18  C   UNK N   1      30.543  17.057   7.609  0.00  0.00     0.046 A 
HETATM   19  C   UNK N   1      29.698  17.363   8.686  0.00  0.00     0.099 A 
HETATM   20  C   UNK N   1      28.350  17.664   8.451  0.00  0.00     0.098 A 
HETATM   21  C   UNK N   1      27.851  17.652   7.148  0.00  0.00     0.040 A 
HETATM   22  C   UNK N   1      28.697  17.356   6.075  0.00  0.00     0.010 A 
BRANCH  19  23
HETATM   23  O   UNK N   1      30.191  17.381   9.936  0.00  0.00    -0.358 OA
HETATM   24  H   UNK N   1      31.115  17.317  10.078  0.00  0.00     0.217 HD
ENDBRANCH  19  23
BRANCH  20  25
HETATM   25  O   UNK N   1      27.535  17.976   9.475  0.00  0.00    -0.358 OA
HETATM   26  H   UNK N   1      26.826  18.575   9.349  0.00  0.00     0.217 HD
ENDBRANCH  20  25
ENDBRANCH  16  17
ENDBRANCH   1  16
TORSDOF 9
ENDMDL
MODEL 8
REMARK VINA RESULT:      -6.5      3.208      4.873
REMARK  9 active torsions:
REMARK  status: ('A' for Active; 'I' for Inactive)
REMARK    1  A    between atoms: O_1  and  C_17 
REMARK    2  A    between atoms: O_2  and  C_18 
REMARK    3  A    between atoms: O_3  and  C_21 
REMARK    4  A    between atoms: O_4  and  C_22 
REMARK    5  A    between atoms: C_5  and  C_6 
REMARK    6  A    between atoms: C_5  and  C_7 
REMARK    7  A    between atoms: C_6  and  C_8 
REMARK    8  A    between atoms: C_7  and  C_11 
REMARK    9  A    between atoms: C_8  and  C_12 
ROOT
HETATM    1  C   UNK N   1      26.571  25.475  -4.273  0.00  0.00    -0.011 C 
HETATM    2  C   UNK N   1      26.366  26.646  -3.319  0.00  0.00     0.010 C 
ENDROOT
BRANCH   1   3
HETATM    3  C   UNK N   1      25.576  25.600  -5.447  0.00  0.00    -0.011 C 
HETATM    4  C   UNK N   1      24.897  26.963  -5.385  0.00  0.00     0.010 C 
BRANCH   3   5
HETATM    5  C   UNK N   1      26.308  25.443  -6.793  0.00  0.00     0.043 C 
BRANCH   5   6
HETATM    6  C   UNK N   1      26.106  24.151  -7.547  0.00  0.00    -0.055 A 
HETATM    7  C   UNK N   1      26.125  24.172  -8.948  0.00  0.00     0.046 A 
HETATM    8  C   UNK N   1      25.818  23.018  -9.681  0.00  0.00     0.099 A 
HETATM    9  C   UNK N   1      25.486  21.832  -9.011  0.00  0.00     0.098 A 
HETATM   10  C   UNK N   1      25.470  21.804  -7.614  0.00  0.00     0.040 A 
HETATM   11  C   UNK N   1      25.768  22.960  -6.886  0.00  0.00     0.010 A 
BRANCH   8  12
HETATM   12  O   UNK N   1      25.829  23.057 -11.025  0.00  0.00    -0.358 OA
HETATM   13  H   UNK N   1      26.559  22.707 -11.497  0.00  0.00     0.217 HD
ENDBRANCH   8  12
BRANCH   9  14
HETATM   14  O   UNK N   1      25.174  20.724  -9.704  0.00  0.00    -0.358 OA
HETATM   15  H   UNK N   1      24.517  20.753 -10.372  0.00  0.00     0.217 HD
ENDBRANCH   9  14
ENDBRANCH   5   6
ENDBRANCH   3   5
ENDBRANCH   1   3
BRANCH   1  16
HETATM   16  C   UNK N   1      28.020  25.478  -4.794  0.00  0.00     0.043 C 
BRANCH  16  17
HETATM   17  C   UNK N   1      28.882  24.286  -4.449  0.00  0.00    -0.055 A 
HETATM   18  C   UNK N   1      29.396  24.172  -3.150  0.00  0.00     0.046 A 
HETATM   19  C   UNK N   1      30.090  23.018  -2.758  0.00  0.00     0.099 A 
HETATM   20  C   UNK N   1      30.269  21.968  -3.670  0.00  0.00     0.098 A 
HETATM   21  C   UNK N   1      29.763  22.079  -4.966  0.00  0.00     0.040 A 
HETATM   22  C   UNK N   1      29.063  23.227  -5.351  0.00  0.00     0.010 A 
BRANCH  19  23
HETATM   23  O   UNK N   1      30.566  22.917  -1.505  0.00  0.00    -0.358 OA
HETATM   24  H   UNK N   1      30.281  22.219  -0.950  0.00  0.00     0.217 HD
ENDBRANCH  19  23
BRANCH  20  25
HETATM   25  O   UNK N   1      30.918  20.850  -3.301  0.00  0.00    -0.358 OA
HETATM   26  H   UNK N   1      31.352  20.807  -2.471  0.00  0.00     0.217 HD
ENDBRANCH  20  25
ENDBRANCH  16  17
ENDBRANCH   1  16
TORSDOF 9
ENDMDL
MODEL 9
REMARK VINA RESULT:      -6.3      1.490      6.474
REMARK  9 active torsions:
REMARK  status: ('A' for Active; 'I' for Inactive)
REMARK    1  A    between atoms: O_1  and  C_17 
REMARK    2  A    between atoms: O_2  and  C_18 
REMARK    3  A    between atoms: O_3  and  C_21 
REMARK    4  A    between atoms: O_4  and  C_22 
REMARK    5  A    between atoms: C_5  and  C_6 
REMARK    6  A    between atoms: C_5  and  C_7 
REMARK    7  A    between atoms: C_6  and  C_8 
REMARK    8  A    between atoms: C_7  and  C_11 
REMARK    9  A    between atoms: C_8  and  C_12 
ROOT
HETATM    1  C   UNK N   1      27.003  24.564  -8.138  0.00  0.00    -0.011 C 
HETATM    2  C   UNK N   1      28.418  25.004  -8.495  0.00  0.00     0.010 C 
ENDROOT
BRANCH   1   3
HETATM    3  C   UNK N   1      27.023  23.866  -6.761  0.00  0.00    -0.011 C 
HETATM    4  C   UNK N   1      25.790  22.979  -6.631  0.00  0.00     0.010 C 
BRANCH   3   5
HETATM    5  C   UNK N   1      28.296  23.013  -6.607  0.00  0.00     0.043 C 
BRANCH   5   6
HETATM    6  C   UNK N   1      29.001  23.052  -5.273  0.00  0.00    -0.055 A 
HETATM    7  C   UNK N   1      29.817  21.974  -4.904  0.00  0.00     0.046 A 
HETATM    8  C   UNK N   1      30.386  21.917  -3.624  0.00  0.00     0.099 A 
HETATM    9  C   UNK N   1      30.137  22.944  -2.703  0.00  0.00     0.098 A 
HETATM   10  C   UNK N   1      29.328  24.023  -3.066  0.00  0.00     0.040 A 
HETATM   11  C   UNK N   1      28.754  24.072  -4.340  0.00  0.00     0.010 A 
BRANCH   8  12
HETATM   12  O   UNK N   1      31.157  20.871  -3.281  0.00  0.00    -0.358 OA
HETATM   13  H   UNK N   1      30.766  20.036  -3.113  0.00  0.00     0.217 HD
ENDBRANCH   8  12
BRANCH   9  14
HETATM   14  O   UNK N   1      30.663  22.892  -1.467  0.00  0.00    -0.358 OA
HETATM   15  H   UNK N   1      30.811  22.066  -1.050  0.00  0.00     0.217 HD
ENDBRANCH   9  14
ENDBRANCH   5   6
ENDBRANCH   3   5
ENDBRANCH   1   3
BRANCH   1  16
HETATM   16  C   UNK N   1      26.071  25.789  -8.105  0.00  0.00     0.043 C 
BRANCH  16  17
HETATM   17  C   UNK N   1      26.096  26.646  -6.861  0.00  0.00    -0.055 A 
HETATM   18  C   UNK N   1      27.089  27.626  -6.730  0.00  0.00     0.046 A 
HETATM   19  C   UNK N   1      27.065  28.523  -5.652  0.00  0.00     0.099 A 
HETATM   20  C   UNK N   1      26.040  28.443  -4.700  0.00  0.00     0.098 A 
HETATM   21  C   UNK N   1      25.051  27.466  -4.824  0.00  0.00     0.040 A 
HETATM   22  C   UNK N   1      25.072  26.579  -5.904  0.00  0.00     0.010 A 
BRANCH  19  23
HETATM   23  O   UNK N   1      28.017  29.466  -5.547  0.00  0.00    -0.358 OA
HETATM   24  H   UNK N   1      28.132  29.930  -4.741  0.00  0.00     0.217 HD
ENDBRANCH  19  23
BRANCH  20  25
HETATM   25  O   UNK N   1      25.997  29.309  -3.672  0.00  0.00    -0.358 OA
HETATM   26  H   UNK N   1      26.761  29.462  -3.151  0.00  0.00     0.217 HD
ENDBRANCH  20  25
ENDBRANCH  16  17
ENDBRANCH   1  16
TORSDOF 9
ENDMDL
