MODEL 1
REMARK VINA RESULT:      -5.4      0.000      0.000
REMARK  6 active torsions:
REMARK  status: ('A' for Active; 'I' for Inactive)
REMARK    1  A    between atoms: O_2  and  C_11 
REMARK    2  A    between atoms: N_4  and  C_8 
REMARK    3  A    between atoms: C_5  and  C_6 
REMARK    4  A    between atoms: C_5  and  C_7 
REMARK    5  A    between atoms: C_5  and  C_8 
REMARK    6  A    between atoms: C_7  and  C_11 
ROOT
HETATM    1  C   UNK N   1      36.520  14.202  12.733  0.00  0.00     0.045 C 
ENDROOT
BRANCH   1   2
HETATM    2  C   UNK N   1      36.132  13.925  14.170  0.00  0.00    -0.052 A 
HETATM    3  C   UNK N   1      36.847  14.535  15.213  0.00  0.00     0.009 A 
HETATM    4  C   UNK N   1      36.515  14.275  16.547  0.00  0.00     0.024 A 
HETATM    5  C   UNK N   1      35.478  13.389  16.851  0.00  0.00     0.034 A 
HETATM    6 Cl   UNK N   1      35.069  13.053  18.519  0.00  0.00    -0.084 Cl
HETATM    7  C   UNK N   1      34.766  12.768  15.823  0.00  0.00     0.024 A 
HETATM    8  C   UNK N   1      35.088  13.036  14.490  0.00  0.00     0.009 A 
ENDBRANCH   1   2
BRANCH   1   9
HETATM    9  C   UNK N   1      35.376  14.902  11.993  0.00  0.00     0.120 C 
BRANCH   9  10
HETATM   10  C   UNK N   1      35.856  16.047  11.151  0.00  0.00     0.140 C 
HETATM   11  O   UNK N   1      35.108  16.965  10.863  0.00  0.00    -0.650 OA
BRANCH  10  12
HETATM   12  O   UNK N   1      37.136  16.078  10.736  0.00  0.00    -0.776 OA
HETATM   13  H   UNK N   1      37.802  16.549  11.197  0.00  0.00     0.167 HD
ENDBRANCH  10  12
ENDBRANCH   9  10
ENDBRANCH   1   9
BRANCH   1  14
HETATM   14  C   UNK N   1      36.939  12.921  11.999  0.00  0.00     0.120 C 
BRANCH  14  15
HETATM   15  N   UNK N   1      38.173  13.110  11.258  0.00  0.00    -0.429 N 
HETATM   16  H   UNK N   1      38.672  12.361  10.778  0.00  0.00     0.149 HD
HETATM   17  H   UNK N   1      38.564  14.050  11.215  0.00  0.00     0.149 HD
ENDBRANCH  14  15
ENDBRANCH   1  14
TORSDOF 6
ENDMDL
MODEL 2
REMARK VINA RESULT:      -5.2     17.620     18.849
REMARK  6 active torsions:
REMARK  status: ('A' for Active; 'I' for Inactive)
REMARK    1  A    between atoms: O_2  and  C_11 
REMARK    2  A    between atoms: N_4  and  C_8 
REMARK    3  A    between atoms: C_5  and  C_6 
REMARK    4  A    between atoms: C_5  and  C_7 
REMARK    5  A    between atoms: C_5  and  C_8 
REMARK    6  A    between atoms: C_7  and  C_11 
ROOT
HETATM    1  C   UNK N   1      20.727  18.236   2.565  0.00  0.00     0.045 C 
ENDROOT
BRANCH   1   2
HETATM    2  C   UNK N   1      20.672  17.793   4.012  0.00  0.00    -0.052 A 
HETATM    3  C   UNK N   1      21.411  18.490   4.981  0.00  0.00     0.009 A 
HETATM    4  C   UNK N   1      21.388  18.083   6.319  0.00  0.00     0.024 A 
HETATM    5  C   UNK N   1      20.638  16.965   6.698  0.00  0.00     0.034 A 
HETATM    6 Cl   UNK N   1      20.617  16.447   8.370  0.00  0.00    -0.084 Cl
HETATM    7  C   UNK N   1      19.907  16.258   5.742  0.00  0.00     0.024 A 
HETATM    8  C   UNK N   1      19.920  16.670   4.407  0.00  0.00     0.009 A 
ENDBRANCH   1   2
BRANCH   1   9
HETATM    9  C   UNK N   1      20.092  19.620   2.402  0.00  0.00     0.120 C 
BRANCH   9  10
HETATM   10  C   UNK N   1      21.049  20.624   1.831  0.00  0.00     0.140 C 
HETATM   11  O   UNK N   1      21.302  20.635   0.639  0.00  0.00    -0.650 OA
BRANCH  10  12
HETATM   12  O   UNK N   1      21.611  21.544   2.639  0.00  0.00    -0.776 OA
HETATM   13  H   UNK N   1      22.230  22.175   2.327  0.00  0.00     0.167 HD
ENDBRANCH  10  12
ENDBRANCH   9  10
ENDBRANCH   1   9
BRANCH   1  14
HETATM   14  C   UNK N   1      20.059  17.217   1.632  0.00  0.00     0.120 C 
BRANCH  14  15
HETATM   15  N   UNK N   1      20.026  17.691   0.261  0.00  0.00    -0.429 N 
HETATM   16  H   UNK N   1      19.790  18.647  -0.009  0.00  0.00     0.149 HD
HETATM   17  H   UNK N   1      20.255  17.028  -0.479  0.00  0.00     0.149 HD
ENDBRANCH  14  15
ENDBRANCH   1  14
TORSDOF 6
ENDMDL
MODEL 3
REMARK VINA RESULT:      -5.1      7.483      9.259
REMARK  6 active torsions:
REMARK  status: ('A' for Active; 'I' for Inactive)
REMARK    1  A    between atoms: O_2  and  C_11 
REMARK    2  A    between atoms: N_4  and  C_8 
REMARK    3  A    between atoms: C_5  and  C_6 
REMARK    4  A    between atoms: C_5  and  C_7 
REMARK    5  A    between atoms: C_5  and  C_8 
REMARK    6  A    between atoms: C_7  and  C_11 
ROOT
HETATM    1  C   UNK N   1      32.231  17.050   8.581  0.00  0.00     0.045 C 
ENDROOT
BRANCH   1   2
HETATM    2  C   UNK N   1      30.933  17.455   7.914  0.00  0.00    -0.052 A 
HETATM    3  C   UNK N   1      30.710  17.121   6.569  0.00  0.00     0.009 A 
HETATM    4  C   UNK N   1      29.525  17.505   5.931  0.00  0.00     0.024 A 
HETATM    5  C   UNK N   1      28.562  18.240   6.626  0.00  0.00     0.034 A 
HETATM    6 Cl   UNK N   1      27.084  18.732   5.826  0.00  0.00    -0.084 Cl
HETATM    7  C   UNK N   1      28.777  18.588   7.961  0.00  0.00     0.024 A 
HETATM    8  C   UNK N   1      29.954  18.195   8.603  0.00  0.00     0.009 A 
ENDBRANCH   1   2
BRANCH   1   9
HETATM    9  C   UNK N   1      33.431  17.548   7.770  0.00  0.00     0.120 C 
BRANCH   9  10
HETATM   10  C   UNK N   1      34.545  18.043   8.644  0.00  0.00     0.140 C 
HETATM   11  O   UNK N   1      35.167  19.049   8.350  0.00  0.00    -0.650 OA
BRANCH  10  12
HETATM   12  O   UNK N   1      34.840  17.389   9.783  0.00  0.00    -0.776 OA
HETATM   13  H   UNK N   1      35.246  16.544   9.785  0.00  0.00     0.167 HD
ENDBRANCH  10  12
ENDBRANCH   9  10
ENDBRANCH   1   9
BRANCH   1  14
HETATM   14  C   UNK N   1      32.312  15.532   8.794  0.00  0.00     0.120 C 
BRANCH  14  15
HETATM   15  N   UNK N   1      32.569  15.202  10.184  0.00  0.00    -0.429 N 
HETATM   16  H   UNK N   1      32.268  15.775  10.973  0.00  0.00     0.149 HD
HETATM   17  H   UNK N   1      33.082  14.344  10.384  0.00  0.00     0.149 HD
ENDBRANCH  14  15
ENDBRANCH   1  14
TORSDOF 6
ENDMDL
MODEL 4
REMARK VINA RESULT:      -5.1      7.547      9.307
REMARK  6 active torsions:
REMARK  status: ('A' for Active; 'I' for Inactive)
REMARK    1  A    between atoms: O_2  and  C_11 
REMARK    2  A    between atoms: N_4  and  C_8 
REMARK    3  A    between atoms: C_5  and  C_6 
REMARK    4  A    between atoms: C_5  and  C_7 
REMARK    5  A    between atoms: C_5  and  C_8 
REMARK    6  A    between atoms: C_7  and  C_11 
ROOT
HETATM    1  C   UNK N   1      32.176  17.031   8.515  0.00  0.00     0.045 C 
ENDROOT
BRANCH   1   2
HETATM    2  C   UNK N   1      30.909  17.449   7.796  0.00  0.00    -0.052 A 
HETATM    3  C   UNK N   1      29.920  18.162   8.490  0.00  0.00     0.009 A 
HETATM    4  C   UNK N   1      28.735  18.539   7.847  0.00  0.00     0.024 A 
HETATM    5  C   UNK N   1      28.522  18.190   6.511  0.00  0.00     0.034 A 
HETATM    6 Cl   UNK N   1      27.036  18.650   5.708  0.00  0.00    -0.084 Cl
HETATM    7  C   UNK N   1      29.495  17.471   5.813  0.00  0.00     0.024 A 
HETATM    8  C   UNK N   1      30.683  17.105   6.450  0.00  0.00     0.009 A 
ENDBRANCH   1   2
BRANCH   1   9
HETATM    9  C   UNK N   1      33.412  17.526   7.758  0.00  0.00     0.120 C 
BRANCH   9  10
HETATM   10  C   UNK N   1      34.484  18.025   8.681  0.00  0.00     0.140 C 
HETATM   11  O   UNK N   1      35.169  18.986   8.377  0.00  0.00    -0.650 OA
BRANCH  10  12
HETATM   12  O   UNK N   1      34.671  17.424   9.871  0.00  0.00    -0.776 OA
HETATM   13  H   UNK N   1      34.733  16.493   9.960  0.00  0.00     0.167 HD
ENDBRANCH  10  12
ENDBRANCH   9  10
ENDBRANCH   1   9
BRANCH   1  14
HETATM   14  C   UNK N   1      32.237  15.511   8.722  0.00  0.00     0.120 C 
BRANCH  14  15
HETATM   15  N   UNK N   1      32.387  15.171  10.125  0.00  0.00    -0.429 N 
HETATM   16  H   UNK N   1      31.630  15.215  10.808  0.00  0.00     0.149 HD
HETATM   17  H   UNK N   1      33.305  14.868  10.447  0.00  0.00     0.149 HD
ENDBRANCH  14  15
ENDBRANCH   1  14
TORSDOF 6
ENDMDL
MODEL 5
REMARK VINA RESULT:      -5.1     16.062     17.858
REMARK  6 active torsions:
REMARK  status: ('A' for Active; 'I' for Inactive)
REMARK    1  A    between atoms: O_2  and  C_11 
REMARK    2  A    between atoms: N_4  and  C_8 
REMARK    3  A    between atoms: C_5  and  C_6 
REMARK    4  A    between atoms: C_5  and  C_7 
REMARK    5  A    between atoms: C_5  and  C_8 
REMARK    6  A    between atoms: C_7  and  C_11 
ROOT
HETATM    1  C   UNK N   1      22.238  19.339   3.135  0.00  0.00     0.045 C 
ENDROOT
BRANCH   1   2
HETATM    2  C   UNK N   1      23.701  19.519   3.485  0.00  0.00    -0.052 A 
HETATM    3  C   UNK N   1      24.256  18.786   4.546  0.00  0.00     0.009 A 
HETATM    4  C   UNK N   1      25.600  18.954   4.896  0.00  0.00     0.024 A 
HETATM    5  C   UNK N   1      26.396  19.868   4.200  0.00  0.00     0.034 A 
HETATM    6 Cl   UNK N   1      28.075  20.089   4.644  0.00  0.00    -0.084 Cl
HETATM    7  C   UNK N   1      25.853  20.610   3.149  0.00  0.00     0.024 A 
HETATM    8  C   UNK N   1      24.513  20.435   2.791  0.00  0.00     0.009 A 
ENDBRANCH   1   2
BRANCH   1   9
HETATM    9  C   UNK N   1      21.703  20.578   2.409  0.00  0.00     0.120 C 
BRANCH   9  10
HETATM   10  C   UNK N   1      20.962  20.227   1.153  0.00  0.00     0.140 C 
HETATM   11  O   UNK N   1      21.141  20.860   0.127  0.00  0.00    -0.650 OA
BRANCH  10  12
HETATM   12  O   UNK N   1      20.114  19.181   1.149  0.00  0.00    -0.776 OA
HETATM   13  H   UNK N   1      19.897  18.713   0.366  0.00  0.00     0.167 HD
ENDBRANCH  10  12
ENDBRANCH   9  10
ENDBRANCH   1   9
BRANCH   1  14
HETATM   14  C   UNK N   1      21.390  19.028   4.376  0.00  0.00     0.120 C 
BRANCH  14  15
HETATM   15  N   UNK N   1      20.415  17.987   4.108  0.00  0.00    -0.429 N 
HETATM   16  H   UNK N   1      20.647  16.997   4.011  0.00  0.00     0.149 HD
HETATM   17  H   UNK N   1      19.439  18.261   4.010  0.00  0.00     0.149 HD
ENDBRANCH  14  15
ENDBRANCH   1  14
TORSDOF 6
ENDMDL
MODEL 6
REMARK VINA RESULT:      -5.0      2.941      3.946
REMARK  6 active torsions:
REMARK  status: ('A' for Active; 'I' for Inactive)
REMARK    1  A    between atoms: O_2  and  C_11 
REMARK    2  A    between atoms: N_4  and  C_8 
REMARK    3  A    between atoms: C_5  and  C_6 
REMARK    4  A    between atoms: C_5  and  C_7 
REMARK    5  A    between atoms: C_5  and  C_8 
REMARK    6  A    between atoms: C_7  and  C_11 
ROOT
HETATM    1  C   UNK N   1      35.675  13.162  15.412  0.00  0.00     0.045 C 
ENDROOT
BRANCH   1   2
HETATM    2  C   UNK N   1      35.575  12.519  16.780  0.00  0.00    -0.052 A 
HETATM    3  C   UNK N   1      35.772  11.135  16.913  0.00  0.00     0.009 A 
HETATM    4  C   UNK N   1      35.663  10.521  18.166  0.00  0.00     0.024 A 
HETATM    5  C   UNK N   1      35.339  11.282  19.293  0.00  0.00     0.034 A 
HETATM    6 Cl   UNK N   1      35.191  10.514  20.859  0.00  0.00    -0.084 Cl
HETATM    7  C   UNK N   1      35.131  12.657  19.171  0.00  0.00     0.024 A 
HETATM    8  C   UNK N   1      35.251  13.273  17.923  0.00  0.00     0.009 A 
ENDBRANCH   1   2
BRANCH   1   9
HETATM    9  C   UNK N   1      35.878  12.095  14.331  0.00  0.00     0.120 C 
BRANCH   9  10
HETATM   10  C   UNK N   1      34.764  12.082  13.327  0.00  0.00     0.140 C 
HETATM   11  O   UNK N   1      34.131  11.062  13.113  0.00  0.00    -0.650 OA
BRANCH  10  12
HETATM   12  O   UNK N   1      34.437  13.215  12.678  0.00  0.00    -0.776 OA
HETATM   13  H   UNK N   1      34.609  14.065  13.034  0.00  0.00     0.167 HD
ENDBRANCH  10  12
ENDBRANCH   9  10
ENDBRANCH   1   9
BRANCH   1  14
HETATM   14  C   UNK N   1      36.793  14.212  15.358  0.00  0.00     0.120 C 
BRANCH  14  15
HETATM   15  N   UNK N   1      36.817  14.899  14.079  0.00  0.00    -0.429 N 
HETATM   16  H   UNK N   1      37.596  14.855  13.421  0.00  0.00     0.149 HD
HETATM   17  H   UNK N   1      36.005  15.459  13.823  0.00  0.00     0.149 HD
ENDBRANCH  14  15
ENDBRANCH   1  14
TORSDOF 6
ENDMDL
MODEL 7
REMARK VINA RESULT:      -4.9     19.456     21.654
REMARK  6 active torsions:
REMARK  status: ('A' for Active; 'I' for Inactive)
REMARK    1  A    between atoms: O_2  and  C_11 
REMARK    2  A    between atoms: N_4  and  C_8 
REMARK    3  A    between atoms: C_5  and  C_6 
REMARK    4  A    between atoms: C_5  and  C_7 
REMARK    5  A    between atoms: C_5  and  C_8 
REMARK    6  A    between atoms: C_7  and  C_11 
ROOT
HETATM    1  C   UNK N   1      31.204  20.759  -4.707  0.00  0.00     0.045 C 
ENDROOT
BRANCH   1   2
HETATM    2  C   UNK N   1      30.175  20.889  -5.811  0.00  0.00    -0.052 A 
HETATM    3  C   UNK N   1      30.053  19.871  -6.770  0.00  0.00     0.009 A 
HETATM    4  C   UNK N   1      29.122  19.983  -7.809  0.00  0.00     0.024 A 
HETATM    5  C   UNK N   1      28.318  21.122  -7.908  0.00  0.00     0.034 A 
HETATM    6 Cl   UNK N   1      27.161  21.270  -9.213  0.00  0.00    -0.084 Cl
HETATM    7  C   UNK N   1      28.437  22.146  -6.967  0.00  0.00     0.024 A 
HETATM    8  C   UNK N   1      29.358  22.030  -5.922  0.00  0.00     0.009 A 
ENDBRANCH   1   2
BRANCH   1   9
HETATM    9  C   UNK N   1      31.552  22.136  -4.133  0.00  0.00     0.120 C 
BRANCH   9  10
HETATM   10  C   UNK N   1      31.651  22.121  -2.636  0.00  0.00     0.140 C 
HETATM   11  O   UNK N   1      30.930  22.833  -1.958  0.00  0.00    -0.650 OA
BRANCH  10  12
HETATM   12  O   UNK N   1      32.523  21.291  -2.034  0.00  0.00    -0.776 OA
HETATM   13  H   UNK N   1      33.271  21.603  -1.565  0.00  0.00     0.167 HD
ENDBRANCH  10  12
ENDBRANCH   9  10
ENDBRANCH   1   9
BRANCH   1  14
HETATM   14  C   UNK N   1      32.468  20.035  -5.190  0.00  0.00     0.120 C 
BRANCH  14  15
HETATM   15  N   UNK N   1      33.032  19.197  -4.148  0.00  0.00    -0.429 N 
HETATM   16  H   UNK N   1      33.204  19.510  -3.192  0.00  0.00     0.149 HD
HETATM   17  H   UNK N   1      33.271  18.235  -4.386  0.00  0.00     0.149 HD
ENDBRANCH  14  15
ENDBRANCH   1  14
TORSDOF 6
ENDMDL
MODEL 8
REMARK VINA RESULT:      -4.9     14.174     15.281
REMARK  6 active torsions:
REMARK  status: ('A' for Active; 'I' for Inactive)
REMARK    1  A    between atoms: O_2  and  C_11 
REMARK    2  A    between atoms: N_4  and  C_8 
REMARK    3  A    between atoms: C_5  and  C_6 
REMARK    4  A    between atoms: C_5  and  C_7 
REMARK    5  A    between atoms: C_5  and  C_8 
REMARK    6  A    between atoms: C_7  and  C_11 
ROOT
HETATM    1  C   UNK N   1      22.278  12.510  10.310  0.00  0.00     0.045 C 
ENDROOT
BRANCH   1   2
HETATM    2  C   UNK N   1      22.429  12.059   8.871  0.00  0.00    -0.052 A 
HETATM    3  C   UNK N   1      23.507  11.234   8.511  0.00  0.00     0.009 A 
HETATM    4  C   UNK N   1      23.673  10.825   7.183  0.00  0.00     0.024 A 
HETATM    5  C   UNK N   1      22.775  11.251   6.201  0.00  0.00     0.034 A 
HETATM    6 Cl   UNK N   1      22.988  10.750   4.537  0.00  0.00    -0.084 Cl
HETATM    7  C   UNK N   1      21.705  12.080   6.545  0.00  0.00     0.024 A 
HETATM    8  C   UNK N   1      21.531  12.480   7.873  0.00  0.00     0.009 A 
ENDBRANCH   1   2
BRANCH   1   9
HETATM    9  C   UNK N   1      22.863  11.464  11.264  0.00  0.00     0.120 C 
BRANCH   9  10
HETATM   10  C   UNK N   1      23.906  12.043  12.174  0.00  0.00     0.140 C 
HETATM   11  O   UNK N   1      23.713  12.115  13.375  0.00  0.00    -0.650 OA
BRANCH  10  12
HETATM   12  O   UNK N   1      25.081  12.457  11.663  0.00  0.00    -0.776 OA
HETATM   13  H   UNK N   1      25.812  12.682  12.204  0.00  0.00     0.167 HD
ENDBRANCH  10  12
ENDBRANCH   9  10
ENDBRANCH   1   9
BRANCH   1  14
HETATM   14  C   UNK N   1      20.814  12.808  10.661  0.00  0.00     0.120 C 
BRANCH  14  15
HETATM   15  N   UNK N   1      20.346  11.970  11.750  0.00  0.00    -0.429 N 
HETATM   16  H   UNK N   1      19.494  12.148  12.283  0.00  0.00     0.149 HD
HETATM   17  H   UNK N   1      20.904  11.153  11.997  0.00  0.00     0.149 HD
ENDBRANCH  14  15
ENDBRANCH   1  14
TORSDOF 6
ENDMDL
MODEL 9
REMARK VINA RESULT:      -4.8     10.157     12.280
REMARK  6 active torsions:
REMARK  status: ('A' for Active; 'I' for Inactive)
REMARK    1  A    between atoms: O_2  and  C_11 
REMARK    2  A    between atoms: N_4  and  C_8 
REMARK    3  A    between atoms: C_5  and  C_6 
REMARK    4  A    between atoms: C_5  and  C_7 
REMARK    5  A    between atoms: C_5  and  C_8 
REMARK    6  A    between atoms: C_7  and  C_11 
ROOT
HETATM    1  C   UNK N   1      29.023  18.584   7.937  0.00  0.00     0.045 C 
ENDROOT
BRANCH   1   2
HETATM    2  C   UNK N   1      28.278  19.086   6.718  0.00  0.00    -0.052 A 
HETATM    3  C   UNK N   1      28.435  18.429   5.487  0.00  0.00     0.009 A 
HETATM    4  C   UNK N   1      27.771  18.891   4.346  0.00  0.00     0.024 A 
HETATM    5  C   UNK N   1      26.957  20.025   4.421  0.00  0.00     0.034 A 
HETATM    6 Cl   UNK N   1      26.133  20.612   2.992  0.00  0.00    -0.084 Cl
HETATM    7  C   UNK N   1      26.800  20.694   5.637  0.00  0.00     0.024 A 
HETATM    8  C   UNK N   1      27.454  20.226   6.780  0.00  0.00     0.009 A 
ENDBRANCH   1   2
BRANCH   1   9
HETATM    9  C   UNK N   1      29.984  17.455   7.552  0.00  0.00     0.120 C 
BRANCH   9  10
HETATM   10  C   UNK N   1      31.142  17.343   8.500  0.00  0.00     0.140 C 
HETATM   11  O   UNK N   1      32.082  18.115   8.427  0.00  0.00    -0.650 OA
BRANCH  10  12
HETATM   12  O   UNK N   1      31.127  16.400   9.461  0.00  0.00    -0.776 OA
HETATM   13  H   UNK N   1      30.334  16.109   9.867  0.00  0.00     0.167 HD
ENDBRANCH  10  12
ENDBRANCH   9  10
ENDBRANCH   1   9
BRANCH   1  14
HETATM   14  C   UNK N   1      28.062  18.127   9.043  0.00  0.00     0.120 C 
BRANCH  14  15
HETATM   15  N   UNK N   1      27.362  16.911   8.671  0.00  0.00    -0.429 N 
HETATM   16  H   UNK N   1      26.776  16.370   9.308  0.00  0.00     0.149 HD
HETATM   17  H   UNK N   1      27.461  16.577   7.713  0.00  0.00     0.149 HD
ENDBRANCH  14  15
ENDBRANCH   1  14
TORSDOF 6
ENDMDL
