MODEL 1
REMARK VINA RESULT:      -7.3      0.000      0.000
REMARK  2 active torsions:
REMARK  status: ('A' for Active; 'I' for Inactive)
REMARK    1  A    between atoms: O_3  and  C_12 
REMARK    2  A    between atoms: C_9  and  C_11 
ROOT
HETATM    1 Cl   UNK N   1      28.166  20.928  -9.124  0.00  0.00    -0.084 Cl
HETATM    2  O   UNK N   1      32.312  21.688  -2.187  0.00  0.00    -0.268 OA
HETATM    3  N   UNK N   1      31.256  21.191  -4.042  0.00  0.00    -0.323 N 
HETATM    4  N   UNK N   1      29.620  23.716  -3.527  0.00  0.00    -0.355 N 
ATOM      5  HN  UNK N   1      29.243  24.589  -3.158  1.00  0.00     0.162 HD
HETATM    6  C   UNK N   1      29.429  22.211  -5.486  0.00  0.00     0.020 A 
HETATM    7  C   UNK N   1      29.039  23.405  -4.638  0.00  0.00     0.055 A 
HETATM    8  C   UNK N   1      30.419  21.222  -5.176  0.00  0.00     0.047 A 
HETATM    9  C   UNK N   1      30.637  23.200  -2.654  0.00  0.00     0.312 A 
HETATM   10  C   UNK N   1      28.797  22.092  -6.736  0.00  0.00     0.040 A 
HETATM   11  C   UNK N   1      31.429  21.984  -2.972  0.00  0.00     0.271 A 
HETATM   12  C   UNK N   1      30.651  20.174  -6.082  0.00  0.00     0.032 A 
HETATM   13  C   UNK N   1      29.043  21.041  -7.615  0.00  0.00     0.035 A 
HETATM   14  C   UNK N   1      29.966  20.070  -7.280  0.00  0.00     0.026 A 
HETATM   15  H   UNK N   1      31.853  20.407  -4.034  0.00  0.00     0.169 HD
ENDROOT
BRANCH   7  16
HETATM   16  C   UNK N   1      27.971  24.412  -5.051  0.00  0.00     0.013 A 
HETATM   17  C   UNK N   1      28.125  25.583  -5.870  0.00  0.00     0.046 A 
HETATM   18 Cl   UNK N   1      29.597  26.066  -6.703  0.00  0.00    -0.083 Cl
HETATM   19  C   UNK N   1      27.005  26.371  -6.171  0.00  0.00     0.025 A 
HETATM   20  C   UNK N   1      25.737  26.039  -5.700  0.00  0.00     0.002 A 
HETATM   21  C   UNK N   1      25.562  24.890  -4.943  0.00  0.00     0.001 A 
HETATM   22  C   UNK N   1      26.661  24.094  -4.631  0.00  0.00     0.015 A 
ENDBRANCH   7  16
BRANCH   9  23
HETATM   23  O   UNK N   1      30.092  23.063  -1.376  0.00  0.00    -0.368 OA
HETATM   24  H   UNK N   1      29.370  23.443  -0.852  0.00  0.00     0.212 HD
ENDBRANCH   9  23
TORSDOF 2
ENDMDL
MODEL 2
REMARK VINA RESULT:      -7.2     10.995     12.512
REMARK  2 active torsions:
REMARK  status: ('A' for Active; 'I' for Inactive)
REMARK    1  A    between atoms: O_3  and  C_12 
REMARK    2  A    between atoms: C_9  and  C_11 
ROOT
HETATM    1 Cl   UNK N   1      31.643  16.768   2.600  0.00  0.00    -0.084 Cl
HETATM    2  O   UNK N   1      29.869  18.308  10.371  0.00  0.00    -0.268 OA
HETATM    3  N   UNK N   1      30.540  17.688   8.378  0.00  0.00    -0.323 N 
HETATM    4  N   UNK N   1      27.839  18.713   7.392  0.00  0.00    -0.355 N 
ATOM      5  HN  UNK N   1      26.913  19.135   7.311  1.00  0.00     0.162 HD
HETATM    6  C   UNK N   1      29.661  17.782   5.995  0.00  0.00     0.020 A 
HETATM    7  C   UNK N   1      28.279  18.360   6.230  0.00  0.00     0.055 A 
HETATM    8  C   UNK N   1      30.646  17.473   6.990  0.00  0.00     0.047 A 
HETATM    9  C   UNK N   1      28.261  18.690   8.765  0.00  0.00     0.312 A 
HETATM   10  C   UNK N   1      30.041  17.583   4.657  0.00  0.00     0.040 A 
HETATM   11  C   UNK N   1      29.602  18.212   9.186  0.00  0.00     0.271 A 
HETATM   12  C   UNK N   1      31.881  16.937   6.590  0.00  0.00     0.032 A 
HETATM   13  C   UNK N   1      31.271  17.047   4.287  0.00  0.00     0.035 A 
HETATM   14  C   UNK N   1      32.191  16.710   5.260  0.00  0.00     0.026 A 
HETATM   15  H   UNK N   1      31.338  17.386   8.870  0.00  0.00     0.169 HD
ENDROOT
BRANCH   7  16
HETATM   16  C   UNK N   1      27.295  18.661   5.106  0.00  0.00     0.013 A 
HETATM   17  C   UNK N   1      26.257  17.814   4.586  0.00  0.00     0.046 A 
HETATM   18 Cl   UNK N   1      25.798  16.241   5.226  0.00  0.00    -0.083 Cl
HETATM   19  C   UNK N   1      25.421  18.290   3.564  0.00  0.00     0.025 A 
HETATM   20  C   UNK N   1      25.567  19.574   3.047  0.00  0.00     0.002 A 
HETATM   21  C   UNK N   1      26.536  20.420   3.565  0.00  0.00     0.001 A 
HETATM   22  C   UNK N   1      27.378  19.969   4.577  0.00  0.00     0.015 A 
ENDBRANCH   7  16
BRANCH   9  23
HETATM   23  O   UNK N   1      27.289  18.021   9.512  0.00  0.00    -0.368 OA
HETATM   24  H   UNK N   1      27.221  17.229  10.069  0.00  0.00     0.212 HD
ENDBRANCH   9  23
TORSDOF 2
ENDMDL
MODEL 3
REMARK VINA RESULT:      -6.8     11.579     13.013
REMARK  2 active torsions:
REMARK  status: ('A' for Active; 'I' for Inactive)
REMARK    1  A    between atoms: O_3  and  C_12 
REMARK    2  A    between atoms: C_9  and  C_11 
ROOT
HETATM    1 Cl   UNK N   1      32.447  16.226   3.150  0.00  0.00    -0.084 Cl
HETATM    2  O   UNK N   1      29.676  18.793  10.335  0.00  0.00    -0.268 OA
HETATM    3  N   UNK N   1      30.667  18.010   8.544  0.00  0.00    -0.323 N 
HETATM    4  N   UNK N   1      27.859  17.734   7.380  0.00  0.00    -0.355 N 
ATOM      5  HN  UNK N   1      26.853  17.763   7.212  1.00  0.00     0.162 HD
HETATM    6  C   UNK N   1      29.990  17.222   6.224  0.00  0.00     0.020 A 
HETATM    7  C   UNK N   1      28.480  17.302   6.332  0.00  0.00     0.055 A 
HETATM    8  C   UNK N   1      30.944  17.529   7.249  0.00  0.00     0.047 A 
HETATM    9  C   UNK N   1      28.159  18.185   8.710  0.00  0.00     0.312 A 
HETATM   10  C   UNK N   1      30.513  16.866   4.969  0.00  0.00     0.040 A 
HETATM   11  C   UNK N   1      29.548  18.334   9.214  0.00  0.00     0.271 A 
HETATM   12  C   UNK N   1      32.315  17.396   6.973  0.00  0.00     0.032 A 
HETATM   13  C   UNK N   1      31.877  16.738   4.723  0.00  0.00     0.035 A 
HETATM   14  C   UNK N   1      32.782  16.992   5.734  0.00  0.00     0.026 A 
HETATM   15  H   UNK N   1      31.482  18.139   9.082  0.00  0.00     0.169 HD
ENDROOT
BRANCH   7  16
HETATM   16  C   UNK N   1      27.538  16.957   5.185  0.00  0.00     0.013 A 
HETATM   17  C   UNK N   1      26.988  17.840   4.192  0.00  0.00     0.046 A 
HETATM   18 Cl   UNK N   1      27.384  19.543   4.001  0.00  0.00    -0.083 Cl
HETATM   19  C   UNK N   1      26.162  17.321   3.185  0.00  0.00     0.025 A 
HETATM   20  C   UNK N   1      25.869  15.962   3.116  0.00  0.00     0.002 A 
HETATM   21  C   UNK N   1      26.423  15.089   4.039  0.00  0.00     0.001 A 
HETATM   22  C   UNK N   1      27.244  15.582   5.050  0.00  0.00     0.015 A 
ENDBRANCH   7  16
BRANCH   9  23
HETATM   23  O   UNK N   1      27.433  17.406   9.613  0.00  0.00    -0.368 OA
HETATM   24  H   UNK N   1      26.549  17.394  10.012  0.00  0.00     0.212 HD
ENDBRANCH   9  23
TORSDOF 2
ENDMDL
MODEL 4
REMARK VINA RESULT:      -6.8     20.523     23.078
REMARK  2 active torsions:
REMARK  status: ('A' for Active; 'I' for Inactive)
REMARK    1  A    between atoms: O_3  and  C_12 
REMARK    2  A    between atoms: C_9  and  C_11 
ROOT
HETATM    1 Cl   UNK N   1      38.135   8.975  15.355  0.00  0.00    -0.084 Cl
HETATM    2  O   UNK N   1      36.503  14.003   9.195  0.00  0.00    -0.268 OA
HETATM    3  N   UNK N   1      37.137  12.513  10.672  0.00  0.00    -0.323 N 
HETATM    4  N   UNK N   1      36.246  14.541  12.773  0.00  0.00    -0.355 N 
ATOM      5  HN  UNK N   1      35.865  15.350  13.265  1.00  0.00     0.162 HD
HETATM    6  C   UNK N   1      37.131  12.267  13.202  0.00  0.00     0.020 A 
HETATM    7  C   UNK N   1      36.606  13.628  13.614  0.00  0.00     0.055 A 
HETATM    8  C   UNK N   1      37.378  11.807  11.867  0.00  0.00     0.047 A 
HETATM    9  C   UNK N   1      36.223  14.760  11.354  0.00  0.00     0.312 A 
HETATM   10  C   UNK N   1      37.343  11.335  14.233  0.00  0.00     0.040 A 
HETATM   11  C   UNK N   1      36.636  13.724  10.374  0.00  0.00     0.271 A 
HETATM   12  C   UNK N   1      37.871  10.507  11.669  0.00  0.00     0.032 A 
HETATM   13  C   UNK N   1      37.836  10.053  14.010  0.00  0.00     0.035 A 
HETATM   14  C   UNK N   1      38.113   9.641  12.722  0.00  0.00     0.026 A 
HETATM   15  H   UNK N   1      37.395  12.002   9.871  0.00  0.00     0.169 HD
ENDROOT
BRANCH   7  16
HETATM   16  C   UNK N   1      36.370  14.031  15.064  0.00  0.00     0.013 A 
HETATM   17  C   UNK N   1      35.422  13.482  15.996  0.00  0.00     0.046 A 
HETATM   18 Cl   UNK N   1      34.374  12.102  15.699  0.00  0.00    -0.083 Cl
HETATM   19  C   UNK N   1      35.383  13.967  17.311  0.00  0.00     0.025 A 
HETATM   20  C   UNK N   1      36.252  14.966  17.742  0.00  0.00     0.002 A 
HETATM   21  C   UNK N   1      37.200  15.478  16.870  0.00  0.00     0.001 A 
HETATM   22  C   UNK N   1      37.256  15.014  15.559  0.00  0.00     0.015 A 
ENDBRANCH   7  16
BRANCH   9  23
HETATM   23  O   UNK N   1      36.915  15.941  11.080  0.00  0.00    -0.368 OA
HETATM   24  H   UNK N   1      37.550  16.528  11.521  0.00  0.00     0.212 HD
ENDBRANCH   9  23
TORSDOF 2
ENDMDL
MODEL 5
REMARK VINA RESULT:      -6.7     10.500     12.376
REMARK  2 active torsions:
REMARK  status: ('A' for Active; 'I' for Inactive)
REMARK    1  A    between atoms: O_3  and  C_12 
REMARK    2  A    between atoms: C_9  and  C_11 
ROOT
HETATM    1 Cl   UNK N   1      28.167  18.208   9.467  0.00  0.00    -0.084 Cl
HETATM    2  O   UNK N   1      33.259  15.519   3.747  0.00  0.00    -0.268 OA
HETATM    3  N   UNK N   1      32.128  16.284   5.460  0.00  0.00    -0.323 N 
HETATM    4  N   UNK N   1      30.004  17.084   3.419  0.00  0.00    -0.355 N 
ATOM      5  HN  UNK N   1      29.452  17.225   2.572  1.00  0.00     0.162 HD
HETATM    6  C   UNK N   1      29.861  17.355   5.878  0.00  0.00     0.020 A 
HETATM    7  C   UNK N   1      29.355  17.500   4.456  0.00  0.00     0.055 A 
HETATM    8  C   UNK N   1      31.125  16.821   6.292  0.00  0.00     0.047 A 
HETATM    9  C   UNK N   1      31.269  16.485   3.100  0.00  0.00     0.312 A 
HETATM   10  C   UNK N   1      28.974  17.727   6.903  0.00  0.00     0.040 A 
HETATM   11  C   UNK N   1      32.253  16.083   4.138  0.00  0.00     0.271 A 
HETATM   12  C   UNK N   1      31.431  16.763   7.661  0.00  0.00     0.032 A 
HETATM   13  C   UNK N   1      29.303  17.664   8.253  0.00  0.00     0.035 A 
HETATM   14  C   UNK N   1      30.543  17.191   8.634  0.00  0.00     0.026 A 
HETATM   15  H   UNK N   1      32.920  15.987   5.966  0.00  0.00     0.169 HD
ENDROOT
BRANCH   7  16
HETATM   16  C   UNK N   1      27.989  18.079   4.108  0.00  0.00     0.013 A 
HETATM   17  C   UNK N   1      26.768  17.370   3.832  0.00  0.00     0.046 A 
HETATM   18 Cl   UNK N   1      26.542  15.630   3.956  0.00  0.00    -0.083 Cl
HETATM   19  C   UNK N   1      25.594  18.089   3.566  0.00  0.00     0.025 A 
HETATM   20  C   UNK N   1      25.579  19.481   3.573  0.00  0.00     0.002 A 
HETATM   21  C   UNK N   1      26.736  20.182   3.877  0.00  0.00     0.001 A 
HETATM   22  C   UNK N   1      27.914  19.489   4.142  0.00  0.00     0.015 A 
ENDBRANCH   7  16
BRANCH   9  23
HETATM   23  O   UNK N   1      31.912  17.290   2.158  0.00  0.00    -0.368 OA
HETATM   24  H   UNK N   1      32.548  18.023   2.144  0.00  0.00     0.212 HD
ENDBRANCH   9  23
TORSDOF 2
ENDMDL
MODEL 6
REMARK VINA RESULT:      -6.7     12.901     15.421
REMARK  2 active torsions:
REMARK  status: ('A' for Active; 'I' for Inactive)
REMARK    1  A    between atoms: O_3  and  C_12 
REMARK    2  A    between atoms: C_9  and  C_11 
ROOT
HETATM    1 Cl   UNK N   1      33.017  15.998   3.451  0.00  0.00    -0.084 Cl
HETATM    2  O   UNK N   1      27.478  18.164   8.975  0.00  0.00    -0.268 OA
HETATM    3  N   UNK N   1      28.841  17.777   7.302  0.00  0.00    -0.323 N 
HETATM    4  N   UNK N   1      30.830  16.852   9.426  0.00  0.00    -0.355 N 
ATOM      5  HN  UNK N   1      31.291  16.581  10.295  1.00  0.00     0.162 HD
HETATM    6  C   UNK N   1      31.173  16.821   6.972  0.00  0.00     0.020 A 
HETATM    7  C   UNK N   1      31.595  16.612   8.413  0.00  0.00     0.055 A 
HETATM    8  C   UNK N   1      29.932  17.369   6.509  0.00  0.00     0.047 A 
HETATM    9  C   UNK N   1      29.525  17.389   9.696  0.00  0.00     0.312 A 
HETATM   10  C   UNK N   1      32.067  16.378   5.983  0.00  0.00     0.040 A 
HETATM   11  C   UNK N   1      28.583  17.791   8.621  0.00  0.00     0.271 A 
HETATM   12  C   UNK N   1      29.708  17.493   5.129  0.00  0.00     0.032 A 
HETATM   13  C   UNK N   1      31.823  16.516   4.619  0.00  0.00     0.035 A 
HETATM   14  C   UNK N   1      30.642  17.088   4.191  0.00  0.00     0.026 A 
HETATM   15  H   UNK N   1      28.095  18.134   6.767  0.00  0.00     0.169 HD
ENDROOT
BRANCH   7  16
HETATM   16  C   UNK N   1      32.940  16.018   8.814  0.00  0.00     0.013 A 
HETATM   17  C   UNK N   1      34.235  16.639   8.764  0.00  0.00     0.046 A 
HETATM   18 Cl   UNK N   1      34.554  18.314   8.330  0.00  0.00    -0.083 Cl
HETATM   19  C   UNK N   1      35.360  15.934   9.217  0.00  0.00     0.025 A 
HETATM   20  C   UNK N   1      35.251  14.643   9.726  0.00  0.00     0.002 A 
HETATM   21  C   UNK N   1      34.005  14.043   9.820  0.00  0.00     0.001 A 
HETATM   22  C   UNK N   1      32.874  14.723   9.375  0.00  0.00     0.015 A 
ENDBRANCH   7  16
BRANCH   9  23
HETATM   23  O   UNK N   1      29.663  18.448  10.595  0.00  0.00    -0.368 OA
HETATM   24  H   UNK N   1      29.176  18.833  11.341  0.00  0.00     0.212 HD
ENDBRANCH   9  23
TORSDOF 2
ENDMDL
MODEL 7
REMARK VINA RESULT:      -6.6     11.135     13.138
REMARK  2 active torsions:
REMARK  status: ('A' for Active; 'I' for Inactive)
REMARK    1  A    between atoms: O_3  and  C_12 
REMARK    2  A    between atoms: C_9  and  C_11 
ROOT
HETATM    1 Cl   UNK N   1      26.683  20.580   3.146  0.00  0.00    -0.084 Cl
HETATM    2  O   UNK N   1      28.655  17.883  10.543  0.00  0.00    -0.268 OA
HETATM    3  N   UNK N   1      28.025  18.858   8.684  0.00  0.00    -0.323 N 
HETATM    4  N   UNK N   1      30.087  17.074   7.310  0.00  0.00    -0.355 N 
ATOM      5  HN  UNK N   1      30.797  16.375   7.090  1.00  0.00     0.162 HD
HETATM    6  C   UNK N   1      28.554  18.677   6.205  0.00  0.00     0.020 A 
HETATM    7  C   UNK N   1      29.670  17.652   6.232  0.00  0.00     0.055 A 
HETATM    8  C   UNK N   1      27.850  19.213   7.332  0.00  0.00     0.047 A 
HETATM    9  C   UNK N   1      29.850  17.121   8.726  0.00  0.00     0.312 A 
HETATM   10  C   UNK N   1      28.122  19.105   4.937  0.00  0.00     0.040 A 
HETATM   11  C   UNK N   1      28.808  17.984   9.339  0.00  0.00     0.271 A 
HETATM   12  C   UNK N   1      26.838  20.163   7.121  0.00  0.00     0.032 A 
HETATM   13  C   UNK N   1      27.118  20.052   4.756  0.00  0.00     0.035 A 
HETATM   14  C   UNK N   1      26.482  20.593   5.854  0.00  0.00     0.026 A 
HETATM   15  H   UNK N   1      27.437  19.367   9.289  0.00  0.00     0.169 HD
ENDROOT
BRANCH   7  16
HETATM   16  C   UNK N   1      30.364  17.135   4.977  0.00  0.00     0.013 A 
HETATM   17  C   UNK N   1      29.836  16.254   3.970  0.00  0.00     0.046 A 
HETATM   18 Cl   UNK N   1      28.185  15.653   3.896  0.00  0.00    -0.083 Cl
HETATM   19  C   UNK N   1      30.625  15.921   2.859  0.00  0.00     0.025 A 
HETATM   20  C   UNK N   1      31.909  16.433   2.701  0.00  0.00     0.002 A 
HETATM   21  C   UNK N   1      32.419  17.316   3.641  0.00  0.00     0.001 A 
HETATM   22  C   UNK N   1      31.656  17.660   4.752  0.00  0.00     0.015 A 
ENDBRANCH   7  16
BRANCH   9  23
HETATM   23  O   UNK N   1      31.067  17.360   9.367  0.00  0.00    -0.368 OA
HETATM   24  H   UNK N   1      31.384  17.732  10.205  0.00  0.00     0.212 HD
ENDBRANCH   9  23
TORSDOF 2
ENDMDL
MODEL 8
REMARK VINA RESULT:      -6.5     10.980     13.249
REMARK  2 active torsions:
REMARK  status: ('A' for Active; 'I' for Inactive)
REMARK    1  A    between atoms: O_3  and  C_12 
REMARK    2  A    between atoms: C_9  and  C_11 
ROOT
HETATM    1 Cl   UNK N   1      27.165  21.850   6.155  0.00  0.00    -0.084 Cl
HETATM    2  O   UNK N   1      26.821  14.823   2.107  0.00  0.00    -0.268 OA
HETATM    3  N   UNK N   1      26.626  16.754   3.125  0.00  0.00    -0.323 N 
HETATM    4  N   UNK N   1      28.953  15.820   4.867  0.00  0.00    -0.355 N 
ATOM      5  HN  UNK N   1      29.731  15.306   5.283  1.00  0.00     0.162 HD
HETATM    6  C   UNK N   1      27.819  18.020   4.978  0.00  0.00     0.020 A 
HETATM    7  C   UNK N   1      28.826  16.978   5.425  0.00  0.00     0.055 A 
HETATM    8  C   UNK N   1      26.829  17.876   3.952  0.00  0.00     0.047 A 
HETATM    9  C   UNK N   1      28.328  15.038   3.837  0.00  0.00     0.312 A 
HETATM   10  C   UNK N   1      27.903  19.281   5.593  0.00  0.00     0.040 A 
HETATM   11  C   UNK N   1      27.221  15.555   2.995  0.00  0.00     0.271 A 
HETATM   12  C   UNK N   1      25.972  18.952   3.669  0.00  0.00     0.032 A 
HETATM   13  C   UNK N   1      27.038  20.330   5.297  0.00  0.00     0.035 A 
HETATM   14  C   UNK N   1      26.059  20.161   4.339  0.00  0.00     0.026 A 
HETATM   15  H   UNK N   1      25.878  16.876   2.497  0.00  0.00     0.169 HD
ENDROOT
BRANCH   7  16
HETATM   16  C   UNK N   1      29.849  17.221   6.528  0.00  0.00     0.013 A 
HETATM   17  C   UNK N   1      29.609  17.439   7.929  0.00  0.00     0.046 A 
HETATM   18 Cl   UNK N   1      28.044  17.353   8.727  0.00  0.00    -0.083 Cl
HETATM   19  C   UNK N   1      30.695  17.607   8.800  0.00  0.00     0.025 A 
HETATM   20  C   UNK N   1      32.008  17.557   8.340  0.00  0.00     0.002 A 
HETATM   21  C   UNK N   1      32.260  17.307   7.000  0.00  0.00     0.001 A 
HETATM   22  C   UNK N   1      31.198  17.139   6.117  0.00  0.00     0.015 A 
ENDBRANCH   7  16
BRANCH   9  23
HETATM   23  O   UNK N   1      27.942  13.814   4.388  0.00  0.00    -0.368 OA
HETATM   24  H   UNK N   1      27.141  13.270   4.455  0.00  0.00     0.212 HD
ENDBRANCH   9  23
TORSDOF 2
ENDMDL
MODEL 9
REMARK VINA RESULT:      -6.5      3.976      4.848
REMARK  2 active torsions:
REMARK  status: ('A' for Active; 'I' for Inactive)
REMARK    1  A    between atoms: O_3  and  C_12 
REMARK    2  A    between atoms: C_9  and  C_11 
ROOT
HETATM    1 Cl   UNK N   1      31.538  24.804  -5.597  0.00  0.00    -0.084 Cl
HETATM    2  O   UNK N   1      25.517  20.155  -8.428  0.00  0.00    -0.268 OA
HETATM    3  N   UNK N   1      27.306  21.301  -7.890  0.00  0.00    -0.323 N 
HETATM    4  N   UNK N   1      25.381  23.250  -6.540  0.00  0.00    -0.355 N 
ATOM      5  HN  UNK N   1      24.562  23.719  -6.153  1.00  0.00     0.162 HD
HETATM    6  C   UNK N   1      27.854  23.399  -6.563  0.00  0.00     0.020 A 
HETATM    7  C   UNK N   1      26.460  23.884  -6.218  0.00  0.00     0.055 A 
HETATM    8  C   UNK N   1      28.197  22.242  -7.336  0.00  0.00     0.047 A 
HETATM    9  C   UNK N   1      24.989  22.083  -7.279  0.00  0.00     0.312 A 
HETATM   10  C   UNK N   1      28.927  24.126  -6.018  0.00  0.00     0.040 A 
HETATM   11  C   UNK N   1      25.970  21.148  -7.887  0.00  0.00     0.271 A 
HETATM   12  C   UNK N   1      29.550  21.941  -7.561  0.00  0.00     0.032 A 
HETATM   13  C   UNK N   1      30.261  23.809  -6.259  0.00  0.00     0.035 A 
HETATM   14  C   UNK N   1      30.574  22.719  -7.045  0.00  0.00     0.026 A 
HETATM   15  H   UNK N   1      27.767  20.592  -8.394  0.00  0.00     0.169 HD
ENDROOT
BRANCH   7  16
HETATM   16  C   UNK N   1      26.189  25.130  -5.383  0.00  0.00     0.013 A 
HETATM   17  C   UNK N   1      26.441  25.332  -3.983  0.00  0.00     0.046 A 
HETATM   18 Cl   UNK N   1      27.253  24.197  -2.912  0.00  0.00    -0.083 Cl
HETATM   19  C   UNK N   1      26.154  26.575  -3.400  0.00  0.00     0.025 A 
HETATM   20  C   UNK N   1      25.638  27.627  -4.151  0.00  0.00     0.002 A 
HETATM   21  C   UNK N   1      25.427  27.464  -5.511  0.00  0.00     0.001 A 
HETATM   22  C   UNK N   1      25.702  26.238  -6.111  0.00  0.00     0.015 A 
ENDBRANCH   7  16
BRANCH   9  23
HETATM   23  O   UNK N   1      24.070  22.470  -8.257  0.00  0.00    -0.368 OA
HETATM   24  H   UNK N   1      23.256  22.993  -8.319  0.00  0.00     0.212 HD
ENDBRANCH   9  23
TORSDOF 2
ENDMDL
