REMARK  2 active torsions:
REMARK  status: ('A' for Active; 'I' for Inactive)
REMARK    1  A    between atoms: O_3  and  C_12 
REMARK    2  A    between atoms: C_9  and  C_11 
ROOT
HETATM    1 Cl   UNK N   1       1.044  -3.683  -0.079  0.00  0.00    -0.084 Cl
HETATM    2  O   UNK N   1       1.812   4.381   0.444  0.00  0.00    -0.268 OA
HETATM    3  N   UNK N   1       1.343   2.258   0.168  0.00  0.00    -0.323 N 
HETATM    4  N   UNK N   1       4.359   1.802   0.300  0.00  0.00    -0.355 N 
ATOM      5  HN  UNK N   1       5.369   1.905   0.400  1.00  0.00     0.162 HD
HETATM    6  C   UNK N   1       2.613   0.058   0.078  0.00  0.00     0.020 A 
HETATM    7  C   UNK N   1       4.042   0.557   0.163  0.00  0.00     0.055 A 
HETATM    8  C   UNK N   1       1.422   0.855   0.062  0.00  0.00     0.047 A 
HETATM    9  C   UNK N   1       3.716   3.085   0.353  0.00  0.00     0.312 A 
HETATM   10  C   UNK N   1       2.432  -1.336   0.075  0.00  0.00     0.040 A 
HETATM   11  C   UNK N   1       2.240   3.247   0.320  0.00  0.00     0.271 A 
HETATM   12  C   UNK N   1       0.172   0.221  -0.023  0.00  0.00     0.032 A 
HETATM   13  C   UNK N   1       1.181  -1.940  -0.014  0.00  0.00     0.035 A 
HETATM   14  C   UNK N   1       0.046  -1.157  -0.076  0.00  0.00     0.026 A 
HETATM   15  H   UNK N   1       0.417   2.590   0.121  0.00  0.00     0.169 HD
ENDROOT
BRANCH   7  16
HETATM   16  C   UNK N   1       5.253  -0.368   0.177  0.00  0.00     0.013 A 
HETATM   17  C   UNK N   1       5.449  -1.585  -0.563  0.00  0.00     0.046 A 
HETATM   18 Cl   UNK N   1       4.354  -2.236  -1.776  0.00  0.00    -0.083 Cl
HETATM   19  C   UNK N   1       6.660  -2.282  -0.442  0.00  0.00     0.025 A 
HETATM   20  C   UNK N   1       7.687  -1.816   0.374  0.00  0.00     0.002 A 
HETATM   21  C   UNK N   1       7.532  -0.623   1.063  0.00  0.00     0.001 A 
HETATM   22  C   UNK N   1       6.338   0.085   0.960  0.00  0.00     0.015 A 
ENDBRANCH   7  16
BRANCH   9  23
HETATM   23  O   UNK N   1       4.281   3.901  -0.629  0.00  0.00    -0.368 OA
HETATM   24  H   UNK N   1       4.969   3.844  -1.311  0.00  0.00     0.212 HD
ENDBRANCH   9  23
TORSDOF 2
