REMARK  11 active torsions:
REMARK  status: ('A' for Active; 'I' for Inactive)
REMARK    1  A    between atoms: O_1  and  C_9 
REMARK    2  A    between atoms: O_1  and  C_14 
REMARK    3  A    between atoms: O_2  and  C_6 
REMARK    4  A    between atoms: O_3  and  C_20 
REMARK    5  A    between atoms: N_5  and  C_7 
REMARK    6  A    between atoms: N_5  and  C_8 
REMARK    7  A    between atoms: C_6  and  C_7 
REMARK    8  A    between atoms: C_6  and  C_9 
REMARK    9  A    between atoms: C_12  and  C_13 
REMARK   10  A    between atoms: C_13  and  C_19 
REMARK   11  A    between atoms: C_19  and  C_20 
ROOT
HETATM    1  C   UNK N   1       3.013  -2.122   0.229  0.00  0.00    -0.058 A 
HETATM    2  C   UNK N   1       2.398   0.605  -0.025  0.00  0.00     0.068 A 
HETATM    3  C   UNK N   1       1.746  -1.647   0.590  0.00  0.00     0.010 A 
HETATM    4  C   UNK N   1       3.981  -1.232  -0.245  0.00  0.00     0.010 A 
HETATM    5  C   UNK N   1       1.442  -0.289   0.468  0.00  0.00     0.037 A 
HETATM    6  C   UNK N   1       3.674   0.125  -0.377  0.00  0.00     0.037 A 
ENDROOT
BRANCH   2   7
HETATM    7  O   UNK N   1       2.070   1.912  -0.167  0.00  0.00    -0.349 OA
BRANCH   7   8
HETATM    8  C   UNK N   1       2.889   2.799  -0.827  0.00  0.00     0.209 C 
BRANCH   8   9
HETATM    9  C   UNK N   1       3.401   3.866   0.114  0.00  0.00     0.159 C 
BRANCH   9  10
HETATM   10  O   UNK N   1       2.464   4.897   0.202  0.00  0.00    -0.392 OA
HETATM   11  H   UNK N   1       2.759   5.819   0.263  0.00  0.00     0.210 HD
ENDBRANCH   9  10
BRANCH   9  12
HETATM   12  C   UNK N   1       4.696   4.392  -0.468  0.00  0.00     0.147 C 
BRANCH  12  13
HETATM   13  N   UNK N   1       5.321   5.340   0.438  0.00  0.00    -0.415 N 
HETATM   14  H   UNK N   1       4.955   5.660   1.335  0.00  0.00     0.153 HD
BRANCH  13  15
HETATM   15  C   UNK N   1       6.571   5.741  -0.185  0.00  0.00     0.068 C 
HETATM   16  C   UNK N   1       6.902   7.163   0.213  0.00  0.00     0.031 C 
HETATM   17  C   UNK N   1       7.692   4.819   0.257  0.00  0.00     0.031 C 
ENDBRANCH  13  15
ENDBRANCH  12  13
ENDBRANCH   9  12
ENDBRANCH   8   9
ENDBRANCH   7   8
ENDBRANCH   2   7
BRANCH   1  18
HETATM   18  C   UNK N   1       3.326  -3.574   0.337  0.00  0.00     0.048 C 
BRANCH  18  19
HETATM   19  C   UNK N   1       2.519  -4.347  -0.694  0.00  0.00     0.115 C 
BRANCH  19  20
HETATM   20  C   UNK N   1       2.152  -5.703  -0.190  0.00  0.00     0.258 C 
HETATM   21  O   UNK N   1       3.028  -6.502   0.109  0.00  0.00    -0.265 OA
BRANCH  20  22
HETATM   22  O   UNK N   1       0.842  -6.039  -0.098  0.00  0.00    -0.326 OA
HETATM   23  C   UNK N   1       0.427  -7.282   0.319  0.00  0.00     0.213 C 
ENDBRANCH  20  22
ENDBRANCH  19  20
ENDBRANCH  18  19
ENDBRANCH   1  18
TORSDOF 11
