MODEL 1
REMARK VINA RESULT:      -6.0      0.000      0.000
REMARK  11 active torsions:
REMARK  status: ('A' for Active; 'I' for Inactive)
REMARK    1  A    between atoms: O_1  and  C_9 
REMARK    2  A    between atoms: O_1  and  C_14 
REMARK    3  A    between atoms: O_2  and  C_6 
REMARK    4  A    between atoms: O_3  and  C_20 
REMARK    5  A    between atoms: N_5  and  C_7 
REMARK    6  A    between atoms: N_5  and  C_8 
REMARK    7  A    between atoms: C_6  and  C_7 
REMARK    8  A    between atoms: C_6  and  C_9 
REMARK    9  A    between atoms: C_12  and  C_13 
REMARK   10  A    between atoms: C_13  and  C_19 
REMARK   11  A    between atoms: C_19  and  C_20 
ROOT
HETATM    1  C   UNK N   1      26.871  20.242   4.538  0.00  0.00    -0.058 A 
HETATM    2  C   UNK N   1      27.789  19.501   7.085  0.00  0.00     0.068 A 
HETATM    3  C   UNK N   1      27.578  19.046   4.713  0.00  0.00     0.010 A 
HETATM    4  C   UNK N   1      26.635  21.078   5.633  0.00  0.00     0.010 A 
HETATM    5  C   UNK N   1      28.039  18.680   5.980  0.00  0.00     0.037 A 
HETATM    6  C   UNK N   1      27.087  20.707   6.902  0.00  0.00     0.037 A 
ENDROOT
BRANCH   2   7
HETATM    7  O   UNK N   1      28.216  19.109   8.310  0.00  0.00    -0.349 OA
BRANCH   7   8
HETATM    8  C   UNK N   1      28.266  17.783   8.672  0.00  0.00     0.209 C 
BRANCH   8   9
HETATM    9  C   UNK N   1      29.535  17.478   9.435  0.00  0.00     0.159 C 
BRANCH   9  10
HETATM   10  O   UNK N   1      29.867  18.569  10.240  0.00  0.00    -0.392 OA
HETATM   11  H   UNK N   1      30.087  18.435  11.175  0.00  0.00     0.210 HD
ENDBRANCH   9  10
BRANCH   9  12
HETATM   12  C   UNK N   1      30.626  17.238   8.413  0.00  0.00     0.147 C 
BRANCH  12  13
HETATM   13  N   UNK N   1      31.939  17.339   9.026  0.00  0.00    -0.415 N 
HETATM   14  H   UNK N   1      32.141  17.489  10.015  0.00  0.00     0.153 HD
BRANCH  13  15
HETATM   15  C   UNK N   1      32.907  17.184   7.954  0.00  0.00     0.068 C 
HETATM   16  C   UNK N   1      32.196  17.236   6.619  0.00  0.00     0.031 C 
HETATM   17  C   UNK N   1      33.939  18.295   8.020  0.00  0.00     0.031 C 
ENDBRANCH  13  15
ENDBRANCH  12  13
ENDBRANCH   9  12
ENDBRANCH   8   9
ENDBRANCH   7   8
ENDBRANCH   2   7
BRANCH   1  18
HETATM   18  C   UNK N   1      26.359  20.617   3.191  0.00  0.00     0.048 C 
BRANCH  18  19
HETATM   19  C   UNK N   1      25.252  19.659   2.781  0.00  0.00     0.115 C 
BRANCH  19  20
HETATM   20  C   UNK N   1      23.915  20.156   3.219  0.00  0.00     0.258 C 
HETATM   21  O   UNK N   1      23.583  21.309   2.981  0.00  0.00    -0.265 OA
BRANCH  20  22
HETATM   22  O   UNK N   1      23.094  19.322   3.903  0.00  0.00    -0.326 OA
HETATM   23  C   UNK N   1      21.771  19.152   3.569  0.00  0.00     0.213 C 
ENDBRANCH  20  22
ENDBRANCH  19  20
ENDBRANCH  18  19
ENDBRANCH   1  18
TORSDOF 11
ENDMDL
MODEL 2
REMARK VINA RESULT:      -5.7      8.371     13.933
REMARK  11 active torsions:
REMARK  status: ('A' for Active; 'I' for Inactive)
REMARK    1  A    between atoms: O_1  and  C_9 
REMARK    2  A    between atoms: O_1  and  C_14 
REMARK    3  A    between atoms: O_2  and  C_6 
REMARK    4  A    between atoms: O_3  and  C_20 
REMARK    5  A    between atoms: N_5  and  C_7 
REMARK    6  A    between atoms: N_5  and  C_8 
REMARK    7  A    between atoms: C_6  and  C_7 
REMARK    8  A    between atoms: C_6  and  C_9 
REMARK    9  A    between atoms: C_12  and  C_13 
REMARK   10  A    between atoms: C_13  and  C_19 
REMARK   11  A    between atoms: C_19  and  C_20 
ROOT
HETATM    1  C   UNK N   1      35.283  12.619  15.722  0.00  0.00    -0.058 A 
HETATM    2  C   UNK N   1      35.560  13.435  13.051  0.00  0.00     0.068 A 
HETATM    3  C   UNK N   1      34.578  11.962  14.706  0.00  0.00     0.010 A 
HETATM    4  C   UNK N   1      36.116  13.696  15.407  0.00  0.00     0.010 A 
HETATM    5  C   UNK N   1      34.712  12.372  13.377  0.00  0.00     0.037 A 
HETATM    6  C   UNK N   1      36.259  14.100  14.076  0.00  0.00     0.037 A 
ENDROOT
BRANCH   2   7
HETATM    7  O   UNK N   1      35.701  13.793  11.751  0.00  0.00    -0.349 OA
BRANCH   7   8
HETATM    8  C   UNK N   1      34.931  14.782  11.182  0.00  0.00     0.209 C 
BRANCH   8   9
HETATM    9  C   UNK N   1      35.761  15.655  10.268  0.00  0.00     0.159 C 
BRANCH   9  10
HETATM   10  O   UNK N   1      36.914  16.066  10.939  0.00  0.00    -0.392 OA
HETATM   11  H   UNK N   1      36.970  15.989  11.904  0.00  0.00     0.210 HD
ENDBRANCH   9  10
BRANCH   9  12
HETATM   12  C   UNK N   1      34.914  16.857   9.909  0.00  0.00     0.147 C 
BRANCH  12  13
HETATM   13  N   UNK N   1      33.613  16.443   9.414  0.00  0.00    -0.415 N 
HETATM   14  H   UNK N   1      33.167  15.536   9.555  0.00  0.00     0.153 HD
BRANCH  13  15
HETATM   15  C   UNK N   1      33.072  17.575   8.681  0.00  0.00     0.068 C 
HETATM   16  C   UNK N   1      34.195  18.307   7.979  0.00  0.00     0.031 C 
HETATM   17  C   UNK N   1      32.062  17.096   7.655  0.00  0.00     0.031 C 
ENDBRANCH  13  15
ENDBRANCH  12  13
ENDBRANCH   9  12
ENDBRANCH   8   9
ENDBRANCH   7   8
ENDBRANCH   2   7
BRANCH   1  18
HETATM   18  C   UNK N   1      35.157  12.165  17.135  0.00  0.00     0.048 C 
BRANCH  18  19
HETATM   19  C   UNK N   1      35.308  13.355  18.068  0.00  0.00     0.115 C 
BRANCH  19  20
HETATM   20  C   UNK N   1      35.160  12.947  19.496  0.00  0.00     0.258 C 
HETATM   21  O   UNK N   1      34.566  13.672  20.281  0.00  0.00    -0.265 OA
BRANCH  20  22
HETATM   22  O   UNK N   1      35.715  11.781  19.909  0.00  0.00    -0.326 OA
HETATM   23  C   UNK N   1      34.965  10.746  20.416  0.00  0.00     0.213 C 
ENDBRANCH  20  22
ENDBRANCH  19  20
ENDBRANCH  18  19
ENDBRANCH   1  18
TORSDOF 11
ENDMDL
MODEL 3
REMARK VINA RESULT:      -5.6      3.066      8.152
REMARK  11 active torsions:
REMARK  status: ('A' for Active; 'I' for Inactive)
REMARK    1  A    between atoms: O_1  and  C_9 
REMARK    2  A    between atoms: O_1  and  C_14 
REMARK    3  A    between atoms: O_2  and  C_6 
REMARK    4  A    between atoms: O_3  and  C_20 
REMARK    5  A    between atoms: N_5  and  C_7 
REMARK    6  A    between atoms: N_5  and  C_8 
REMARK    7  A    between atoms: C_6  and  C_7 
REMARK    8  A    between atoms: C_6  and  C_9 
REMARK    9  A    between atoms: C_12  and  C_13 
REMARK   10  A    between atoms: C_13  and  C_19 
REMARK   11  A    between atoms: C_19  and  C_20 
ROOT
HETATM    1  C   UNK N   1      30.889  16.737   7.226  0.00  0.00    -0.058 A 
HETATM    2  C   UNK N   1      28.575  16.929   5.650  0.00  0.00     0.068 A 
HETATM    3  C   UNK N   1      29.839  17.579   7.613  0.00  0.00     0.010 A 
HETATM    4  C   UNK N   1      30.792  16.002   6.042  0.00  0.00     0.010 A 
HETATM    5  C   UNK N   1      28.689  17.677   6.826  0.00  0.00     0.037 A 
HETATM    6  C   UNK N   1      29.638  16.092   5.259  0.00  0.00     0.037 A 
ENDROOT
BRANCH   2   7
HETATM    7  O   UNK N   1      27.437  17.015   4.919  0.00  0.00    -0.349 OA
BRANCH   7   8
HETATM    8  C   UNK N   1      26.194  16.875   5.492  0.00  0.00     0.209 C 
BRANCH   8   9
HETATM    9  C   UNK N   1      25.102  17.233   4.510  0.00  0.00     0.159 C 
BRANCH   9  10
HETATM   10  O   UNK N   1      25.484  16.841   3.226  0.00  0.00    -0.392 OA
HETATM   11  H   UNK N   1      26.365  16.464   3.074  0.00  0.00     0.210 HD
ENDBRANCH   9  10
BRANCH   9  12
HETATM   12  C   UNK N   1      24.928  18.736   4.561  0.00  0.00     0.147 C 
BRANCH  12  13
HETATM   13  N   UNK N   1      25.712  19.309   5.642  0.00  0.00    -0.415 N 
HETATM   14  H   UNK N   1      25.834  18.924   6.578  0.00  0.00     0.153 HD
BRANCH  13  15
HETATM   15  C   UNK N   1      26.290  20.538   5.124  0.00  0.00     0.068 C 
HETATM   16  C   UNK N   1      27.285  21.090   6.121  0.00  0.00     0.031 C 
HETATM   17  C   UNK N   1      26.992  20.267   3.806  0.00  0.00     0.031 C 
ENDBRANCH  13  15
ENDBRANCH  12  13
ENDBRANCH   9  12
ENDBRANCH   8   9
ENDBRANCH   7   8
ENDBRANCH   2   7
BRANCH   1  18
HETATM   18  C   UNK N   1      32.103  16.615   8.081  0.00  0.00     0.048 C 
BRANCH  18  19
HETATM   19  C   UNK N   1      32.686  17.996   8.337  0.00  0.00     0.115 C 
BRANCH  19  20
HETATM   20  C   UNK N   1      34.155  18.022   8.074  0.00  0.00     0.258 C 
HETATM   21  O   UNK N   1      34.569  18.048   6.924  0.00  0.00    -0.265 OA
BRANCH  20  22
HETATM   22  O   UNK N   1      35.012  17.989   9.123  0.00  0.00    -0.326 OA
HETATM   23  C   UNK N   1      35.093  16.913   9.976  0.00  0.00     0.213 C 
ENDBRANCH  20  22
ENDBRANCH  19  20
ENDBRANCH  18  19
ENDBRANCH   1  18
TORSDOF 11
ENDMDL
MODEL 4
REMARK VINA RESULT:      -5.5      3.075      8.162
REMARK  11 active torsions:
REMARK  status: ('A' for Active; 'I' for Inactive)
REMARK    1  A    between atoms: O_1  and  C_9 
REMARK    2  A    between atoms: O_1  and  C_14 
REMARK    3  A    between atoms: O_2  and  C_6 
REMARK    4  A    between atoms: O_3  and  C_20 
REMARK    5  A    between atoms: N_5  and  C_7 
REMARK    6  A    between atoms: N_5  and  C_8 
REMARK    7  A    between atoms: C_6  and  C_7 
REMARK    8  A    between atoms: C_6  and  C_9 
REMARK    9  A    between atoms: C_12  and  C_13 
REMARK   10  A    between atoms: C_13  and  C_19 
REMARK   11  A    between atoms: C_19  and  C_20 
ROOT
HETATM    1  C   UNK N   1      32.178  17.883   7.832  0.00  0.00    -0.058 A 
HETATM    2  C   UNK N   1      29.507  17.143   7.387  0.00  0.00     0.068 A 
HETATM    3  C   UNK N   1      31.834  17.117   6.711  0.00  0.00     0.010 A 
HETATM    4  C   UNK N   1      31.189  18.267   8.742  0.00  0.00     0.010 A 
HETATM    5  C   UNK N   1      30.506  16.745   6.493  0.00  0.00     0.037 A 
HETATM    6  C   UNK N   1      29.858  17.904   8.518  0.00  0.00     0.037 A 
ENDROOT
BRANCH   2   7
HETATM    7  O   UNK N   1      28.220  16.799   7.137  0.00  0.00    -0.349 OA
BRANCH   7   8
HETATM    8  C   UNK N   1      27.861  16.104   6.006  0.00  0.00     0.209 C 
BRANCH   8   9
HETATM    9  C   UNK N   1      26.528  16.583   5.476  0.00  0.00     0.159 C 
BRANCH   9  10
HETATM   10  O   UNK N   1      26.139  15.781   4.402  0.00  0.00    -0.392 OA
HETATM   11  H   UNK N   1      25.220  15.796   4.092  0.00  0.00     0.210 HD
ENDBRANCH   9  10
BRANCH   9  12
HETATM   12  C   UNK N   1      26.720  18.012   5.012  0.00  0.00     0.147 C 
BRANCH  12  13
HETATM   13  N   UNK N   1      26.400  18.947   6.076  0.00  0.00    -0.415 N 
HETATM   14  H   UNK N   1      25.623  18.882   6.734  0.00  0.00     0.153 HD
BRANCH  13  15
HETATM   15  C   UNK N   1      27.408  19.993   6.020  0.00  0.00     0.068 C 
HETATM   16  C   UNK N   1      28.138  19.922   4.697  0.00  0.00     0.031 C 
HETATM   17  C   UNK N   1      26.753  21.354   6.164  0.00  0.00     0.031 C 
ENDBRANCH  13  15
ENDBRANCH  12  13
ENDBRANCH   9  12
ENDBRANCH   8   9
ENDBRANCH   7   8
ENDBRANCH   2   7
BRANCH   1  18
HETATM   18  C   UNK N   1      33.591  18.299   8.049  0.00  0.00     0.048 C 
BRANCH  18  19
HETATM   19  C   UNK N   1      34.479  17.067   8.121  0.00  0.00     0.115 C 
BRANCH  19  20
HETATM   20  C   UNK N   1      34.857  16.752   9.530  0.00  0.00     0.258 C 
HETATM   21  O   UNK N   1      35.491  17.563  10.190  0.00  0.00    -0.265 OA
BRANCH  20  22
HETATM   22  O   UNK N   1      34.512  15.549  10.051  0.00  0.00    -0.326 OA
HETATM   23  C   UNK N   1      33.300  14.953   9.791  0.00  0.00     0.213 C 
ENDBRANCH  20  22
ENDBRANCH  19  20
ENDBRANCH  18  19
ENDBRANCH   1  18
TORSDOF 11
ENDMDL
MODEL 5
REMARK VINA RESULT:      -5.4      7.992     11.490
REMARK  11 active torsions:
REMARK  status: ('A' for Active; 'I' for Inactive)
REMARK    1  A    between atoms: O_1  and  C_9 
REMARK    2  A    between atoms: O_1  and  C_14 
REMARK    3  A    between atoms: O_2  and  C_6 
REMARK    4  A    between atoms: O_3  and  C_20 
REMARK    5  A    between atoms: N_5  and  C_7 
REMARK    6  A    between atoms: N_5  and  C_8 
REMARK    7  A    between atoms: C_6  and  C_7 
REMARK    8  A    between atoms: C_6  and  C_9 
REMARK    9  A    between atoms: C_12  and  C_13 
REMARK   10  A    between atoms: C_13  and  C_19 
REMARK   11  A    between atoms: C_19  and  C_20 
ROOT
HETATM    1  C   UNK N   1      21.253  13.230   9.504  0.00  0.00    -0.058 A 
HETATM    2  C   UNK N   1      21.061  14.609   7.067  0.00  0.00     0.068 A 
HETATM    3  C   UNK N   1      20.845  14.569   9.481  0.00  0.00     0.010 A 
HETATM    4  C   UNK N   1      21.580  12.581   8.310  0.00  0.00     0.010 A 
HETATM    5  C   UNK N   1      20.755  15.257   8.268  0.00  0.00     0.037 A 
HETATM    6  C   UNK N   1      21.480  13.265   7.096  0.00  0.00     0.037 A 
ENDROOT
BRANCH   2   7
HETATM    7  O   UNK N   1      20.933  15.285   5.900  0.00  0.00    -0.349 OA
BRANCH   7   8
HETATM    8  C   UNK N   1      19.954  16.233   5.713  0.00  0.00     0.209 C 
BRANCH   8   9
HETATM    9  C   UNK N   1      18.963  15.789   4.661  0.00  0.00     0.159 C 
BRANCH   9  10
HETATM   10  O   UNK N   1      18.104  14.833   5.205  0.00  0.00    -0.392 OA
HETATM   11  H   UNK N   1      17.294  14.582   4.734  0.00  0.00     0.210 HD
ENDBRANCH   9  10
BRANCH   9  12
HETATM   12  C   UNK N   1      19.759  15.183   3.524  0.00  0.00     0.147 C 
BRANCH  12  13
HETATM   13  N   UNK N   1      20.533  16.201   2.835  0.00  0.00    -0.415 N 
HETATM   14  H   UNK N   1      20.970  17.023   3.253  0.00  0.00     0.153 HD
BRANCH  13  15
HETATM   15  C   UNK N   1      20.562  15.817   1.434  0.00  0.00     0.068 C 
HETATM   16  C   UNK N   1      19.743  14.560   1.236  0.00  0.00     0.031 C 
HETATM   17  C   UNK N   1      19.990  16.932   0.577  0.00  0.00     0.031 C 
ENDBRANCH  13  15
ENDBRANCH  12  13
ENDBRANCH   9  12
ENDBRANCH   8   9
ENDBRANCH   7   8
ENDBRANCH   2   7
BRANCH   1  18
HETATM   18  C   UNK N   1      21.325  12.492  10.796  0.00  0.00     0.048 C 
BRANCH  18  19
HETATM   19  C   UNK N   1      22.511  11.542  10.775  0.00  0.00     0.115 C 
BRANCH  19  20
HETATM   20  C   UNK N   1      23.510  11.897  11.826  0.00  0.00     0.258 C 
HETATM   21  O   UNK N   1      23.175  11.928  13.001  0.00  0.00    -0.265 OA
BRANCH  20  22
HETATM   22  O   UNK N   1      24.775  12.210  11.453  0.00  0.00    -0.326 OA
HETATM   23  C   UNK N   1      25.056  12.871  10.280  0.00  0.00     0.213 C 
ENDBRANCH  20  22
ENDBRANCH  19  20
ENDBRANCH  18  19
ENDBRANCH   1  18
TORSDOF 11
ENDMDL
MODEL 6
REMARK VINA RESULT:      -5.4     12.810     15.029
REMARK  11 active torsions:
REMARK  status: ('A' for Active; 'I' for Inactive)
REMARK    1  A    between atoms: O_1  and  C_9 
REMARK    2  A    between atoms: O_1  and  C_14 
REMARK    3  A    between atoms: O_2  and  C_6 
REMARK    4  A    between atoms: O_3  and  C_20 
REMARK    5  A    between atoms: N_5  and  C_7 
REMARK    6  A    between atoms: N_5  and  C_8 
REMARK    7  A    between atoms: C_6  and  C_7 
REMARK    8  A    between atoms: C_6  and  C_9 
REMARK    9  A    between atoms: C_12  and  C_13 
REMARK   10  A    between atoms: C_13  and  C_19 
REMARK   11  A    between atoms: C_19  and  C_20 
ROOT
HETATM    1  C   UNK N   1      26.675  28.826  -4.865  0.00  0.00    -0.058 A 
HETATM    2  C   UNK N   1      25.685  26.765  -6.494  0.00  0.00     0.068 A 
HETATM    3  C   UNK N   1      27.364  28.450  -6.024  0.00  0.00     0.010 A 
HETATM    4  C   UNK N   1      25.497  28.162  -4.508  0.00  0.00     0.010 A 
HETATM    5  C   UNK N   1      26.874  27.421  -6.832  0.00  0.00     0.037 A 
HETATM    6  C   UNK N   1      25.001  27.139  -5.322  0.00  0.00     0.037 A 
ENDROOT
BRANCH   2   7
HETATM    7  O   UNK N   1      25.211  25.794  -7.311  0.00  0.00    -0.349 OA
BRANCH   7   8
HETATM    8  C   UNK N   1      26.022  25.138  -8.208  0.00  0.00     0.209 C 
BRANCH   8   9
HETATM    9  C   UNK N   1      25.906  23.639  -8.048  0.00  0.00     0.159 C 
BRANCH   9  10
HETATM   10  O   UNK N   1      24.585  23.249  -8.276  0.00  0.00    -0.392 OA
HETATM   11  H   UNK N   1      23.853  23.790  -7.943  0.00  0.00     0.210 HD
ENDBRANCH   9  10
BRANCH   9  12
HETATM   12  C   UNK N   1      26.305  23.309  -6.625  0.00  0.00     0.147 C 
BRANCH  12  13
HETATM   13  N   UNK N   1      27.620  23.845  -6.321  0.00  0.00    -0.415 N 
HETATM   14  H   UNK N   1      28.342  24.109  -6.991  0.00  0.00     0.153 HD
BRANCH  13  15
HETATM   15  C   UNK N   1      27.703  23.931  -4.873  0.00  0.00     0.068 C 
HETATM   16  C   UNK N   1      28.510  25.151  -4.483  0.00  0.00     0.031 C 
HETATM   17  C   UNK N   1      26.312  24.034  -4.276  0.00  0.00     0.031 C 
ENDBRANCH  13  15
ENDBRANCH  12  13
ENDBRANCH   9  12
ENDBRANCH   8   9
ENDBRANCH   7   8
ENDBRANCH   2   7
BRANCH   1  18
HETATM   18  C   UNK N   1      27.186  29.940  -4.018  0.00  0.00     0.048 C 
BRANCH  18  19
HETATM   19  C   UNK N   1      27.450  29.430  -2.610  0.00  0.00     0.115 C 
BRANCH  19  20
HETATM   20  C   UNK N   1      28.906  29.464  -2.285  0.00  0.00     0.258 C 
HETATM   21  O   UNK N   1      29.722  29.031  -3.086  0.00  0.00    -0.265 OA
BRANCH  20  22
HETATM   22  O   UNK N   1      29.301  29.952  -1.084  0.00  0.00    -0.326 OA
HETATM   23  C   UNK N   1      28.466  29.989   0.008  0.00  0.00     0.213 C 
ENDBRANCH  20  22
ENDBRANCH  19  20
ENDBRANCH  18  19
ENDBRANCH   1  18
TORSDOF 11
ENDMDL
MODEL 7
REMARK VINA RESULT:      -5.4     13.023     14.393
REMARK  11 active torsions:
REMARK  status: ('A' for Active; 'I' for Inactive)
REMARK    1  A    between atoms: O_1  and  C_9 
REMARK    2  A    between atoms: O_1  and  C_14 
REMARK    3  A    between atoms: O_2  and  C_6 
REMARK    4  A    between atoms: O_3  and  C_20 
REMARK    5  A    between atoms: N_5  and  C_7 
REMARK    6  A    between atoms: N_5  and  C_8 
REMARK    7  A    between atoms: C_6  and  C_7 
REMARK    8  A    between atoms: C_6  and  C_9 
REMARK    9  A    between atoms: C_12  and  C_13 
REMARK   10  A    between atoms: C_13  and  C_19 
REMARK   11  A    between atoms: C_19  and  C_20 
ROOT
HETATM    1  C   UNK N   1      25.873  24.928  -5.331  0.00  0.00    -0.058 A 
HETATM    2  C   UNK N   1      25.798  27.325  -3.872  0.00  0.00     0.068 A 
HETATM    3  C   UNK N   1      25.251  26.063  -5.868  0.00  0.00     0.010 A 
HETATM    4  C   UNK N   1      26.444  24.985  -4.057  0.00  0.00     0.010 A 
HETATM    5  C   UNK N   1      25.210  27.254  -5.139  0.00  0.00     0.037 A 
HETATM    6  C   UNK N   1      26.413  26.179  -3.332  0.00  0.00     0.037 A 
ENDROOT
BRANCH   2   7
HETATM    7  O   UNK N   1      25.776  28.500  -3.198  0.00  0.00    -0.349 OA
BRANCH   7   8
HETATM    8  C   UNK N   1      26.670  29.510  -3.469  0.00  0.00     0.209 C 
BRANCH   8   9
HETATM    9  C   UNK N   1      27.835  29.475  -2.506  0.00  0.00     0.159 C 
BRANCH   9  10
HETATM   10  O   UNK N   1      27.965  30.719  -1.887  0.00  0.00    -0.392 OA
HETATM   11  H   UNK N   1      27.514  31.495  -2.255  0.00  0.00     0.210 HD
ENDBRANCH   9  10
BRANCH   9  12
HETATM   12  C   UNK N   1      29.076  29.168  -3.316  0.00  0.00     0.147 C 
BRANCH  12  13
HETATM   13  N   UNK N   1      28.726  28.804  -4.679  0.00  0.00    -0.415 N 
HETATM   14  H   UNK N   1      27.989  29.217  -5.251  0.00  0.00     0.153 HD
BRANCH  13  15
HETATM   15  C   UNK N   1      29.634  27.738  -5.066  0.00  0.00     0.068 C 
HETATM   16  C   UNK N   1      29.984  26.905  -3.852  0.00  0.00     0.031 C 
HETATM   17  C   UNK N   1      28.983  26.855  -6.114  0.00  0.00     0.031 C 
ENDBRANCH  13  15
ENDBRANCH  12  13
ENDBRANCH   9  12
ENDBRANCH   8   9
ENDBRANCH   7   8
ENDBRANCH   2   7
BRANCH   1  18
HETATM   18  C   UNK N   1      25.937  23.667  -6.121  0.00  0.00     0.048 C 
BRANCH  18  19
HETATM   19  C   UNK N   1      26.425  23.971  -7.528  0.00  0.00     0.115 C 
BRANCH  19  20
HETATM   20  C   UNK N   1      25.611  23.251  -8.552  0.00  0.00     0.258 C 
HETATM   21  O   UNK N   1      24.401  23.151  -8.411  0.00  0.00    -0.265 OA
BRANCH  20  22
HETATM   22  O   UNK N   1      26.237  22.691  -9.616  0.00  0.00    -0.326 OA
HETATM   23  C   UNK N   1      26.054  21.375  -9.970  0.00  0.00     0.213 C 
ENDBRANCH  20  22
ENDBRANCH  19  20
ENDBRANCH  18  19
ENDBRANCH   1  18
TORSDOF 11
ENDMDL
MODEL 8
REMARK VINA RESULT:      -5.3      8.768     14.169
REMARK  11 active torsions:
REMARK  status: ('A' for Active; 'I' for Inactive)
REMARK    1  A    between atoms: O_1  and  C_9 
REMARK    2  A    between atoms: O_1  and  C_14 
REMARK    3  A    between atoms: O_2  and  C_6 
REMARK    4  A    between atoms: O_3  and  C_20 
REMARK    5  A    between atoms: N_5  and  C_7 
REMARK    6  A    between atoms: N_5  and  C_8 
REMARK    7  A    between atoms: C_6  and  C_7 
REMARK    8  A    between atoms: C_6  and  C_9 
REMARK    9  A    between atoms: C_12  and  C_13 
REMARK   10  A    between atoms: C_13  and  C_19 
REMARK   11  A    between atoms: C_19  and  C_20 
ROOT
HETATM    1  C   UNK N   1      35.278  12.489  16.215  0.00  0.00    -0.058 A 
HETATM    2  C   UNK N   1      35.239  12.993  13.454  0.00  0.00     0.068 A 
HETATM    3  C   UNK N   1      36.100  13.481  15.667  0.00  0.00     0.010 A 
HETATM    4  C   UNK N   1      34.446  11.735  15.382  0.00  0.00     0.010 A 
HETATM    5  C   UNK N   1      36.084  13.728  14.292  0.00  0.00     0.037 A 
HETATM    6  C   UNK N   1      34.422  11.990  14.008  0.00  0.00     0.037 A 
ENDROOT
BRANCH   2   7
HETATM    7  O   UNK N   1      35.215  13.273  12.129  0.00  0.00    -0.349 OA
BRANCH   7   8
HETATM    8  C   UNK N   1      35.805  14.405  11.614  0.00  0.00     0.209 C 
BRANCH   8   9
HETATM    9  C   UNK N   1      34.765  15.445  11.262  0.00  0.00     0.159 C 
BRANCH   9  10
HETATM   10  O   UNK N   1      33.502  14.852  11.246  0.00  0.00    -0.392 OA
HETATM   11  H   UNK N   1      32.830  15.154  10.614  0.00  0.00     0.210 HD
ENDBRANCH   9  10
BRANCH   9  12
HETATM   12  C   UNK N   1      35.108  15.971   9.884  0.00  0.00     0.147 C 
BRANCH  12  13
HETATM   13  N   UNK N   1      34.739  17.370   9.760  0.00  0.00    -0.415 N 
HETATM   14  H   UNK N   1      34.791  18.082  10.489  0.00  0.00     0.153 HD
BRANCH  13  15
HETATM   15  C   UNK N   1      34.284  17.556   8.393  0.00  0.00     0.068 C 
HETATM   16  C   UNK N   1      34.559  16.301   7.593  0.00  0.00     0.031 C 
HETATM   17  C   UNK N   1      32.795  17.849   8.375  0.00  0.00     0.031 C 
ENDBRANCH  13  15
ENDBRANCH  12  13
ENDBRANCH   9  12
ENDBRANCH   8   9
ENDBRANCH   7   8
ENDBRANCH   2   7
BRANCH   1  18
HETATM   18  C   UNK N   1      35.279  12.244  17.684  0.00  0.00     0.048 C 
BRANCH  18  19
HETATM   19  C   UNK N   1      35.673  10.801  17.960  0.00  0.00     0.115 C 
BRANCH  19  20
HETATM   20  C   UNK N   1      34.766  10.175  18.967  0.00  0.00     0.258 C 
HETATM   21  O   UNK N   1      34.788  10.555  20.129  0.00  0.00    -0.265 OA
BRANCH  20  22
HETATM   22  O   UNK N   1      33.947   9.168  18.578  0.00  0.00    -0.326 OA
HETATM   23  C   UNK N   1      33.504   8.200  19.449  0.00  0.00     0.213 C 
ENDBRANCH  20  22
ENDBRANCH  19  20
ENDBRANCH  18  19
ENDBRANCH   1  18
TORSDOF 11
ENDMDL
MODEL 9
REMARK VINA RESULT:      -5.3     10.910     14.151
REMARK  11 active torsions:
REMARK  status: ('A' for Active; 'I' for Inactive)
REMARK    1  A    between atoms: O_1  and  C_9 
REMARK    2  A    between atoms: O_1  and  C_14 
REMARK    3  A    between atoms: O_2  and  C_6 
REMARK    4  A    between atoms: O_3  and  C_20 
REMARK    5  A    between atoms: N_5  and  C_7 
REMARK    6  A    between atoms: N_5  and  C_8 
REMARK    7  A    between atoms: C_6  and  C_7 
REMARK    8  A    between atoms: C_6  and  C_9 
REMARK    9  A    between atoms: C_12  and  C_13 
REMARK   10  A    between atoms: C_13  and  C_19 
REMARK   11  A    between atoms: C_19  and  C_20 
ROOT
HETATM    1  C   UNK N   1      28.731  24.466  -4.169  0.00  0.00    -0.058 A 
HETATM    2  C   UNK N   1      26.472  23.725  -5.662  0.00  0.00     0.068 A 
HETATM    3  C   UNK N   1      28.876  23.971  -5.471  0.00  0.00     0.010 A 
HETATM    4  C   UNK N   1      27.457  24.578  -3.605  0.00  0.00     0.010 A 
HETATM    5  C   UNK N   1      27.752  23.598  -6.212  0.00  0.00     0.037 A 
HETATM    6  C   UNK N   1      26.331  24.214  -4.349  0.00  0.00     0.037 A 
ENDROOT
BRANCH   2   7
HETATM    7  O   UNK N   1      25.394  23.389  -6.411  0.00  0.00    -0.349 OA
BRANCH   7   8
HETATM    8  C   UNK N   1      25.451  23.340  -7.785  0.00  0.00     0.209 C 
BRANCH   8   9
HETATM    9  C   UNK N   1      24.707  22.135  -8.314  0.00  0.00     0.159 C 
BRANCH   9  10
HETATM   10  O   UNK N   1      24.035  21.505  -7.265  0.00  0.00    -0.392 OA
HETATM   11  H   UNK N   1      24.302  21.670  -6.347  0.00  0.00     0.210 HD
ENDBRANCH   9  10
BRANCH   9  12
HETATM   12  C   UNK N   1      25.737  21.196  -8.906  0.00  0.00     0.147 C 
BRANCH  12  13
HETATM   13  N   UNK N   1      26.734  20.834  -7.913  0.00  0.00    -0.415 N 
HETATM   14  H   UNK N   1      26.596  20.769  -6.904  0.00  0.00     0.153 HD
BRANCH  13  15
HETATM   15  C   UNK N   1      27.965  20.579  -8.641  0.00  0.00     0.068 C 
HETATM   16  C   UNK N   1      28.332  21.798  -9.459  0.00  0.00     0.031 C 
HETATM   17  C   UNK N   1      29.089  20.265  -7.671  0.00  0.00     0.031 C 
ENDBRANCH  13  15
ENDBRANCH  12  13
ENDBRANCH   9  12
ENDBRANCH   8   9
ENDBRANCH   7   8
ENDBRANCH   2   7
BRANCH   1  18
HETATM   18  C   UNK N   1      29.929  24.887  -3.391  0.00  0.00     0.048 C 
BRANCH  18  19
HETATM   19  C   UNK N   1      31.016  23.832  -3.521  0.00  0.00     0.115 C 
BRANCH  19  20
HETATM   20  C   UNK N   1      30.872  22.773  -2.480  0.00  0.00     0.258 C 
HETATM   21  O   UNK N   1      30.383  23.046  -1.394  0.00  0.00    -0.265 OA
BRANCH  20  22
HETATM   22  O   UNK N   1      31.315  21.520  -2.750  0.00  0.00    -0.326 OA
HETATM   23  C   UNK N   1      30.921  20.823  -3.868  0.00  0.00     0.213 C 
ENDBRANCH  20  22
ENDBRANCH  19  20
ENDBRANCH  18  19
ENDBRANCH   1  18
TORSDOF 11
ENDMDL
