MODEL 1
REMARK VINA RESULT:      -5.3      0.000      0.000
REMARK  3 active torsions:
REMARK  status: ('A' for Active; 'I' for Inactive)
REMARK    1  A    between atoms: N_1  and  C_2 
REMARK    2  A    between atoms: C_2  and  C_3 
REMARK    3  A    between atoms: C_3  and  C_6 
ROOT
HETATM    1  C   UNK N   1      35.260  13.150  15.391  0.00  0.00     0.068 C 
ENDROOT
BRANCH   1   2
HETATM    2  C   UNK N   1      36.527  13.765  14.782  0.00  0.00     0.019 C 
HETATM    3  C   UNK N   1      36.214  14.385  13.433  0.00  0.00     0.037 C 
HETATM    4  C   UNK N   1      37.150  14.819  15.681  0.00  0.00     0.037 C 
BRANCH   2   5
HETATM    5  N   UNK N   1      37.497  12.703  14.588  0.00  0.00    -0.422 N 
HETATM    6  H   UNK N   1      37.348  11.695  14.627  0.00  0.00     0.150 HD
HETATM    7  H   UNK N   1      38.450  13.003  14.386  0.00  0.00     0.150 HD
ENDBRANCH   2   5
ENDBRANCH   1   2
BRANCH   1   8
HETATM    8  C   UNK N   1      35.369  12.666  16.811  0.00  0.00    -0.056 A 
HETATM    9  C   UNK N   1      35.658  11.322  17.076  0.00  0.00     0.007 A 
HETATM   10  C   UNK N   1      35.697  10.857  18.394  0.00  0.00     0.001 A 
HETATM   11  C   UNK N   1      35.438  11.734  19.450  0.00  0.00     0.000 A 
HETATM   12  C   UNK N   1      35.140  13.075  19.190  0.00  0.00     0.001 A 
HETATM   13  C   UNK N   1      35.099  13.541  17.869  0.00  0.00     0.007 A 
ENDBRANCH   1   8
TORSDOF 3
ENDMDL
MODEL 2
REMARK VINA RESULT:      -5.2      0.073      1.462
REMARK  3 active torsions:
REMARK  status: ('A' for Active; 'I' for Inactive)
REMARK    1  A    between atoms: N_1  and  C_2 
REMARK    2  A    between atoms: C_2  and  C_3 
REMARK    3  A    between atoms: C_3  and  C_6 
ROOT
HETATM    1  C   UNK N   1      35.219  13.175  15.357  0.00  0.00     0.068 C 
ENDROOT
BRANCH   1   2
HETATM    2  C   UNK N   1      36.522  13.767  14.802  0.00  0.00     0.019 C 
HETATM    3  C   UNK N   1      36.270  14.419  13.456  0.00  0.00     0.037 C 
HETATM    4  C   UNK N   1      37.141  14.787  15.741  0.00  0.00     0.037 C 
BRANCH   2   5
HETATM    5  N   UNK N   1      37.469  12.683  14.621  0.00  0.00    -0.422 N 
HETATM    6  H   UNK N   1      38.482  12.700  14.740  0.00  0.00     0.150 HD
HETATM    7  H   UNK N   1      37.071  11.788  14.336  0.00  0.00     0.150 HD
ENDBRANCH   2   5
ENDBRANCH   1   2
BRANCH   1   8
HETATM    8  C   UNK N   1      35.272  12.650  16.766  0.00  0.00    -0.056 A 
HETATM    9  C   UNK N   1      35.064  13.513  17.848  0.00  0.00     0.007 A 
HETATM   10  C   UNK N   1      35.176  13.040  19.159  0.00  0.00     0.001 A 
HETATM   11  C   UNK N   1      35.506  11.703  19.390  0.00  0.00     0.000 A 
HETATM   12  C   UNK N   1      35.724  10.838  18.313  0.00  0.00     0.001 A 
HETATM   13  C   UNK N   1      35.614  11.313  17.000  0.00  0.00     0.007 A 
ENDBRANCH   1   8
TORSDOF 3
ENDMDL
MODEL 3
REMARK VINA RESULT:      -5.0      0.831      1.288
REMARK  3 active torsions:
REMARK  status: ('A' for Active; 'I' for Inactive)
REMARK    1  A    between atoms: N_1  and  C_2 
REMARK    2  A    between atoms: C_2  and  C_3 
REMARK    3  A    between atoms: C_3  and  C_6 
ROOT
HETATM    1  C   UNK N   1      35.128  13.069  15.345  0.00  0.00     0.068 C 
ENDROOT
BRANCH   1   2
HETATM    2  C   UNK N   1      36.426  13.378  14.588  0.00  0.00     0.019 C 
HETATM    3  C   UNK N   1      37.224  12.106  14.373  0.00  0.00     0.037 C 
HETATM    4  C   UNK N   1      36.170  14.039  13.245  0.00  0.00     0.037 C 
BRANCH   2   5
HETATM    5  N   UNK N   1      37.216  14.287  15.398  0.00  0.00    -0.422 N 
HETATM    6  H   UNK N   1      37.446  15.263  15.213  0.00  0.00     0.150 HD
HETATM    7  H   UNK N   1      37.589  13.899  16.264  0.00  0.00     0.150 HD
ENDBRANCH   2   5
ENDBRANCH   1   2
BRANCH   1   8
HETATM    8  C   UNK N   1      35.275  12.684  16.793  0.00  0.00    -0.056 A 
HETATM    9  C   UNK N   1      35.510  11.351  17.146  0.00  0.00     0.007 A 
HETATM   10  C   UNK N   1      35.584  10.982  18.493  0.00  0.00     0.001 A 
HETATM   11  C   UNK N   1      35.412  11.945  19.489  0.00  0.00     0.000 A 
HETATM   12  C   UNK N   1      35.167  13.277  19.141  0.00  0.00     0.001 A 
HETATM   13  C   UNK N   1      35.092  13.646  17.792  0.00  0.00     0.007 A 
ENDBRANCH   1   8
TORSDOF 3
ENDMDL
MODEL 4
REMARK VINA RESULT:      -4.7      2.060      3.016
REMARK  3 active torsions:
REMARK  status: ('A' for Active; 'I' for Inactive)
REMARK    1  A    between atoms: N_1  and  C_2 
REMARK    2  A    between atoms: C_2  and  C_3 
REMARK    3  A    between atoms: C_3  and  C_6 
ROOT
HETATM    1  C   UNK N   1      36.022  11.671  14.832  0.00  0.00     0.068 C 
ENDROOT
BRANCH   1   2
HETATM    2  C   UNK N   1      34.869  11.153  13.962  0.00  0.00     0.019 C 
HETATM    3  C   UNK N   1      35.309   9.927  13.184  0.00  0.00     0.037 C 
HETATM    4  C   UNK N   1      33.636  10.809  14.778  0.00  0.00     0.037 C 
BRANCH   2   5
HETATM    5  N   UNK N   1      34.512  12.195  13.017  0.00  0.00    -0.422 N 
HETATM    6  H   UNK N   1      33.731  12.216  12.362  0.00  0.00     0.150 HD
HETATM    7  H   UNK N   1      35.122  13.012  13.007  0.00  0.00     0.150 HD
ENDBRANCH   2   5
ENDBRANCH   1   2
BRANCH   1   8
HETATM    8  C   UNK N   1      35.691  11.967  16.270  0.00  0.00    -0.056 A 
HETATM    9  C   UNK N   1      35.341  13.266  16.658  0.00  0.00     0.007 A 
HETATM   10  C   UNK N   1      35.096  13.557  18.004  0.00  0.00     0.001 A 
HETATM   11  C   UNK N   1      35.208  12.550  18.966  0.00  0.00     0.000 A 
HETATM   12  C   UNK N   1      35.566  11.253  18.584  0.00  0.00     0.001 A 
HETATM   13  C   UNK N   1      35.814  10.963  17.236  0.00  0.00     0.007 A 
ENDBRANCH   1   8
TORSDOF 3
ENDMDL
MODEL 5
REMARK VINA RESULT:      -4.7     25.937     27.935
REMARK  3 active torsions:
REMARK  status: ('A' for Active; 'I' for Inactive)
REMARK    1  A    between atoms: N_1  and  C_2 
REMARK    2  A    between atoms: C_2  and  C_3 
REMARK    3  A    between atoms: C_3  and  C_6 
ROOT
HETATM    1  C   UNK N   1      25.397  26.066  -6.031  0.00  0.00     0.068 C 
ENDROOT
BRANCH   1   2
HETATM    2  C   UNK N   1      26.083  24.753  -5.631  0.00  0.00     0.019 C 
HETATM    3  C   UNK N   1      27.407  24.610  -6.358  0.00  0.00     0.037 C 
HETATM    4  C   UNK N   1      26.323  24.657  -4.134  0.00  0.00     0.037 C 
BRANCH   2   5
HETATM    5  N   UNK N   1      25.220  23.654  -6.023  0.00  0.00    -0.422 N 
HETATM    6  H   UNK N   1      24.765  22.963  -5.428  0.00  0.00     0.150 HD
HETATM    7  H   UNK N   1      25.047  23.561  -7.023  0.00  0.00     0.150 HD
ENDBRANCH   2   5
ENDBRANCH   1   2
BRANCH   1   8
HETATM    8  C   UNK N   1      26.039  27.333  -5.532  0.00  0.00    -0.056 A 
HETATM    9  C   UNK N   1      25.574  27.943  -4.361  0.00  0.00     0.007 A 
HETATM   10  C   UNK N   1      26.127  29.154  -3.932  0.00  0.00     0.001 A 
HETATM   11  C   UNK N   1      27.139  29.761  -4.679  0.00  0.00     0.000 A 
HETATM   12  C   UNK N   1      27.600  29.160  -5.854  0.00  0.00     0.001 A 
HETATM   13  C   UNK N   1      27.045  27.948  -6.285  0.00  0.00     0.007 A 
ENDBRANCH   1   8
TORSDOF 3
ENDMDL
MODEL 6
REMARK VINA RESULT:      -4.4     10.854     13.617
REMARK  3 active torsions:
REMARK  status: ('A' for Active; 'I' for Inactive)
REMARK    1  A    between atoms: N_1  and  C_2 
REMARK    2  A    between atoms: C_2  and  C_3 
REMARK    3  A    between atoms: C_3  and  C_6 
ROOT
HETATM    1  C   UNK N   1      28.367  17.603   8.296  0.00  0.00     0.068 C 
ENDROOT
BRANCH   1   2
HETATM    2  C   UNK N   1      29.725  17.588   9.009  0.00  0.00     0.019 C 
HETATM    3  C   UNK N   1      30.729  16.779   8.209  0.00  0.00     0.037 C 
HETATM    4  C   UNK N   1      30.277  18.985   9.233  0.00  0.00     0.037 C 
BRANCH   2   5
HETATM    5  N   UNK N   1      29.550  16.956  10.304  0.00  0.00    -0.422 N 
HETATM    6  H   UNK N   1      30.123  16.234  10.739  0.00  0.00     0.150 HD
HETATM    7  H   UNK N   1      28.749  17.274  10.848  0.00  0.00     0.150 HD
ENDBRANCH   2   5
ENDBRANCH   1   2
BRANCH   1   8
HETATM    8  C   UNK N   1      28.253  18.505   7.097  0.00  0.00    -0.056 A 
HETATM    9  C   UNK N   1      27.687  19.779   7.226  0.00  0.00     0.007 A 
HETATM   10  C   UNK N   1      27.522  20.593   6.101  0.00  0.00     0.001 A 
HETATM   11  C   UNK N   1      27.914  20.130   4.843  0.00  0.00     0.000 A 
HETATM   12  C   UNK N   1      28.471  18.855   4.707  0.00  0.00     0.001 A 
HETATM   13  C   UNK N   1      28.634  18.038   5.834  0.00  0.00     0.007 A 
ENDBRANCH   1   8
TORSDOF 3
ENDMDL
MODEL 7
REMARK VINA RESULT:      -4.3     11.712     13.891
REMARK  3 active torsions:
REMARK  status: ('A' for Active; 'I' for Inactive)
REMARK    1  A    between atoms: N_1  and  C_2 
REMARK    2  A    between atoms: C_2  and  C_3 
REMARK    3  A    between atoms: C_3  and  C_6 
ROOT
HETATM    1  C   UNK N   1      27.299  18.556   5.989  0.00  0.00     0.068 C 
ENDROOT
BRANCH   1   2
HETATM    2  C   UNK N   1      27.360  19.871   5.200  0.00  0.00     0.019 C 
HETATM    3  C   UNK N   1      26.067  20.086   4.438  0.00  0.00     0.037 C 
HETATM    4  C   UNK N   1      27.617  21.072   6.095  0.00  0.00     0.037 C 
BRANCH   2   5
HETATM    5  N   UNK N   1      28.449  19.775   4.246  0.00  0.00    -0.422 N 
HETATM    6  H   UNK N   1      28.577  20.294   3.378  0.00  0.00     0.150 HD
HETATM    7  H   UNK N   1      29.179  19.101   4.472  0.00  0.00     0.150 HD
ENDBRANCH   2   5
ENDBRANCH   1   2
BRANCH   1   8
HETATM    8  C   UNK N   1      28.402  18.324   6.986  0.00  0.00    -0.056 A 
HETATM    9  C   UNK N   1      29.545  17.605   6.615  0.00  0.00     0.007 A 
HETATM   10  C   UNK N   1      30.542  17.333   7.557  0.00  0.00     0.001 A 
HETATM   11  C   UNK N   1      30.393  17.772   8.875  0.00  0.00     0.000 A 
HETATM   12  C   UNK N   1      29.249  18.482   9.252  0.00  0.00     0.001 A 
HETATM   13  C   UNK N   1      28.249  18.753   8.309  0.00  0.00     0.007 A 
ENDBRANCH   1   8
TORSDOF 3
ENDMDL
MODEL 8
REMARK VINA RESULT:      -4.3      9.997     12.309
REMARK  3 active torsions:
REMARK  status: ('A' for Active; 'I' for Inactive)
REMARK    1  A    between atoms: N_1  and  C_2 
REMARK    2  A    between atoms: C_2  and  C_3 
REMARK    3  A    between atoms: C_3  and  C_6 
ROOT
HETATM    1  C   UNK N   1      33.913  17.502   7.062  0.00  0.00     0.068 C 
ENDROOT
BRANCH   1   2
HETATM    2  C   UNK N   1      32.944  17.010   8.146  0.00  0.00     0.019 C 
HETATM    3  C   UNK N   1      31.835  18.023   8.356  0.00  0.00     0.037 C 
HETATM    4  C   UNK N   1      32.331  15.663   7.807  0.00  0.00     0.037 C 
BRANCH   2   5
HETATM    5  N   UNK N   1      33.685  16.873   9.386  0.00  0.00    -0.422 N 
HETATM    6  H   UNK N   1      34.688  16.744   9.513  0.00  0.00     0.150 HD
HETATM    7  H   UNK N   1      33.130  16.910  10.241  0.00  0.00     0.150 HD
ENDBRANCH   2   5
ENDBRANCH   1   2
BRANCH   1   8
HETATM    8  C   UNK N   1      33.677  16.982   5.670  0.00  0.00    -0.056 A 
HETATM    9  C   UNK N   1      32.822  17.668   4.799  0.00  0.00     0.007 A 
HETATM   10  C   UNK N   1      32.551  17.152   3.528  0.00  0.00     0.001 A 
HETATM   11  C   UNK N   1      33.127  15.944   3.129  0.00  0.00     0.000 A 
HETATM   12  C   UNK N   1      33.974  15.251   3.998  0.00  0.00     0.001 A 
HETATM   13  C   UNK N   1      34.244  15.767   5.273  0.00  0.00     0.007 A 
ENDBRANCH   1   8
TORSDOF 3
ENDMDL
MODEL 9
REMARK VINA RESULT:      -4.3     11.299     12.908
REMARK  3 active torsions:
REMARK  status: ('A' for Active; 'I' for Inactive)
REMARK    1  A    between atoms: N_1  and  C_2 
REMARK    2  A    between atoms: C_2  and  C_3 
REMARK    3  A    between atoms: C_3  and  C_6 
ROOT
HETATM    1  C   UNK N   1      29.395  16.463   5.873  0.00  0.00     0.068 C 
ENDROOT
BRANCH   1   2
HETATM    2  C   UNK N   1      29.309  17.395   4.657  0.00  0.00     0.019 C 
HETATM    3  C   UNK N   1      28.653  16.679   3.492  0.00  0.00     0.037 C 
HETATM    4  C   UNK N   1      28.538  18.669   4.957  0.00  0.00     0.037 C 
BRANCH   2   5
HETATM    5  N   UNK N   1      30.659  17.762   4.271  0.00  0.00    -0.422 N 
HETATM    6  H   UNK N   1      31.484  17.165   4.207  0.00  0.00     0.150 HD
HETATM    7  H   UNK N   1      30.803  18.743   4.035  0.00  0.00     0.150 HD
ENDBRANCH   2   5
ENDBRANCH   1   2
BRANCH   1   8
HETATM    8  C   UNK N   1      29.401  17.127   7.223  0.00  0.00    -0.056 A 
HETATM    9  C   UNK N   1      28.203  17.304   7.925  0.00  0.00     0.007 A 
HETATM   10  C   UNK N   1      28.198  17.978   9.150  0.00  0.00     0.001 A 
HETATM   11  C   UNK N   1      29.391  18.483   9.672  0.00  0.00     0.000 A 
HETATM   12  C   UNK N   1      30.589  18.316   8.971  0.00  0.00     0.001 A 
HETATM   13  C   UNK N   1      30.594  17.643   7.742  0.00  0.00     0.007 A 
ENDBRANCH   1   8
TORSDOF 3
ENDMDL
