MODEL 1
REMARK VINA RESULT:      -6.8      0.000      0.000
REMARK  6 active torsions:
REMARK  status: ('A' for Active; 'I' for Inactive)
REMARK    1  A    between atoms: N_2  and  C_12 
REMARK    2  A    between atoms: N_2  and  C_21 
REMARK       I    between atoms: N_3  and  C_11 
REMARK    3  A    between atoms: C_4  and  C_5 
REMARK    4  A    between atoms: C_4  and  C_11 
REMARK    5  A    between atoms: C_5  and  C_10 
REMARK    6  A    between atoms: C_10  and  C_12 
ROOT
HETATM    1  C   UNK N   1      35.654  11.544  15.398  0.00  0.00     0.096 A 
HETATM    2  C   UNK N   1      35.756  10.060  15.720  0.00  0.00    -0.025 A 
HETATM    3  C   UNK N   1      35.477  12.081  16.816  0.00  0.00    -0.025 A 
HETATM    4  C   UNK N   1      35.625   9.816  17.073  0.00  0.00    -0.018 A 
HETATM    5  C   UNK N   1      35.467  11.067  17.752  0.00  0.00    -0.018 A 
HETATM    6  C   UNK N   1      35.923   9.001  14.822  0.00  0.00     0.009 A 
HETATM    7  C   UNK N   1      35.346  13.415  17.217  0.00  0.00     0.009 A 
HETATM    8  C   UNK N   1      35.649   8.525  17.597  0.00  0.00     0.013 A 
HETATM    9  C   UNK N   1      35.327  11.319  19.115  0.00  0.00     0.013 A 
HETATM   10  C   UNK N   1      35.949   7.688  15.325  0.00  0.00     0.001 A 
HETATM   11  C   UNK N   1      35.208  13.698  18.585  0.00  0.00     0.001 A 
HETATM   12  C   UNK N   1      35.810   7.451  16.707  0.00  0.00     0.001 A 
HETATM   13  C   UNK N   1      35.198  12.654  19.531  0.00  0.00     0.001 A 
ENDROOT
BRANCH   1  14
HETATM   14  C   UNK N   1      36.948  12.103  14.782  0.00  0.00     0.031 C 
BRANCH  14  15
HETATM   15  C   UNK N   1      37.405  11.242  13.604  0.00  0.00     0.021 C 
BRANCH  15  16
HETATM   16  C   UNK N   1      37.479  12.019  12.300  0.00  0.00     0.114 C 
BRANCH  16  17
HETATM   17  N   UNK N   1      37.190  13.436  12.520  0.00  0.00    -0.418 N 
HETATM   18  H   UNK N   1      37.327  13.929  13.402  0.00  0.00     0.153 HD
BRANCH  17  19
HETATM   19  C   UNK N   1      36.679  14.046  11.292  0.00  0.00     0.068 C 
HETATM   20  C   UNK N   1      35.748  13.072  10.599  0.00  0.00     0.031 C 
HETATM   21  C   UNK N   1      35.915  15.325  11.593  0.00  0.00     0.031 C 
ENDBRANCH  17  19
ENDBRANCH  16  17
ENDBRANCH  15  16
ENDBRANCH  14  15
ENDBRANCH   1  14
BRANCH   1  22
HETATM   22  C   UNK N   1      34.461  11.789  14.489  0.00  0.00     0.233 C 
HETATM   23  O   UNK N   1      34.422  12.798  13.799  0.00  0.00    -0.272 OA
HETATM   24  N   UNK N   1      33.438  10.913  14.435  0.00  0.00    -0.369 N 
HETATM   25  H   UNK N   1      32.498  10.665  14.281  0.00  0.00     0.159 HD
HETATM   26  H   UNK N   1      33.858  10.059  14.688  0.00  0.00     0.159 HD
ENDBRANCH   1  22
TORSDOF 6
ENDMDL
MODEL 2
REMARK VINA RESULT:      -6.8     23.976     26.898
REMARK  6 active torsions:
REMARK  status: ('A' for Active; 'I' for Inactive)
REMARK    1  A    between atoms: N_2  and  C_12 
REMARK    2  A    between atoms: N_2  and  C_21 
REMARK       I    between atoms: N_3  and  C_11 
REMARK    3  A    between atoms: C_4  and  C_5 
REMARK    4  A    between atoms: C_4  and  C_11 
REMARK    5  A    between atoms: C_5  and  C_10 
REMARK    6  A    between atoms: C_10  and  C_12 
ROOT
HETATM    1  C   UNK N   1      26.756  27.104  -4.625  0.00  0.00     0.096 A 
HETATM    2  C   UNK N   1      27.559  25.879  -4.213  0.00  0.00    -0.025 A 
HETATM    3  C   UNK N   1      27.803  27.790  -5.498  0.00  0.00    -0.025 A 
HETATM    4  C   UNK N   1      28.837  25.900  -4.739  0.00  0.00    -0.018 A 
HETATM    5  C   UNK N   1      28.982  27.074  -5.545  0.00  0.00    -0.018 A 
HETATM    6  C   UNK N   1      27.154  24.831  -3.381  0.00  0.00     0.009 A 
HETATM    7  C   UNK N   1      27.673  28.986  -6.212  0.00  0.00     0.009 A 
HETATM    8  C   UNK N   1      29.765  24.897  -4.465  0.00  0.00     0.013 A 
HETATM    9  C   UNK N   1      30.079  27.504  -6.288  0.00  0.00     0.013 A 
HETATM   10  C   UNK N   1      28.072  23.808  -3.088  0.00  0.00     0.001 A 
HETATM   11  C   UNK N   1      28.762  29.439  -6.974  0.00  0.00     0.001 A 
HETATM   12  C   UNK N   1      29.374  23.842  -3.625  0.00  0.00     0.001 A 
HETATM   13  C   UNK N   1      29.962  28.701  -7.012  0.00  0.00     0.001 A 
ENDROOT
BRANCH   1  14
HETATM   14  C   UNK N   1      25.522  26.741  -5.471  0.00  0.00     0.031 C 
BRANCH  14  15
HETATM   15  C   UNK N   1      25.902  26.576  -6.943  0.00  0.00     0.021 C 
BRANCH  15  16
HETATM   16  C   UNK N   1      25.883  25.125  -7.396  0.00  0.00     0.114 C 
BRANCH  16  17
HETATM   17  N   UNK N   1      25.247  24.272  -6.392  0.00  0.00    -0.418 N 
HETATM   18  H   UNK N   1      24.453  24.546  -5.814  0.00  0.00     0.153 HD
BRANCH  17  19
HETATM   19  C   UNK N   1      25.913  22.971  -6.336  0.00  0.00     0.068 C 
HETATM   20  C   UNK N   1      25.208  22.008  -7.269  0.00  0.00     0.031 C 
HETATM   21  C   UNK N   1      27.369  23.082  -6.754  0.00  0.00     0.031 C 
ENDBRANCH  17  19
ENDBRANCH  16  17
ENDBRANCH  15  16
ENDBRANCH  14  15
ENDBRANCH   1  14
BRANCH   1  22
HETATM   22  C   UNK N   1      26.362  27.896  -3.390  0.00  0.00     0.233 C 
HETATM   23  O   UNK N   1      25.199  27.891  -3.012  0.00  0.00    -0.272 OA
HETATM   24  N   UNK N   1      27.276  28.614  -2.706  0.00  0.00    -0.369 N 
HETATM   25  H   UNK N   1      27.555  29.354  -2.119  0.00  0.00     0.159 HD
HETATM   26  H   UNK N   1      28.121  28.146  -2.897  0.00  0.00     0.159 HD
ENDBRANCH   1  22
TORSDOF 6
ENDMDL
MODEL 3
REMARK VINA RESULT:      -6.7     10.018     13.538
REMARK  6 active torsions:
REMARK  status: ('A' for Active; 'I' for Inactive)
REMARK    1  A    between atoms: N_2  and  C_12 
REMARK    2  A    between atoms: N_2  and  C_21 
REMARK       I    between atoms: N_3  and  C_11 
REMARK    3  A    between atoms: C_4  and  C_5 
REMARK    4  A    between atoms: C_4  and  C_11 
REMARK    5  A    between atoms: C_5  and  C_10 
REMARK    6  A    between atoms: C_10  and  C_12 
ROOT
HETATM    1  C   UNK N   1      28.795  17.747   7.274  0.00  0.00     0.096 A 
HETATM    2  C   UNK N   1      28.176  18.931   6.546  0.00  0.00    -0.025 A 
HETATM    3  C   UNK N   1      29.168  16.894   6.064  0.00  0.00    -0.025 A 
HETATM    4  C   UNK N   1      28.176  18.750   5.176  0.00  0.00    -0.018 A 
HETATM    5  C   UNK N   1      28.802  17.497   4.878  0.00  0.00    -0.018 A 
HETATM    6  C   UNK N   1      27.618  20.083   7.107  0.00  0.00     0.009 A 
HETATM    7  C   UNK N   1      29.812  15.652   6.057  0.00  0.00     0.009 A 
HETATM    8  C   UNK N   1      27.624  19.690   4.307  0.00  0.00     0.013 A 
HETATM    9  C   UNK N   1      29.050  16.907   3.641  0.00  0.00     0.013 A 
HETATM   10  C   UNK N   1      27.053  21.046   6.252  0.00  0.00     0.001 A 
HETATM   11  C   UNK N   1      30.078  15.037   4.823  0.00  0.00     0.001 A 
HETATM   12  C   UNK N   1      27.054  20.849   4.857  0.00  0.00     0.001 A 
HETATM   13  C   UNK N   1      29.698  15.662   3.619  0.00  0.00     0.001 A 
ENDROOT
BRANCH   1  14
HETATM   14  C   UNK N   1      30.064  18.134   8.055  0.00  0.00     0.031 C 
BRANCH  14  15
HETATM   15  C   UNK N   1      30.686  16.908   8.723  0.00  0.00     0.021 C 
BRANCH  15  16
HETATM   16  C   UNK N   1      32.175  16.779   8.445  0.00  0.00     0.114 C 
BRANCH  16  17
HETATM   17  N   UNK N   1      32.638  17.852   7.565  0.00  0.00    -0.418 N 
HETATM   18  H   UNK N   1      32.415  18.840   7.684  0.00  0.00     0.153 HD
BRANCH  17  19
HETATM   19  C   UNK N   1      33.466  17.305   6.490  0.00  0.00     0.068 C 
HETATM   20  C   UNK N   1      33.628  15.813   6.693  0.00  0.00     0.031 C 
HETATM   21  C   UNK N   1      32.831  17.550   5.131  0.00  0.00     0.031 C 
ENDBRANCH  17  19
ENDBRANCH  16  17
ENDBRANCH  15  16
ENDBRANCH  14  15
ENDBRANCH   1  14
BRANCH   1  22
HETATM   22  C   UNK N   1      27.761  17.110   8.187  0.00  0.00     0.233 C 
HETATM   23  O   UNK N   1      27.761  17.377   9.381  0.00  0.00    -0.272 OA
HETATM   24  N   UNK N   1      26.845  16.248   7.703  0.00  0.00    -0.369 N 
HETATM   25  H   UNK N   1      26.217  15.493   7.781  0.00  0.00     0.159 HD
HETATM   26  H   UNK N   1      26.755  16.519   6.760  0.00  0.00     0.159 HD
ENDBRANCH   1  22
TORSDOF 6
ENDMDL
MODEL 4
REMARK VINA RESULT:      -6.7     23.652     26.772
REMARK  6 active torsions:
REMARK  status: ('A' for Active; 'I' for Inactive)
REMARK    1  A    between atoms: N_2  and  C_12 
REMARK    2  A    between atoms: N_2  and  C_21 
REMARK       I    between atoms: N_3  and  C_11 
REMARK    3  A    between atoms: C_4  and  C_5 
REMARK    4  A    between atoms: C_4  and  C_11 
REMARK    5  A    between atoms: C_5  and  C_10 
REMARK    6  A    between atoms: C_10  and  C_12 
ROOT
HETATM    1  C   UNK N   1      28.094  24.674  -4.412  0.00  0.00     0.096 A 
HETATM    2  C   UNK N   1      27.026  25.750  -4.549  0.00  0.00    -0.025 A 
HETATM    3  C   UNK N   1      27.765  23.855  -5.656  0.00  0.00    -0.025 A 
HETATM    4  C   UNK N   1      26.226  25.544  -5.656  0.00  0.00    -0.018 A 
HETATM    5  C   UNK N   1      26.692  24.380  -6.348  0.00  0.00    -0.018 A 
HETATM    6  C   UNK N   1      26.784  26.828  -3.692  0.00  0.00     0.009 A 
HETATM    7  C   UNK N   1      28.417  22.710  -6.127  0.00  0.00     0.009 A 
HETATM    8  C   UNK N   1      25.157  26.384  -5.962  0.00  0.00     0.013 A 
HETATM    9  C   UNK N   1      26.217  23.804  -7.524  0.00  0.00     0.013 A 
HETATM   10  C   UNK N   1      25.710  27.690  -3.978  0.00  0.00     0.001 A 
HETATM   11  C   UNK N   1      27.961  22.113  -7.313  0.00  0.00     0.001 A 
HETATM   12  C   UNK N   1      24.898  27.467  -5.107  0.00  0.00     0.001 A 
HETATM   13  C   UNK N   1      26.864  22.657  -8.009  0.00  0.00     0.001 A 
ENDROOT
BRANCH   1  14
HETATM   14  C   UNK N   1      29.519  25.244  -4.518  0.00  0.00     0.031 C 
BRANCH  14  15
HETATM   15  C   UNK N   1      29.816  25.701  -5.947  0.00  0.00     0.021 C 
BRANCH  15  16
HETATM   16  C   UNK N   1      29.848  27.215  -6.085  0.00  0.00     0.114 C 
BRANCH  16  17
HETATM   17  N   UNK N   1      29.935  27.609  -7.491  0.00  0.00    -0.418 N 
HETATM   18  H   UNK N   1      30.751  27.469  -8.086  0.00  0.00     0.153 HD
BRANCH  17  19
HETATM   19  C   UNK N   1      28.683  28.232  -7.922  0.00  0.00     0.068 C 
HETATM   20  C   UNK N   1      27.797  27.185  -8.563  0.00  0.00     0.031 C 
HETATM   21  C   UNK N   1      27.944  28.847  -6.745  0.00  0.00     0.031 C 
ENDBRANCH  17  19
ENDBRANCH  16  17
ENDBRANCH  15  16
ENDBRANCH  14  15
ENDBRANCH   1  14
BRANCH   1  22
HETATM   22  C   UNK N   1      27.897  23.923  -3.105  0.00  0.00     0.233 C 
HETATM   23  O   UNK N   1      26.776  23.824  -2.626  0.00  0.00    -0.272 OA
HETATM   24  N   UNK N   1      28.943  23.371  -2.458  0.00  0.00    -0.369 N 
HETATM   25  H   UNK N   1      29.411  23.047  -1.655  0.00  0.00     0.159 HD
HETATM   26  H   UNK N   1      29.589  23.196  -3.181  0.00  0.00     0.159 HD
ENDBRANCH   1  22
TORSDOF 6
ENDMDL
MODEL 5
REMARK VINA RESULT:      -6.6     24.106     26.866
REMARK  6 active torsions:
REMARK  status: ('A' for Active; 'I' for Inactive)
REMARK    1  A    between atoms: N_2  and  C_12 
REMARK    2  A    between atoms: N_2  and  C_21 
REMARK       I    between atoms: N_3  and  C_11 
REMARK    3  A    between atoms: C_4  and  C_5 
REMARK    4  A    between atoms: C_4  and  C_11 
REMARK    5  A    between atoms: C_5  and  C_10 
REMARK    6  A    between atoms: C_10  and  C_12 
ROOT
HETATM    1  C   UNK N   1      26.703  24.708  -6.740  0.00  0.00     0.096 A 
HETATM    2  C   UNK N   1      27.768  24.025  -5.894  0.00  0.00    -0.025 A 
HETATM    3  C   UNK N   1      26.248  25.764  -5.738  0.00  0.00    -0.025 A 
HETATM    4  C   UNK N   1      27.862  24.584  -4.634  0.00  0.00    -0.018 A 
HETATM    5  C   UNK N   1      26.932  25.668  -4.543  0.00  0.00    -0.018 A 
HETATM    6  C   UNK N   1      28.574  22.938  -6.247  0.00  0.00     0.009 A 
HETATM    7  C   UNK N   1      25.277  26.756  -5.919  0.00  0.00     0.009 A 
HETATM    8  C   UNK N   1      28.745  24.095  -3.672  0.00  0.00     0.013 A 
HETATM    9  C   UNK N   1      26.690  26.536  -3.480  0.00  0.00     0.013 A 
HETATM   10  C   UNK N   1      29.472  22.425  -5.294  0.00  0.00     0.001 A 
HETATM   11  C   UNK N   1      25.017  27.647  -4.866  0.00  0.00     0.001 A 
HETATM   12  C   UNK N   1      29.555  23.000  -4.011  0.00  0.00     0.001 A 
HETATM   13  C   UNK N   1      25.721  27.537  -3.650  0.00  0.00     0.001 A 
ENDROOT
BRANCH   1  14
HETATM   14  C   UNK N   1      27.292  25.387  -7.989  0.00  0.00     0.031 C 
BRANCH  14  15
HETATM   15  C   UNK N   1      28.487  26.265  -7.618  0.00  0.00     0.021 C 
BRANCH  15  16
HETATM   16  C   UNK N   1      28.321  27.706  -8.072  0.00  0.00     0.114 C 
BRANCH  16  17
HETATM   17  N   UNK N   1      29.103  28.612  -7.230  0.00  0.00    -0.418 N 
HETATM   18  H   UNK N   1      29.910  29.150  -7.546  0.00  0.00     0.153 HD
BRANCH  17  19
HETATM   19  C   UNK N   1      28.561  28.638  -5.871  0.00  0.00     0.068 C 
HETATM   20  C   UNK N   1      29.677  28.374  -4.882  0.00  0.00     0.031 C 
HETATM   21  C   UNK N   1      27.934  29.986  -5.557  0.00  0.00     0.031 C 
ENDBRANCH  17  19
ENDBRANCH  16  17
ENDBRANCH  15  16
ENDBRANCH  14  15
ENDBRANCH   1  14
BRANCH   1  22
HETATM   22  C   UNK N   1      25.627  23.703  -7.115  0.00  0.00     0.233 C 
HETATM   23  O   UNK N   1      25.206  22.923  -6.272  0.00  0.00    -0.272 OA
HETATM   24  N   UNK N   1      25.133  23.651  -8.368  0.00  0.00    -0.369 N 
HETATM   25  H   UNK N   1      24.710  23.193  -9.131  0.00  0.00     0.159 HD
HETATM   26  H   UNK N   1      25.267  24.568  -8.702  0.00  0.00     0.159 HD
ENDBRANCH   1  22
TORSDOF 6
ENDMDL
MODEL 6
REMARK VINA RESULT:      -6.5     22.074     24.489
REMARK  6 active torsions:
REMARK  status: ('A' for Active; 'I' for Inactive)
REMARK    1  A    between atoms: N_2  and  C_12 
REMARK    2  A    between atoms: N_2  and  C_21 
REMARK       I    between atoms: N_3  and  C_11 
REMARK    3  A    between atoms: C_4  and  C_5 
REMARK    4  A    between atoms: C_4  and  C_11 
REMARK    5  A    between atoms: C_5  and  C_10 
REMARK    6  A    between atoms: C_10  and  C_12 
ROOT
HETATM    1  C   UNK N   1      29.930  23.418  -3.726  0.00  0.00     0.096 A 
HETATM    2  C   UNK N   1      30.804  22.327  -4.327  0.00  0.00    -0.025 A 
HETATM    3  C   UNK N   1      30.830  24.619  -4.000  0.00  0.00    -0.025 A 
HETATM    4  C   UNK N   1      31.993  22.831  -4.818  0.00  0.00    -0.018 A 
HETATM    5  C   UNK N   1      32.002  24.250  -4.628  0.00  0.00    -0.018 A 
HETATM    6  C   UNK N   1      30.538  20.955  -4.388  0.00  0.00     0.009 A 
HETATM    7  C   UNK N   1      30.580  25.963  -3.702  0.00  0.00     0.009 A 
HETATM    8  C   UNK N   1      32.967  22.010  -5.382  0.00  0.00     0.013 A 
HETATM    9  C   UNK N   1      32.974  25.181  -4.986  0.00  0.00     0.013 A 
HETATM   10  C   UNK N   1      31.506  20.104  -4.950  0.00  0.00     0.001 A 
HETATM   11  C   UNK N   1      31.541  26.923  -4.057  0.00  0.00     0.001 A 
HETATM   12  C   UNK N   1      32.717  20.629  -5.443  0.00  0.00     0.001 A 
HETATM   13  C   UNK N   1      32.735  26.534  -4.696  0.00  0.00     0.001 A 
ENDROOT
BRANCH   1  14
HETATM   14  C   UNK N   1      28.594  23.580  -4.473  0.00  0.00     0.031 C 
BRANCH  14  15
HETATM   15  C   UNK N   1      28.829  23.752  -5.974  0.00  0.00     0.021 C 
BRANCH  15  16
HETATM   16  C   UNK N   1      27.674  24.449  -6.674  0.00  0.00     0.114 C 
BRANCH  16  17
HETATM   17  N   UNK N   1      26.836  25.166  -5.713  0.00  0.00    -0.418 N 
HETATM   18  H   UNK N   1      27.059  25.291  -4.725  0.00  0.00     0.153 HD
BRANCH  17  19
HETATM   19  C   UNK N   1      25.634  25.680  -6.370  0.00  0.00     0.068 C 
HETATM   20  C   UNK N   1      25.077  26.835  -5.564  0.00  0.00     0.031 C 
HETATM   21  C   UNK N   1      25.944  26.167  -7.776  0.00  0.00     0.031 C 
ENDBRANCH  17  19
ENDBRANCH  16  17
ENDBRANCH  15  16
ENDBRANCH  14  15
ENDBRANCH   1  14
BRANCH   1  22
HETATM   22  C   UNK N   1      29.704  23.136  -2.250  0.00  0.00     0.233 C 
HETATM   23  O   UNK N   1      30.664  23.008  -1.503  0.00  0.00    -0.272 OA
HETATM   24  N   UNK N   1      28.458  23.015  -1.749  0.00  0.00    -0.369 N 
HETATM   25  H   UNK N   1      27.798  22.678  -1.101  0.00  0.00     0.159 HD
HETATM   26  H   UNK N   1      27.913  23.555  -2.366  0.00  0.00     0.159 HD
ENDBRANCH   1  22
TORSDOF 6
ENDMDL
MODEL 7
REMARK VINA RESULT:      -6.5     23.203     26.544
REMARK  6 active torsions:
REMARK  status: ('A' for Active; 'I' for Inactive)
REMARK    1  A    between atoms: N_2  and  C_12 
REMARK    2  A    between atoms: N_2  and  C_21 
REMARK       I    between atoms: N_3  and  C_11 
REMARK    3  A    between atoms: C_4  and  C_5 
REMARK    4  A    between atoms: C_4  and  C_11 
REMARK    5  A    between atoms: C_5  and  C_10 
REMARK    6  A    between atoms: C_10  and  C_12 
ROOT
HETATM    1  C   UNK N   1      27.095  25.032  -5.208  0.00  0.00     0.096 A 
HETATM    2  C   UNK N   1      27.716  26.198  -5.965  0.00  0.00    -0.025 A 
HETATM    3  C   UNK N   1      28.312  24.606  -4.391  0.00  0.00    -0.025 A 
HETATM    4  C   UNK N   1      29.050  26.366  -5.647  0.00  0.00    -0.018 A 
HETATM    5  C   UNK N   1      29.414  25.391  -4.663  0.00  0.00    -0.018 A 
HETATM    6  C   UNK N   1      27.104  27.027  -6.909  0.00  0.00     0.009 A 
HETATM    7  C   UNK N   1      28.394  23.573  -3.451  0.00  0.00     0.009 A 
HETATM    8  C   UNK N   1      29.834  27.350  -6.246  0.00  0.00     0.013 A 
HETATM    9  C   UNK N   1      30.638  25.193  -4.028  0.00  0.00     0.013 A 
HETATM   10  C   UNK N   1      27.874  28.027  -7.530  0.00  0.00     0.001 A 
HETATM   11  C   UNK N   1      29.615  23.356  -2.792  0.00  0.00     0.001 A 
HETATM   12  C   UNK N   1      29.235  28.186  -7.201  0.00  0.00     0.001 A 
HETATM   13  C   UNK N   1      30.733  24.162  -3.080  0.00  0.00     0.001 A 
ENDROOT
BRANCH   1  14
HETATM   14  C   UNK N   1      25.961  25.478  -4.269  0.00  0.00     0.031 C 
BRANCH  14  15
HETATM   15  C   UNK N   1      26.438  26.586  -3.330  0.00  0.00     0.021 C 
BRANCH  15  16
HETATM   16  C   UNK N   1      25.667  27.883  -3.511  0.00  0.00     0.114 C 
BRANCH  16  17
HETATM   17  N   UNK N   1      26.453  29.028  -3.049  0.00  0.00    -0.418 N 
HETATM   18  H   UNK N   1      26.216  29.611  -2.247  0.00  0.00     0.153 HD
BRANCH  17  19
HETATM   19  C   UNK N   1      27.627  29.214  -3.901  0.00  0.00     0.068 C 
HETATM   20  C   UNK N   1      27.472  30.494  -4.696  0.00  0.00     0.031 C 
HETATM   21  C   UNK N   1      28.897  29.302  -3.072  0.00  0.00     0.031 C 
ENDBRANCH  17  19
ENDBRANCH  16  17
ENDBRANCH  15  16
ENDBRANCH  14  15
ENDBRANCH   1  14
BRANCH   1  22
HETATM   22  C   UNK N   1      26.612  23.982  -6.195  0.00  0.00     0.233 C 
HETATM   23  O   UNK N   1      25.413  23.846  -6.396  0.00  0.00    -0.272 OA
HETATM   24  N   UNK N   1      27.485  23.190  -6.848  0.00  0.00    -0.369 N 
HETATM   25  H   UNK N   1      27.747  22.362  -7.313  0.00  0.00     0.159 HD
HETATM   26  H   UNK N   1      28.307  23.733  -6.876  0.00  0.00     0.159 HD
ENDBRANCH   1  22
TORSDOF 6
ENDMDL
MODEL 8
REMARK VINA RESULT:      -6.5     11.022     14.650
REMARK  6 active torsions:
REMARK  status: ('A' for Active; 'I' for Inactive)
REMARK    1  A    between atoms: N_2  and  C_12 
REMARK    2  A    between atoms: N_2  and  C_21 
REMARK       I    between atoms: N_3  and  C_11 
REMARK    3  A    between atoms: C_4  and  C_5 
REMARK    4  A    between atoms: C_4  and  C_11 
REMARK    5  A    between atoms: C_5  and  C_10 
REMARK    6  A    between atoms: C_10  and  C_12 
ROOT
HETATM    1  C   UNK N   1      28.877  17.244   5.337  0.00  0.00     0.096 A 
HETATM    2  C   UNK N   1      27.955  18.442   5.161  0.00  0.00    -0.025 A 
HETATM    3  C   UNK N   1      29.299  17.481   6.784  0.00  0.00    -0.025 A 
HETATM    4  C   UNK N   1      27.902  19.223   6.299  0.00  0.00    -0.018 A 
HETATM    5  C   UNK N   1      28.722  18.621   7.307  0.00  0.00    -0.018 A 
HETATM    6  C   UNK N   1      27.239  18.808   4.017  0.00  0.00     0.009 A 
HETATM    7  C   UNK N   1      30.147  16.693   7.570  0.00  0.00     0.009 A 
HETATM    8  C   UNK N   1      27.150  20.394   6.357  0.00  0.00     0.013 A 
HETATM    9  C   UNK N   1      28.955  19.034   8.617  0.00  0.00     0.013 A 
HETATM   10  C   UNK N   1      26.473  19.987   4.049  0.00  0.00     0.001 A 
HETATM   11  C   UNK N   1      30.395  17.084   8.896  0.00  0.00     0.001 A 
HETATM   12  C   UNK N   1      26.431  20.779   5.214  0.00  0.00     0.001 A 
HETATM   13  C   UNK N   1      29.802  18.251   9.418  0.00  0.00     0.001 A 
ENDROOT
BRANCH   1  14
HETATM   14  C   UNK N   1      28.129  15.904   5.221  0.00  0.00     0.031 C 
BRANCH  14  15
HETATM   15  C   UNK N   1      26.982  15.833   6.229  0.00  0.00     0.021 C 
BRANCH  15  16
HETATM   16  C   UNK N   1      25.658  15.449   5.589  0.00  0.00     0.114 C 
BRANCH  16  17
HETATM   17  N   UNK N   1      24.580  16.321   6.054  0.00  0.00    -0.418 N 
HETATM   18  H   UNK N   1      24.435  16.601   7.024  0.00  0.00     0.153 HD
BRANCH  17  19
HETATM   19  C   UNK N   1      23.741  16.737   4.930  0.00  0.00     0.068 C 
HETATM   20  C   UNK N   1      23.451  18.219   5.042  0.00  0.00     0.031 C 
HETATM   21  C   UNK N   1      24.432  16.471   3.603  0.00  0.00     0.031 C 
ENDBRANCH  17  19
ENDBRANCH  16  17
ENDBRANCH  15  16
ENDBRANCH  14  15
ENDBRANCH   1  14
BRANCH   1  22
HETATM   22  C   UNK N   1      30.018  17.325   4.337  0.00  0.00     0.233 C 
HETATM   23  O   UNK N   1      31.045  17.917   4.637  0.00  0.00    -0.272 OA
HETATM   24  N   UNK N   1      29.913  16.762   3.117  0.00  0.00    -0.369 N 
HETATM   25  H   UNK N   1      30.132  16.685   2.160  0.00  0.00     0.159 HD
HETATM   26  H   UNK N   1      29.266  16.032   3.259  0.00  0.00     0.159 HD
ENDBRANCH   1  22
TORSDOF 6
ENDMDL
MODEL 9
REMARK VINA RESULT:      -6.3     22.134     25.658
REMARK  6 active torsions:
REMARK  status: ('A' for Active; 'I' for Inactive)
REMARK    1  A    between atoms: N_2  and  C_12 
REMARK    2  A    between atoms: N_2  and  C_21 
REMARK       I    between atoms: N_3  and  C_11 
REMARK    3  A    between atoms: C_4  and  C_5 
REMARK    4  A    between atoms: C_4  and  C_11 
REMARK    5  A    between atoms: C_5  and  C_10 
REMARK    6  A    between atoms: C_10  and  C_12 
ROOT
HETATM    1  C   UNK N   1      28.349  24.714  -4.353  0.00  0.00     0.096 A 
HETATM    2  C   UNK N   1      27.916  24.163  -5.704  0.00  0.00    -0.025 A 
HETATM    3  C   UNK N   1      29.306  23.599  -3.940  0.00  0.00    -0.025 A 
HETATM    4  C   UNK N   1      28.503  22.942  -5.975  0.00  0.00    -0.018 A 
HETATM    5  C   UNK N   1      29.374  22.601  -4.891  0.00  0.00    -0.018 A 
HETATM    6  C   UNK N   1      27.013  24.730  -6.609  0.00  0.00     0.009 A 
HETATM    7  C   UNK N   1      30.071  23.516  -2.772  0.00  0.00     0.009 A 
HETATM    8  C   UNK N   1      28.225  22.230  -7.141  0.00  0.00     0.013 A 
HETATM    9  C   UNK N   1      30.191  21.484  -4.734  0.00  0.00     0.013 A 
HETATM   10  C   UNK N   1      26.713  24.031  -7.792  0.00  0.00     0.001 A 
HETATM   11  C   UNK N   1      30.908  22.403  -2.591  0.00  0.00     0.001 A 
HETATM   12  C   UNK N   1      27.315  22.784  -8.055  0.00  0.00     0.001 A 
HETATM   13  C   UNK N   1      30.967  21.390  -3.568  0.00  0.00     0.001 A 
ENDROOT
BRANCH   1  14
HETATM   14  C   UNK N   1      29.114  26.044  -4.479  0.00  0.00     0.031 C 
BRANCH  14  15
HETATM   15  C   UNK N   1      30.182  25.955  -5.569  0.00  0.00     0.021 C 
BRANCH  15  16
HETATM   16  C   UNK N   1      30.078  27.079  -6.587  0.00  0.00     0.114 C 
BRANCH  16  17
HETATM   17  N   UNK N   1      29.468  28.268  -5.992  0.00  0.00    -0.418 N 
HETATM   18  H   UNK N   1      29.801  28.732  -5.147  0.00  0.00     0.153 HD
BRANCH  17  19
HETATM   19  C   UNK N   1      28.315  28.698  -6.783  0.00  0.00     0.068 C 
HETATM   20  C   UNK N   1      28.293  27.935  -8.091  0.00  0.00     0.031 C 
HETATM   21  C   UNK N   1      27.015  28.439  -6.041  0.00  0.00     0.031 C 
ENDBRANCH  17  19
ENDBRANCH  16  17
ENDBRANCH  15  16
ENDBRANCH  14  15
ENDBRANCH   1  14
BRANCH   1  22
HETATM   22  C   UNK N   1      27.137  24.859  -3.448  0.00  0.00     0.233 C 
HETATM   23  O   UNK N   1      26.692  23.878  -2.870  0.00  0.00    -0.272 OA
HETATM   24  N   UNK N   1      26.537  26.054  -3.279  0.00  0.00    -0.369 N 
HETATM   25  H   UNK N   1      25.766  26.632  -3.077  0.00  0.00     0.159 HD
HETATM   26  H   UNK N   1      27.263  26.698  -3.449  0.00  0.00     0.159 HD
ENDBRANCH   1  22
TORSDOF 6
ENDMDL
