MODEL 1
REMARK VINA RESULT:      -5.8      0.000      0.000
REMARK  12 active torsions:
REMARK  status: ('A' for Active; 'I' for Inactive)
REMARK    1  A    between atoms: O_1  and  C_8 
REMARK    2  A    between atoms: O_1  and  C_9 
REMARK    3  A    between atoms: O_2  and  C_15 
REMARK    4  A    between atoms: O_2  and  C_18 
REMARK    5  A    between atoms: O_3  and  C_12 
REMARK    6  A    between atoms: N_4  and  C_13 
REMARK    7  A    between atoms: N_4  and  C_14 
REMARK    8  A    between atoms: C_5  and  C_8 
REMARK    9  A    between atoms: C_9  and  C_10 
REMARK   10  A    between atoms: C_10  and  C_11 
REMARK   11  A    between atoms: C_12  and  C_13 
REMARK   12  A    between atoms: C_12  and  C_15 
ROOT
HETATM    1  C   UNK N   1      26.632  20.294   3.978  0.00  0.00    -0.056 A 
HETATM    2  C   UNK N   1      26.745  20.954   5.213  0.00  0.00     0.010 A 
HETATM    3  C   UNK N   1      27.170  19.013   3.831  0.00  0.00     0.010 A 
HETATM    4  C   UNK N   1      27.916  19.043   6.145  0.00  0.00     0.068 A 
HETATM    5  C   UNK N   1      27.386  20.330   6.289  0.00  0.00     0.037 A 
HETATM    6  C   UNK N   1      27.804  18.389   4.906  0.00  0.00     0.037 A 
ENDROOT
BRANCH   4   7
HETATM    7  O   UNK N   1      28.530  18.454   7.199  0.00  0.00    -0.349 OA
BRANCH   7   8
HETATM    8  C   UNK N   1      28.483  18.982   8.472  0.00  0.00     0.209 C 
BRANCH   8   9
HETATM    9  C   UNK N   1      28.497  17.882   9.520  0.00  0.00     0.159 C 
BRANCH   9  10
HETATM   10  O   UNK N   1      27.452  16.988   9.286  0.00  0.00    -0.392 OA
HETATM   11  H   UNK N   1      26.495  17.136   9.336  0.00  0.00     0.210 HD
ENDBRANCH   9  10
BRANCH   9  12
HETATM   12  C   UNK N   1      29.817  17.131   9.454  0.00  0.00     0.147 C 
BRANCH  12  13
HETATM   13  N   UNK N   1      30.902  18.039   9.113  0.00  0.00    -0.415 N 
HETATM   14  H   UNK N   1      31.019  18.995   9.451  0.00  0.00     0.153 HD
BRANCH  13  15
HETATM   15  C   UNK N   1      31.785  17.330   8.204  0.00  0.00     0.068 C 
HETATM   16  C   UNK N   1      33.139  18.011   8.186  0.00  0.00     0.031 C 
HETATM   17  C   UNK N   1      31.952  15.897   8.668  0.00  0.00     0.031 C 
ENDBRANCH  13  15
ENDBRANCH  12  13
ENDBRANCH   9  12
ENDBRANCH   8   9
ENDBRANCH   7   8
ENDBRANCH   4   7
BRANCH   1  18
HETATM   18  C   UNK N   1      25.961  20.925   2.797  0.00  0.00     0.064 C 
BRANCH  18  19
HETATM   19  C   UNK N   1      24.649  20.261   2.407  0.00  0.00     0.172 C 
BRANCH  19  20
HETATM   20  O   UNK N   1      23.633  20.677   3.270  0.00  0.00    -0.390 OA
BRANCH  20  21
HETATM   21  C   UNK N   1      22.808  19.558   3.451  0.00  0.00     0.172 C 
BRANCH  21  22
HETATM   22  C   UNK N   1      21.319  19.915   3.389  0.00  0.00     0.009 A 
HETATM   23  C   UNK N   1      20.601  19.233   2.233  0.00  0.00     0.007 A 
HETATM   24  C   UNK N   1      21.058  20.664   2.096  0.00  0.00     0.007 A 
ENDBRANCH  21  22
ENDBRANCH  20  21
ENDBRANCH  19  20
ENDBRANCH  18  19
ENDBRANCH   1  18
TORSDOF 12
ENDMDL
MODEL 2
REMARK VINA RESULT:      -5.7      3.471      9.425
REMARK  12 active torsions:
REMARK  status: ('A' for Active; 'I' for Inactive)
REMARK    1  A    between atoms: O_1  and  C_8 
REMARK    2  A    between atoms: O_1  and  C_9 
REMARK    3  A    between atoms: O_2  and  C_15 
REMARK    4  A    between atoms: O_2  and  C_18 
REMARK    5  A    between atoms: O_3  and  C_12 
REMARK    6  A    between atoms: N_4  and  C_13 
REMARK    7  A    between atoms: N_4  and  C_14 
REMARK    8  A    between atoms: C_5  and  C_8 
REMARK    9  A    between atoms: C_9  and  C_10 
REMARK   10  A    between atoms: C_10  and  C_11 
REMARK   11  A    between atoms: C_12  and  C_13 
REMARK   12  A    between atoms: C_12  and  C_15 
ROOT
HETATM    1  C   UNK N   1      26.158  19.107   3.902  0.00  0.00    -0.056 A 
HETATM    2  C   UNK N   1      25.796  20.248   3.168  0.00  0.00     0.010 A 
HETATM    3  C   UNK N   1      25.161  18.276   4.419  0.00  0.00     0.010 A 
HETATM    4  C   UNK N   1      23.448  19.710   3.460  0.00  0.00     0.068 A 
HETATM    5  C   UNK N   1      24.446  20.547   2.950  0.00  0.00     0.037 A 
HETATM    6  C   UNK N   1      23.815  18.572   4.198  0.00  0.00     0.037 A 
ENDROOT
BRANCH   4   7
HETATM    7  O   UNK N   1      22.147  20.014   3.236  0.00  0.00    -0.349 OA
BRANCH   7   8
HETATM    8  C   UNK N   1      21.750  20.883   2.243  0.00  0.00     0.209 C 
BRANCH   8   9
HETATM    9  C   UNK N   1      20.539  20.346   1.498  0.00  0.00     0.159 C 
BRANCH   9  10
HETATM   10  O   UNK N   1      20.672  20.594   0.132  0.00  0.00    -0.392 OA
HETATM   11  H   UNK N   1      21.465  20.823  -0.377  0.00  0.00     0.210 HD
ENDBRANCH   9  10
BRANCH   9  12
HETATM   12  C   UNK N   1      20.427  18.846   1.721  0.00  0.00     0.147 C 
BRANCH  12  13
HETATM   13  N   UNK N   1      20.131  18.167   0.469  0.00  0.00    -0.415 N 
HETATM   14  H   UNK N   1      19.891  18.611  -0.418  0.00  0.00     0.153 HD
BRANCH  13  15
HETATM   15  C   UNK N   1      20.242  16.740   0.717  0.00  0.00     0.068 C 
HETATM   16  C   UNK N   1      20.198  16.486   2.211  0.00  0.00     0.031 C 
HETATM   17  C   UNK N   1      19.090  16.014   0.052  0.00  0.00     0.031 C 
ENDBRANCH  13  15
ENDBRANCH  12  13
ENDBRANCH   9  12
ENDBRANCH   8   9
ENDBRANCH   7   8
ENDBRANCH   4   7
BRANCH   1  18
HETATM   18  C   UNK N   1      27.589  18.750   4.166  0.00  0.00     0.064 C 
BRANCH  18  19
HETATM   19  C   UNK N   1      28.145  19.347   5.450  0.00  0.00     0.172 C 
BRANCH  19  20
HETATM   20  O   UNK N   1      28.613  18.328   6.283  0.00  0.00    -0.390 OA
BRANCH  20  21
HETATM   21  C   UNK N   1      28.178  18.663   7.572  0.00  0.00     0.172 C 
BRANCH  21  22
HETATM   22  C   UNK N   1      28.851  17.812   8.655  0.00  0.00     0.009 A 
HETATM   23  C   UNK N   1      29.656  18.648   9.640  0.00  0.00     0.007 A 
HETATM   24  C   UNK N   1      30.355  17.945   8.504  0.00  0.00     0.007 A 
ENDBRANCH  21  22
ENDBRANCH  20  21
ENDBRANCH  19  20
ENDBRANCH  18  19
ENDBRANCH   1  18
TORSDOF 12
ENDMDL
MODEL 3
REMARK VINA RESULT:      -5.7     13.002     15.460
REMARK  12 active torsions:
REMARK  status: ('A' for Active; 'I' for Inactive)
REMARK    1  A    between atoms: O_1  and  C_8 
REMARK    2  A    between atoms: O_1  and  C_9 
REMARK    3  A    between atoms: O_2  and  C_15 
REMARK    4  A    between atoms: O_2  and  C_18 
REMARK    5  A    between atoms: O_3  and  C_12 
REMARK    6  A    between atoms: N_4  and  C_13 
REMARK    7  A    between atoms: N_4  and  C_14 
REMARK    8  A    between atoms: C_5  and  C_8 
REMARK    9  A    between atoms: C_9  and  C_10 
REMARK   10  A    between atoms: C_10  and  C_11 
REMARK   11  A    between atoms: C_12  and  C_13 
REMARK   12  A    between atoms: C_12  and  C_15 
ROOT
HETATM    1  C   UNK N   1      26.056  27.687  -4.027  0.00  0.00    -0.056 A 
HETATM    2  C   UNK N   1      26.647  26.513  -3.533  0.00  0.00     0.010 A 
HETATM    3  C   UNK N   1      25.183  27.613  -5.115  0.00  0.00     0.010 A 
HETATM    4  C   UNK N   1      25.477  25.201  -5.206  0.00  0.00     0.068 A 
HETATM    5  C   UNK N   1      26.359  25.277  -4.122  0.00  0.00     0.037 A 
HETATM    6  C   UNK N   1      24.892  26.381  -5.700  0.00  0.00     0.037 A 
ENDROOT
BRANCH   4   7
HETATM    7  O   UNK N   1      25.208  23.996  -5.762  0.00  0.00    -0.349 OA
BRANCH   7   8
HETATM    8  C   UNK N   1      26.195  23.179  -6.270  0.00  0.00     0.209 C 
BRANCH   8   9
HETATM    9  C   UNK N   1      25.606  22.105  -7.170  0.00  0.00     0.159 C 
BRANCH   9  10
HETATM   10  O   UNK N   1      24.319  21.778  -6.742  0.00  0.00    -0.392 OA
HETATM   11  H   UNK N   1      23.485  22.253  -6.885  0.00  0.00     0.210 HD
ENDBRANCH   9  10
BRANCH   9  12
HETATM   12  C   UNK N   1      25.538  22.619  -8.600  0.00  0.00     0.147 C 
BRANCH  12  13
HETATM   13  N   UNK N   1      24.996  23.969  -8.629  0.00  0.00    -0.415 N 
HETATM   14  H   UNK N   1      24.247  24.333  -8.039  0.00  0.00     0.153 HD
BRANCH  13  15
HETATM   15  C   UNK N   1      25.721  24.701  -9.653  0.00  0.00     0.068 C 
HETATM   16  C   UNK N   1      26.048  26.089  -9.142  0.00  0.00     0.031 C 
HETATM   17  C   UNK N   1      27.009  23.974  -9.984  0.00  0.00     0.031 C 
ENDBRANCH  13  15
ENDBRANCH  12  13
ENDBRANCH   9  12
ENDBRANCH   8   9
ENDBRANCH   7   8
ENDBRANCH   4   7
BRANCH   1  18
HETATM   18  C   UNK N   1      26.340  29.033  -3.432  0.00  0.00     0.064 C 
BRANCH  18  19
HETATM   19  C   UNK N   1      27.680  29.619  -3.848  0.00  0.00     0.172 C 
BRANCH  19  20
HETATM   20  O   UNK N   1      27.528  30.374  -5.012  0.00  0.00    -0.390 OA
BRANCH  20  21
HETATM   21  C   UNK N   1      28.489  29.887  -5.909  0.00  0.00     0.172 C 
BRANCH  21  22
HETATM   22  C   UNK N   1      27.908  28.861  -6.888  0.00  0.00     0.009 A 
HETATM   23  C   UNK N   1      28.655  27.535  -6.857  0.00  0.00     0.007 A 
HETATM   24  C   UNK N   1      28.962  28.546  -7.933  0.00  0.00     0.007 A 
ENDBRANCH  21  22
ENDBRANCH  20  21
ENDBRANCH  19  20
ENDBRANCH  18  19
ENDBRANCH   1  18
TORSDOF 12
ENDMDL
MODEL 4
REMARK VINA RESULT:      -5.7      6.297     12.929
REMARK  12 active torsions:
REMARK  status: ('A' for Active; 'I' for Inactive)
REMARK    1  A    between atoms: O_1  and  C_8 
REMARK    2  A    between atoms: O_1  and  C_9 
REMARK    3  A    between atoms: O_2  and  C_15 
REMARK    4  A    between atoms: O_2  and  C_18 
REMARK    5  A    between atoms: O_3  and  C_12 
REMARK    6  A    between atoms: N_4  and  C_13 
REMARK    7  A    between atoms: N_4  and  C_14 
REMARK    8  A    between atoms: C_5  and  C_8 
REMARK    9  A    between atoms: C_9  and  C_10 
REMARK   10  A    between atoms: C_10  and  C_11 
REMARK   11  A    between atoms: C_12  and  C_13 
REMARK   12  A    between atoms: C_12  and  C_15 
ROOT
HETATM    1  C   UNK N   1      35.570  14.218  12.071  0.00  0.00    -0.056 A 
HETATM    2  C   UNK N   1      34.971  13.596  10.963  0.00  0.00     0.010 A 
HETATM    3  C   UNK N   1      35.916  15.569  11.997  0.00  0.00     0.010 A 
HETATM    4  C   UNK N   1      35.054  15.682   9.727  0.00  0.00     0.068 A 
HETATM    5  C   UNK N   1      34.716  14.326   9.797  0.00  0.00     0.037 A 
HETATM    6  C   UNK N   1      35.658  16.299  10.837  0.00  0.00     0.037 A 
ENDROOT
BRANCH   4   7
HETATM    7  O   UNK N   1      34.797  16.374   8.592  0.00  0.00    -0.349 OA
BRANCH   7   8
HETATM    8  C   UNK N   1      34.500  17.720   8.596  0.00  0.00     0.209 C 
BRANCH   8   9
HETATM    9  C   UNK N   1      33.630  18.093   7.407  0.00  0.00     0.159 C 
BRANCH   9  10
HETATM   10  O   UNK N   1      34.284  17.768   6.218  0.00  0.00    -0.392 OA
HETATM   11  H   UNK N   1      34.730  16.944   5.968  0.00  0.00     0.210 HD
ENDBRANCH   9  10
BRANCH   9  12
HETATM   12  C   UNK N   1      32.318  17.328   7.476  0.00  0.00     0.147 C 
BRANCH  12  13
HETATM   13  N   UNK N   1      31.848  17.250   8.851  0.00  0.00    -0.415 N 
HETATM   14  H   UNK N   1      32.428  17.135   9.683  0.00  0.00     0.153 HD
BRANCH  13  15
HETATM   15  C   UNK N   1      30.400  17.367   8.817  0.00  0.00     0.068 C 
HETATM   16  C   UNK N   1      29.994  18.729   9.343  0.00  0.00     0.031 C 
HETATM   17  C   UNK N   1      29.909  17.215   7.391  0.00  0.00     0.031 C 
ENDBRANCH  13  15
ENDBRANCH  12  13
ENDBRANCH   9  12
ENDBRANCH   8   9
ENDBRANCH   7   8
ENDBRANCH   4   7
BRANCH   1  18
HETATM   18  C   UNK N   1      35.868  13.474  13.337  0.00  0.00     0.064 C 
BRANCH  18  19
HETATM   19  C   UNK N   1      34.845  12.401  13.675  0.00  0.00     0.172 C 
BRANCH  19  20
HETATM   20  O   UNK N   1      34.257  12.679  14.911  0.00  0.00    -0.390 OA
BRANCH  20  21
HETATM   21  C   UNK N   1      34.543  11.574  15.724  0.00  0.00     0.172 C 
BRANCH  21  22
HETATM   22  C   UNK N   1      35.663  11.862  16.730  0.00  0.00     0.009 A 
HETATM   23  C   UNK N   1      35.283  11.483  18.154  0.00  0.00     0.007 A 
HETATM   24  C   UNK N   1      35.173  12.918  17.704  0.00  0.00     0.007 A 
ENDBRANCH  21  22
ENDBRANCH  20  21
ENDBRANCH  19  20
ENDBRANCH  18  19
ENDBRANCH   1  18
TORSDOF 12
ENDMDL
MODEL 5
REMARK VINA RESULT:      -5.7      3.983      8.710
REMARK  12 active torsions:
REMARK  status: ('A' for Active; 'I' for Inactive)
REMARK    1  A    between atoms: O_1  and  C_8 
REMARK    2  A    between atoms: O_1  and  C_9 
REMARK    3  A    between atoms: O_2  and  C_15 
REMARK    4  A    between atoms: O_2  and  C_18 
REMARK    5  A    between atoms: O_3  and  C_12 
REMARK    6  A    between atoms: N_4  and  C_13 
REMARK    7  A    between atoms: N_4  and  C_14 
REMARK    8  A    between atoms: C_5  and  C_8 
REMARK    9  A    between atoms: C_9  and  C_10 
REMARK   10  A    between atoms: C_10  and  C_11 
REMARK   11  A    between atoms: C_12  and  C_13 
REMARK   12  A    between atoms: C_12  and  C_15 
ROOT
HETATM    1  C   UNK N   1      25.629  18.600   3.563  0.00  0.00    -0.056 A 
HETATM    2  C   UNK N   1      25.522  19.840   2.913  0.00  0.00     0.010 A 
HETATM    3  C   UNK N   1      24.484  18.001   4.094  0.00  0.00     0.010 A 
HETATM    4  C   UNK N   1      23.129  19.864   3.317  0.00  0.00     0.068 A 
HETATM    5  C   UNK N   1      24.278  20.469   2.793  0.00  0.00     0.037 A 
HETATM    6  C   UNK N   1      23.242  18.625   3.971  0.00  0.00     0.037 A 
ENDROOT
BRANCH   4   7
HETATM    7  O   UNK N   1      21.933  20.486   3.189  0.00  0.00    -0.349 OA
BRANCH   7   8
HETATM    8  C   UNK N   1      20.769  19.966   3.715  0.00  0.00     0.209 C 
BRANCH   8   9
HETATM    9  C   UNK N   1      19.783  19.610   2.614  0.00  0.00     0.159 C 
BRANCH   9  10
HETATM   10  O   UNK N   1      20.229  20.117   1.394  0.00  0.00    -0.392 OA
HETATM   11  H   UNK N   1      20.365  21.039   1.124  0.00  0.00     0.210 HD
ENDBRANCH   9  10
BRANCH   9  12
HETATM   12  C   UNK N   1      19.660  18.098   2.509  0.00  0.00     0.147 C 
BRANCH  12  13
HETATM   13  N   UNK N   1      19.786  17.675   1.122  0.00  0.00    -0.415 N 
HETATM   14  H   UNK N   1      19.449  18.180   0.302  0.00  0.00     0.153 HD
BRANCH  13  15
HETATM   15  C   UNK N   1      20.482  16.400   1.124  0.00  0.00     0.068 C 
HETATM   16  C   UNK N   1      20.923  16.071   2.536  0.00  0.00     0.031 C 
HETATM   17  C   UNK N   1      19.553  15.310   0.625  0.00  0.00     0.031 C 
ENDBRANCH  13  15
ENDBRANCH  12  13
ENDBRANCH   9  12
ENDBRANCH   8   9
ENDBRANCH   7   8
ENDBRANCH   4   7
BRANCH   1  18
HETATM   18  C   UNK N   1      26.940  17.894   3.720  0.00  0.00     0.064 C 
BRANCH  18  19
HETATM   19  C   UNK N   1      27.417  17.796   5.161  0.00  0.00     0.172 C 
BRANCH  19  20
HETATM   20  O   UNK N   1      28.195  18.912   5.481  0.00  0.00    -0.390 OA
BRANCH  20  21
HETATM   21  C   UNK N   1      27.679  19.399   6.689  0.00  0.00     0.172 C 
BRANCH  21  22
HETATM   22  C   UNK N   1      27.610  20.930   6.720  0.00  0.00     0.009 A 
HETATM   23  C   UNK N   1      26.284  21.444   7.264  0.00  0.00     0.007 A 
HETATM   24  C   UNK N   1      26.512  21.379   5.774  0.00  0.00     0.007 A 
ENDBRANCH  21  22
ENDBRANCH  20  21
ENDBRANCH  19  20
ENDBRANCH  18  19
ENDBRANCH   1  18
TORSDOF 12
ENDMDL
MODEL 6
REMARK VINA RESULT:      -5.7      3.302      5.168
REMARK  12 active torsions:
REMARK  status: ('A' for Active; 'I' for Inactive)
REMARK    1  A    between atoms: O_1  and  C_8 
REMARK    2  A    between atoms: O_1  and  C_9 
REMARK    3  A    between atoms: O_2  and  C_15 
REMARK    4  A    between atoms: O_2  and  C_18 
REMARK    5  A    between atoms: O_3  and  C_12 
REMARK    6  A    between atoms: N_4  and  C_13 
REMARK    7  A    between atoms: N_4  and  C_14 
REMARK    8  A    between atoms: C_5  and  C_8 
REMARK    9  A    between atoms: C_9  and  C_10 
REMARK   10  A    between atoms: C_10  and  C_11 
REMARK   11  A    between atoms: C_12  and  C_13 
REMARK   12  A    between atoms: C_12  and  C_15 
ROOT
HETATM    1  C   UNK N   1      28.594  16.811   6.397  0.00  0.00    -0.056 A 
HETATM    2  C   UNK N   1      28.591  17.530   7.605  0.00  0.00     0.010 A 
HETATM    3  C   UNK N   1      29.798  16.313   5.896  0.00  0.00     0.010 A 
HETATM    4  C   UNK N   1      30.991  17.231   7.804  0.00  0.00     0.068 A 
HETATM    5  C   UNK N   1      29.786  17.739   8.302  0.00  0.00     0.037 A 
HETATM    6  C   UNK N   1      30.989  16.518   6.593  0.00  0.00     0.037 A 
ENDROOT
BRANCH   4   7
HETATM    7  O   UNK N   1      32.137  17.441   8.494  0.00  0.00    -0.349 OA
BRANCH   7   8
HETATM    8  C   UNK N   1      32.921  18.560   8.306  0.00  0.00     0.209 C 
BRANCH   8   9
HETATM    9  C   UNK N   1      34.363  18.175   8.020  0.00  0.00     0.159 C 
BRANCH   9  10
HETATM   10  O   UNK N   1      35.226  19.131   8.556  0.00  0.00    -0.392 OA
HETATM   11  H   UNK N   1      35.156  20.099   8.540  0.00  0.00     0.210 HD
ENDBRANCH   9  10
BRANCH   9  12
HETATM   12  C   UNK N   1      34.666  16.825   8.650  0.00  0.00     0.147 C 
BRANCH  12  13
HETATM   13  N   UNK N   1      34.697  16.938  10.101  0.00  0.00    -0.415 N 
HETATM   14  H   UNK N   1      34.631  17.800  10.642  0.00  0.00     0.153 HD
BRANCH  13  15
HETATM   15  C   UNK N   1      34.839  15.593  10.632  0.00  0.00     0.068 C 
HETATM   16  C   UNK N   1      35.392  14.683   9.554  0.00  0.00     0.031 C 
HETATM   17  C   UNK N   1      35.792  15.608  11.811  0.00  0.00     0.031 C 
ENDBRANCH  13  15
ENDBRANCH  12  13
ENDBRANCH   9  12
ENDBRANCH   8   9
ENDBRANCH   7   8
ENDBRANCH   4   7
BRANCH   1  18
HETATM   18  C   UNK N   1      27.340  16.569   5.613  0.00  0.00     0.064 C 
BRANCH  18  19
HETATM   19  C   UNK N   1      26.595  17.840   5.236  0.00  0.00     0.172 C 
BRANCH  19  20
HETATM   20  O   UNK N   1      27.319  18.547   4.274  0.00  0.00    -0.390 OA
BRANCH  20  21
HETATM   21  C   UNK N   1      26.934  19.887   4.419  0.00  0.00     0.172 C 
BRANCH  21  22
HETATM   22  C   UNK N   1      26.567  20.236   5.866  0.00  0.00     0.009 A 
HETATM   23  C   UNK N   1      26.526  21.738   6.113  0.00  0.00     0.007 A 
HETATM   24  C   UNK N   1      27.748  20.945   6.503  0.00  0.00     0.007 A 
ENDBRANCH  21  22
ENDBRANCH  20  21
ENDBRANCH  19  20
ENDBRANCH  18  19
ENDBRANCH   1  18
TORSDOF 12
ENDMDL
MODEL 7
REMARK VINA RESULT:      -5.7      4.312      8.459
REMARK  12 active torsions:
REMARK  status: ('A' for Active; 'I' for Inactive)
REMARK    1  A    between atoms: O_1  and  C_8 
REMARK    2  A    between atoms: O_1  and  C_9 
REMARK    3  A    between atoms: O_2  and  C_15 
REMARK    4  A    between atoms: O_2  and  C_18 
REMARK    5  A    between atoms: O_3  and  C_12 
REMARK    6  A    between atoms: N_4  and  C_13 
REMARK    7  A    between atoms: N_4  and  C_14 
REMARK    8  A    between atoms: C_5  and  C_8 
REMARK    9  A    between atoms: C_9  and  C_10 
REMARK   10  A    between atoms: C_10  and  C_11 
REMARK   11  A    between atoms: C_12  and  C_13 
REMARK   12  A    between atoms: C_12  and  C_15 
ROOT
HETATM    1  C   UNK N   1      26.287  19.383   4.116  0.00  0.00    -0.056 A 
HETATM    2  C   UNK N   1      25.302  18.610   4.752  0.00  0.00     0.010 A 
HETATM    3  C   UNK N   1      25.912  20.300   3.131  0.00  0.00     0.010 A 
HETATM    4  C   UNK N   1      23.578  19.688   3.428  0.00  0.00     0.068 A 
HETATM    5  C   UNK N   1      23.955  18.762   4.407  0.00  0.00     0.037 A 
HETATM    6  C   UNK N   1      24.568  20.455   2.790  0.00  0.00     0.037 A 
ENDROOT
BRANCH   4   7
HETATM    7  O   UNK N   1      22.269  19.823   3.109  0.00  0.00    -0.349 OA
BRANCH   7   8
HETATM    8  C   UNK N   1      21.819  20.770   2.213  0.00  0.00     0.209 C 
BRANCH   8   9
HETATM    9  C   UNK N   1      20.491  20.356   1.601  0.00  0.00     0.159 C 
BRANCH   9  10
HETATM   10  O   UNK N   1      20.664  20.054   0.250  0.00  0.00    -0.392 OA
HETATM   11  H   UNK N   1      20.137  19.473  -0.321  0.00  0.00     0.210 HD
ENDBRANCH   9  10
BRANCH   9  12
HETATM   12  C   UNK N   1      19.959  19.126   2.320  0.00  0.00     0.147 C 
BRANCH  12  13
HETATM   13  N   UNK N   1      20.173  17.934   1.514  0.00  0.00    -0.415 N 
HETATM   14  H   UNK N   1      20.295  17.902   0.501  0.00  0.00     0.153 HD
BRANCH  13  15
HETATM   15  C   UNK N   1      20.184  16.799   2.421  0.00  0.00     0.068 C 
HETATM   16  C   UNK N   1      21.599  16.272   2.548  0.00  0.00     0.031 C 
HETATM   17  C   UNK N   1      19.688  17.232   3.786  0.00  0.00     0.031 C 
ENDBRANCH  13  15
ENDBRANCH  12  13
ENDBRANCH   9  12
ENDBRANCH   8   9
ENDBRANCH   7   8
ENDBRANCH   4   7
BRANCH   1  18
HETATM   18  C   UNK N   1      27.742  19.250   4.447  0.00  0.00     0.064 C 
BRANCH  18  19
HETATM   19  C   UNK N   1      28.201  17.812   4.635  0.00  0.00     0.172 C 
BRANCH  19  20
HETATM   20  O   UNK N   1      28.410  17.215   3.390  0.00  0.00    -0.390 OA
BRANCH  20  21
HETATM   21  C   UNK N   1      27.683  16.016   3.418  0.00  0.00     0.172 C 
BRANCH  21  22
HETATM   22  C   UNK N   1      26.491  16.033   2.455  0.00  0.00     0.009 A 
HETATM   23  C   UNK N   1      25.259  15.354   3.036  0.00  0.00     0.007 A 
HETATM   24  C   UNK N   1      26.154  14.601   2.084  0.00  0.00     0.007 A 
ENDBRANCH  21  22
ENDBRANCH  20  21
ENDBRANCH  19  20
ENDBRANCH  18  19
ENDBRANCH   1  18
TORSDOF 12
ENDMDL
MODEL 8
REMARK VINA RESULT:      -5.6     12.524     16.719
REMARK  12 active torsions:
REMARK  status: ('A' for Active; 'I' for Inactive)
REMARK    1  A    between atoms: O_1  and  C_8 
REMARK    2  A    between atoms: O_1  and  C_9 
REMARK    3  A    between atoms: O_2  and  C_15 
REMARK    4  A    between atoms: O_2  and  C_18 
REMARK    5  A    between atoms: O_3  and  C_12 
REMARK    6  A    between atoms: N_4  and  C_13 
REMARK    7  A    between atoms: N_4  and  C_14 
REMARK    8  A    between atoms: C_5  and  C_8 
REMARK    9  A    between atoms: C_9  and  C_10 
REMARK   10  A    between atoms: C_10  and  C_11 
REMARK   11  A    between atoms: C_12  and  C_13 
REMARK   12  A    between atoms: C_12  and  C_15 
ROOT
HETATM    1  C   UNK N   1      35.320  11.485  18.757  0.00  0.00    -0.056 A 
HETATM    2  C   UNK N   1      35.245  10.682  17.607  0.00  0.00     0.010 A 
HETATM    3  C   UNK N   1      35.211  12.872  18.636  0.00  0.00     0.010 A 
HETATM    4  C   UNK N   1      34.937  12.656  16.230  0.00  0.00     0.068 A 
HETATM    5  C   UNK N   1      35.056  11.267  16.350  0.00  0.00     0.037 A 
HETATM    6  C   UNK N   1      35.018  13.456  17.383  0.00  0.00     0.037 A 
ENDROOT
BRANCH   4   7
HETATM    7  O   UNK N   1      34.752  13.205  15.006  0.00  0.00    -0.349 OA
BRANCH   7   8
HETATM    8  C   UNK N   1      35.800  13.648  14.227  0.00  0.00     0.209 C 
BRANCH   8   9
HETATM    9  C   UNK N   1      35.614  13.239  12.775  0.00  0.00     0.159 C 
BRANCH   9  10
HETATM   10  O   UNK N   1      34.286  13.431  12.393  0.00  0.00    -0.392 OA
HETATM   11  H   UNK N   1      33.497  12.921  12.636  0.00  0.00     0.210 HD
ENDBRANCH   9  10
BRANCH   9  12
HETATM   12  C   UNK N   1      36.513  14.084  11.887  0.00  0.00     0.147 C 
BRANCH  12  13
HETATM   13  N   UNK N   1      37.746  13.370  11.587  0.00  0.00    -0.415 N 
HETATM   14  H   UNK N   1      38.504  13.172  12.240  0.00  0.00     0.153 HD
BRANCH  13  15
HETATM   15  C   UNK N   1      37.692  12.992  10.186  0.00  0.00     0.068 C 
HETATM   16  C   UNK N   1      37.090  14.127   9.382  0.00  0.00     0.031 C 
HETATM   17  C   UNK N   1      39.092  12.709   9.679  0.00  0.00     0.031 C 
ENDBRANCH  13  15
ENDBRANCH  12  13
ENDBRANCH   9  12
ENDBRANCH   8   9
ENDBRANCH   7   8
ENDBRANCH   4   7
BRANCH   1  18
HETATM   18  C   UNK N   1      35.528  10.903  20.122  0.00  0.00     0.064 C 
BRANCH  18  19
HETATM   19  C   UNK N   1      34.597   9.745  20.445  0.00  0.00     0.172 C 
BRANCH  19  20
HETATM   20  O   UNK N   1      33.565  10.185  21.278  0.00  0.00    -0.390 OA
BRANCH  20  21
HETATM   21  C   UNK N   1      32.675   9.107  21.379  0.00  0.00     0.172 C 
BRANCH  21  22
HETATM   22  C   UNK N   1      32.155   8.648  20.013  0.00  0.00     0.009 A 
HETATM   23  C   UNK N   1      30.744   8.081  20.084  0.00  0.00     0.007 A 
HETATM   24  C   UNK N   1      31.928   7.148  20.065  0.00  0.00     0.007 A 
ENDBRANCH  21  22
ENDBRANCH  20  21
ENDBRANCH  19  20
ENDBRANCH  18  19
ENDBRANCH   1  18
TORSDOF 12
ENDMDL
MODEL 9
REMARK VINA RESULT:      -5.6      4.450      7.093
REMARK  12 active torsions:
REMARK  status: ('A' for Active; 'I' for Inactive)
REMARK    1  A    between atoms: O_1  and  C_8 
REMARK    2  A    between atoms: O_1  and  C_9 
REMARK    3  A    between atoms: O_2  and  C_15 
REMARK    4  A    between atoms: O_2  and  C_18 
REMARK    5  A    between atoms: O_3  and  C_12 
REMARK    6  A    between atoms: N_4  and  C_13 
REMARK    7  A    between atoms: N_4  and  C_14 
REMARK    8  A    between atoms: C_5  and  C_8 
REMARK    9  A    between atoms: C_9  and  C_10 
REMARK   10  A    between atoms: C_10  and  C_11 
REMARK   11  A    between atoms: C_12  and  C_13 
REMARK   12  A    between atoms: C_12  and  C_15 
ROOT
HETATM    1  C   UNK N   1      31.798  17.212   6.396  0.00  0.00    -0.056 A 
HETATM    2  C   UNK N   1      33.107  17.231   5.884  0.00  0.00     0.010 A 
HETATM    3  C   UNK N   1      31.601  17.182   7.778  0.00  0.00     0.010 A 
HETATM    4  C   UNK N   1      34.005  17.207   8.138  0.00  0.00     0.068 A 
HETATM    5  C   UNK N   1      34.203  17.227   6.753  0.00  0.00     0.037 A 
HETATM    6  C   UNK N   1      32.694  17.182   8.645  0.00  0.00     0.037 A 
ENDROOT
BRANCH   4   7
HETATM    7  O   UNK N   1      35.078  17.206   8.964  0.00  0.00    -0.349 OA
BRANCH   7   8
HETATM    8  C   UNK N   1      34.994  16.828  10.287  0.00  0.00     0.209 C 
BRANCH   8   9
HETATM    9  C   UNK N   1      35.888  15.633  10.573  0.00  0.00     0.159 C 
BRANCH   9  10
HETATM   10  O   UNK N   1      37.200  16.059  10.782  0.00  0.00    -0.392 OA
HETATM   11  H   UNK N   1      37.682  16.789  10.364  0.00  0.00     0.210 HD
ENDBRANCH   9  10
BRANCH   9  12
HETATM   12  C   UNK N   1      35.395  14.914  11.819  0.00  0.00     0.147 C 
BRANCH  12  13
HETATM   13  N   UNK N   1      36.369  15.034  12.893  0.00  0.00    -0.415 N 
HETATM   14  H   UNK N   1      36.887  15.875  13.149  0.00  0.00     0.153 HD
BRANCH  13  15
HETATM   15  C   UNK N   1      36.465  13.733  13.533  0.00  0.00     0.068 C 
HETATM   16  C   UNK N   1      36.667  13.920  15.023  0.00  0.00     0.031 C 
HETATM   17  C   UNK N   1      35.187  12.953  13.296  0.00  0.00     0.031 C 
ENDBRANCH  13  15
ENDBRANCH  12  13
ENDBRANCH   9  12
ENDBRANCH   8   9
ENDBRANCH   7   8
ENDBRANCH   4   7
BRANCH   1  18
HETATM   18  C   UNK N   1      30.595  17.209   5.504  0.00  0.00     0.064 C 
BRANCH  18  19
HETATM   19  C   UNK N   1      29.311  17.632   6.201  0.00  0.00     0.172 C 
BRANCH  19  20
HETATM   20  O   UNK N   1      28.292  17.798   5.261  0.00  0.00    -0.390 OA
BRANCH  20  21
HETATM   21  C   UNK N   1      27.350  18.639   5.867  0.00  0.00     0.172 C 
BRANCH  21  22
HETATM   22  C   UNK N   1      27.822  20.096   5.931  0.00  0.00     0.009 A 
HETATM   23  C   UNK N   1      26.831  21.001   6.650  0.00  0.00     0.007 A 
HETATM   24  C   UNK N   1      26.847  20.951   5.142  0.00  0.00     0.007 A 
ENDBRANCH  21  22
ENDBRANCH  20  21
ENDBRANCH  19  20
ENDBRANCH  18  19
ENDBRANCH   1  18
TORSDOF 12
ENDMDL
