REMARK  6 active torsions:
REMARK  status: ('A' for Active; 'I' for Inactive)
REMARK    1  A    between atoms: O_3  and  C_14 
REMARK    2  A    between atoms: N_4  and  C_15 
REMARK    3  A    between atoms: N_5  and  C_16 
REMARK    4  A    between atoms: C_14  and  C_15 
REMARK    5  A    between atoms: C_14  and  C_16 
REMARK    6  A    between atoms: C_14  and  C_17 
ROOT
HETATM    1  C   UNK N   1       3.091   0.440  -0.618  0.00  0.00     0.123 C 
ENDROOT
BRANCH   1   2
HETATM    2  O   UNK N   1       2.085   1.050  -1.371  0.00  0.00    -0.381 OA
HETATM    3  H   UNK N   1       2.102   1.866  -1.894  0.00  0.00     0.211 HD
ENDBRANCH   1   2
BRANCH   1   4
HETATM    4  C   UNK N   1       3.274   1.248   0.682  0.00  0.00     0.194 C 
BRANCH   4   5
HETATM    5  N   UNK N   1       3.889   2.550   0.439  0.00  0.00    -0.284 N 
HETATM    6  N   UNK N   1       5.058   2.913   0.928  0.00  0.00    -0.293 N 
HETATM    7  C   UNK N   1       5.303   4.155   0.467  0.00  0.00     0.198 A 
ATOM      8  HN  UNK N   1       5.661   2.361   1.538  1.00  0.00     0.188 HD
HETATM    9  N   UNK N   1       4.285   4.578  -0.316  0.00  0.00    -0.346 N 
HETATM   10  C   UNK N   1       3.411   3.552  -0.316  0.00  0.00     0.201 A 
ATOM     11  HN  UNK N   1       4.199   5.473  -0.799  1.00  0.00     0.167 HD
ENDBRANCH   4   5
ENDBRANCH   1   4
BRANCH   1  12
HETATM   12  C   UNK N   1       4.402   0.487  -1.442  0.00  0.00     0.194 C 
BRANCH  12  13
HETATM   13  N   UNK N   1       5.585  -0.018  -0.733  0.00  0.00    -0.284 N 
HETATM   14  N   UNK N   1       6.791  -0.038  -1.264  0.00  0.00    -0.293 N 
HETATM   15  C   UNK N   1       7.618  -0.558  -0.338  0.00  0.00     0.198 A 
ATOM     16  HN  UNK N   1       7.049   0.279  -2.199  1.00  0.00     0.188 HD
HETATM   17  N   UNK N   1       6.937  -0.870   0.787  0.00  0.00    -0.346 N 
HETATM   18  C   UNK N   1       5.666  -0.520   0.514  0.00  0.00     0.201 A 
ATOM     19  HN  UNK N   1       7.303  -1.277   1.647  1.00  0.00     0.167 HD
ENDBRANCH  12  13
ENDBRANCH   1  12
BRANCH   1  20
HETATM   20  C   UNK N   1       2.654  -0.994  -0.323  0.00  0.00     0.018 A 
HETATM   21  C   UNK N   1       1.542  -1.264   0.504  0.00  0.00     0.128 A 
HETATM   22  F   UNK N   1       0.840  -0.255   1.075  0.00  0.00    -0.205 F 
HETATM   23  C   UNK N   1       1.160  -2.587   0.758  0.00  0.00     0.085 A 
HETATM   24  C   UNK N   1       1.866  -3.649   0.188  0.00  0.00     0.119 A 
HETATM   25  F   UNK N   1       1.493  -4.926   0.437  0.00  0.00    -0.206 F 
HETATM   26  C   UNK N   1       2.957  -3.395  -0.640  0.00  0.00     0.043 A 
HETATM   27  C   UNK N   1       3.347  -2.080  -0.892  0.00  0.00     0.016 A 
ENDBRANCH   1  20
TORSDOF 6
