MODEL 1
REMARK VINA RESULT:      -6.0      0.000      0.000
REMARK  6 active torsions:
REMARK  status: ('A' for Active; 'I' for Inactive)
REMARK    1  A    between atoms: O_3  and  C_14 
REMARK    2  A    between atoms: N_4  and  C_15 
REMARK    3  A    between atoms: N_5  and  C_16 
REMARK    4  A    between atoms: C_14  and  C_15 
REMARK    5  A    between atoms: C_14  and  C_16 
REMARK    6  A    between atoms: C_14  and  C_17 
ROOT
HETATM    1  C   UNK N   1      35.456  13.101  12.232  0.00  0.00     0.123 C 
ENDROOT
BRANCH   1   2
HETATM    2  O   UNK N   1      34.171  13.477  11.831  0.00  0.00    -0.381 OA
HETATM    3  H   UNK N   1      33.887  14.125  11.169  0.00  0.00     0.211 HD
ENDBRANCH   1   2
BRANCH   1   4
HETATM    4  C   UNK N   1      36.465  14.062  11.572  0.00  0.00     0.194 C 
BRANCH   4   5
HETATM    5  N   UNK N   1      35.802  15.148  10.855  0.00  0.00    -0.284 N 
HETATM    6  N   UNK N   1      35.273  15.021   9.655  0.00  0.00    -0.293 N 
HETATM    7  C   UNK N   1      34.733  16.214   9.340  0.00  0.00     0.198 A 
ATOM      8  HN  UNK N   1      35.272  14.181   9.075  1.00  0.00     0.188 HD
HETATM    9  N   UNK N   1      34.922  17.099  10.345  0.00  0.00    -0.346 N 
HETATM   10  C   UNK N   1      35.596  16.404  11.283  0.00  0.00     0.201 A 
ATOM     11  HN  UNK N   1      34.621  18.073  10.384  1.00  0.00     0.167 HD
ENDBRANCH   4   5
ENDBRANCH   1   4
BRANCH   1  12
HETATM   12  C   UNK N   1      35.712  11.659  11.727  0.00  0.00     0.194 C 
BRANCH  12  13
HETATM   13  N   UNK N   1      34.790  11.209  10.676  0.00  0.00    -0.284 N 
HETATM   14  N   UNK N   1      33.568  10.783  10.922  0.00  0.00    -0.293 N 
HETATM   15  C   UNK N   1      33.020  10.459   9.736  0.00  0.00     0.198 A 
ATOM     16  HN  UNK N   1      33.122  10.711  11.837  1.00  0.00     0.188 HD
HETATM   17  N   UNK N   1      33.896  10.680   8.731  0.00  0.00    -0.346 N 
HETATM   18  C   UNK N   1      34.996  11.151   9.347  0.00  0.00     0.201 A 
ATOM     19  HN  UNK N   1      33.755  10.526   7.733  1.00  0.00     0.167 HD
ENDBRANCH  12  13
ENDBRANCH   1  12
BRANCH   1  20
HETATM   20  C   UNK N   1      35.518  13.192  13.756  0.00  0.00     0.018 A 
HETATM   21  C   UNK N   1      34.671  12.409  14.570  0.00  0.00     0.128 A 
HETATM   22  F   UNK N   1      33.763  11.567  14.020  0.00  0.00    -0.205 F 
HETATM   23  C   UNK N   1      34.749  12.509  15.965  0.00  0.00     0.085 A 
HETATM   24  C   UNK N   1      35.671  13.372  16.562  0.00  0.00     0.119 A 
HETATM   25  F   UNK N   1      35.742  13.464  17.911  0.00  0.00    -0.206 F 
HETATM   26  C   UNK N   1      36.521  14.139  15.769  0.00  0.00     0.043 A 
HETATM   27  C   UNK N   1      36.444  14.050  14.380  0.00  0.00     0.016 A 
ENDBRANCH   1  20
TORSDOF 6
ENDMDL
MODEL 2
REMARK VINA RESULT:      -5.9      5.562      8.882
REMARK  6 active torsions:
REMARK  status: ('A' for Active; 'I' for Inactive)
REMARK    1  A    between atoms: O_3  and  C_14 
REMARK    2  A    between atoms: N_4  and  C_15 
REMARK    3  A    between atoms: N_5  and  C_16 
REMARK    4  A    between atoms: C_14  and  C_15 
REMARK    5  A    between atoms: C_14  and  C_16 
REMARK    6  A    between atoms: C_14  and  C_17 
ROOT
HETATM    1  C   UNK N   1      32.214  17.210   8.117  0.00  0.00     0.123 C 
ENDROOT
BRANCH   1   2
HETATM    2  O   UNK N   1      31.623  16.034   8.585  0.00  0.00    -0.381 OA
HETATM    3  H   UNK N   1      30.699  15.742   8.553  0.00  0.00     0.211 HD
ENDBRANCH   1   2
BRANCH   1   4
HETATM    4  C   UNK N   1      33.667  17.254   8.629  0.00  0.00     0.194 C 
BRANCH   4   5
HETATM    5  N   UNK N   1      34.084  15.981   9.212  0.00  0.00    -0.284 N 
HETATM    6  N   UNK N   1      33.767  15.592  10.430  0.00  0.00    -0.293 N 
HETATM    7  C   UNK N   1      34.299  14.366  10.598  0.00  0.00     0.198 A 
ATOM      8  HN  UNK N   1      33.223  16.118  11.115  1.00  0.00     0.188 HD
HETATM    9  N   UNK N   1      34.955  13.979   9.480  0.00  0.00    -0.346 N 
HETATM   10  C   UNK N   1      34.805  15.011   8.627  0.00  0.00     0.201 A 
ATOM     11  HN  UNK N   1      35.451  13.102   9.320  1.00  0.00     0.167 HD
ENDBRANCH   4   5
ENDBRANCH   1   4
BRANCH   1  12
HETATM   12  C   UNK N   1      31.426  18.409   8.702  0.00  0.00     0.194 C 
BRANCH  12  13
HETATM   13  N   UNK N   1      30.020  18.119   9.013  0.00  0.00    -0.284 N 
HETATM   14  N   UNK N   1      29.648  17.224   9.905  0.00  0.00    -0.293 N 
HETATM   15  C   UNK N   1      28.302  17.229   9.927  0.00  0.00     0.198 A 
ATOM     16  HN  UNK N   1      30.262  16.637  10.470  1.00  0.00     0.188 HD
HETATM   17  N   UNK N   1      27.815  18.132   9.047  0.00  0.00    -0.346 N 
HETATM   18  C   UNK N   1      28.912  18.677   8.488  0.00  0.00     0.201 A 
ATOM     19  HN  UNK N   1      26.838  18.350   8.851  1.00  0.00     0.167 HD
ENDBRANCH  12  13
ENDBRANCH   1  12
BRANCH   1  20
HETATM   20  C   UNK N   1      32.164  17.185   6.590  0.00  0.00     0.018 A 
HETATM   21  C   UNK N   1      31.008  16.758   5.903  0.00  0.00     0.128 A 
HETATM   22  F   UNK N   1      29.912  16.339   6.581  0.00  0.00    -0.205 F 
HETATM   23  C   UNK N   1      30.986  16.746   4.503  0.00  0.00     0.085 A 
HETATM   24  C   UNK N   1      32.102  17.167   3.774  0.00  0.00     0.119 A 
HETATM   25  F   UNK N   1      32.076  17.153   2.421  0.00  0.00    -0.206 F 
HETATM   26  C   UNK N   1      33.244  17.603   4.441  0.00  0.00     0.043 A 
HETATM   27  C   UNK N   1      33.275  17.611   5.835  0.00  0.00     0.016 A 
ENDBRANCH   1  20
TORSDOF 6
ENDMDL
MODEL 3
REMARK VINA RESULT:      -5.7      4.877      8.003
REMARK  6 active torsions:
REMARK  status: ('A' for Active; 'I' for Inactive)
REMARK    1  A    between atoms: O_3  and  C_14 
REMARK    2  A    between atoms: N_4  and  C_15 
REMARK    3  A    between atoms: N_5  and  C_16 
REMARK    4  A    between atoms: C_14  and  C_15 
REMARK    5  A    between atoms: C_14  and  C_16 
REMARK    6  A    between atoms: C_14  and  C_17 
ROOT
HETATM    1  C   UNK N   1      32.805  15.977   8.523  0.00  0.00     0.123 C 
ENDROOT
BRANCH   1   2
HETATM    2  O   UNK N   1      33.288  17.133   9.141  0.00  0.00    -0.381 OA
HETATM    3  H   UNK N   1      33.368  18.037   8.802  0.00  0.00     0.211 HD
ENDBRANCH   1   2
BRANCH   1   4
HETATM    4  C   UNK N   1      31.353  15.753   8.991  0.00  0.00     0.194 C 
BRANCH   4   5
HETATM    5  N   UNK N   1      30.532  16.950   8.830  0.00  0.00    -0.284 N 
HETATM    6  N   UNK N   1      30.557  17.974   9.659  0.00  0.00    -0.293 N 
HETATM    7  C   UNK N   1      29.697  18.889   9.171  0.00  0.00     0.198 A 
ATOM      8  HN  UNK N   1      31.117  18.058  10.507  1.00  0.00     0.188 HD
HETATM    9  N   UNK N   1      29.128  18.441   8.029  0.00  0.00    -0.346 N 
HETATM   10  C   UNK N   1      29.669  17.222   7.839  0.00  0.00     0.201 A 
ATOM     11  HN  UNK N   1      28.443  18.920   7.443  1.00  0.00     0.167 HD
ENDBRANCH   4   5
ENDBRANCH   1   4
BRANCH   1  12
HETATM   12  C   UNK N   1      33.683  14.786   8.981  0.00  0.00     0.194 C 
BRANCH  12  13
HETATM   13  N   UNK N   1      34.744  15.142   9.931  0.00  0.00    -0.284 N 
HETATM   14  N   UNK N   1      34.504  15.597  11.145  0.00  0.00    -0.293 N 
HETATM   15  C   UNK N   1      35.699  15.812  11.726  0.00  0.00     0.198 A 
ATOM     16  HN  UNK N   1      33.587  15.757  11.563  1.00  0.00     0.188 HD
HETATM   17  N   UNK N   1      36.704  15.493  10.881  0.00  0.00    -0.346 N 
HETATM   18  C   UNK N   1      36.079  15.074   9.764  0.00  0.00     0.201 A 
ATOM     19  HN  UNK N   1      37.707  15.554  11.051  1.00  0.00     0.167 HD
ENDBRANCH  12  13
ENDBRANCH   1  12
BRANCH   1  20
HETATM   20  C   UNK N   1      32.874  16.188   7.011  0.00  0.00     0.018 A 
HETATM   21  C   UNK N   1      32.465  15.179   6.112  0.00  0.00     0.128 A 
HETATM   22  F   UNK N   1      32.015  13.984   6.568  0.00  0.00    -0.205 F 
HETATM   23  C   UNK N   1      32.536  15.397   4.731  0.00  0.00     0.085 A 
HETATM   24  C   UNK N   1      33.000  16.616   4.230  0.00  0.00     0.119 A 
HETATM   25  F   UNK N   1      33.067  16.822   2.894  0.00  0.00    -0.206 F 
HETATM   26  C   UNK N   1      33.394  17.624   5.107  0.00  0.00     0.043 A 
HETATM   27  C   UNK N   1      33.332  17.411   6.484  0.00  0.00     0.016 A 
ENDBRANCH   1  20
TORSDOF 6
ENDMDL
MODEL 4
REMARK VINA RESULT:      -5.7      2.381      3.695
REMARK  6 active torsions:
REMARK  status: ('A' for Active; 'I' for Inactive)
REMARK    1  A    between atoms: O_3  and  C_14 
REMARK    2  A    between atoms: N_4  and  C_15 
REMARK    3  A    between atoms: N_5  and  C_16 
REMARK    4  A    between atoms: C_14  and  C_15 
REMARK    5  A    between atoms: C_14  and  C_16 
REMARK    6  A    between atoms: C_14  and  C_17 
ROOT
HETATM    1  C   UNK N   1      36.278  13.405  13.154  0.00  0.00     0.123 C 
ENDROOT
BRANCH   1   2
HETATM    2  O   UNK N   1      36.883  14.632  12.873  0.00  0.00    -0.381 OA
HETATM    3  H   UNK N   1      37.821  14.876  12.844  0.00  0.00     0.211 HD
ENDBRANCH   1   2
BRANCH   1   4
HETATM    4  C   UNK N   1      37.294  12.287  12.843  0.00  0.00     0.194 C 
BRANCH   4   5
HETATM    5  N   UNK N   1      37.786  12.358  11.470  0.00  0.00    -0.284 N 
HETATM    6  N   UNK N   1      38.517  13.350  11.002  0.00  0.00    -0.293 N 
HETATM    7  C   UNK N   1      38.803  13.051   9.720  0.00  0.00     0.198 A 
ATOM      8  HN  UNK N   1      38.810  14.183  11.511  1.00  0.00     0.188 HD
HETATM    9  N   UNK N   1      38.250  11.865   9.377  0.00  0.00    -0.346 N 
HETATM   10  C   UNK N   1      37.618  11.453  10.493  0.00  0.00     0.201 A 
ATOM     11  HN  UNK N   1      38.302  11.390   8.475  1.00  0.00     0.167 HD
ENDBRANCH   4   5
ENDBRANCH   1   4
BRANCH   1  12
HETATM   12  C   UNK N   1      35.046  13.253  12.227  0.00  0.00     0.194 C 
BRANCH  12  13
HETATM   13  N   UNK N   1      34.956  14.264  11.165  0.00  0.00    -0.284 N 
HETATM   14  N   UNK N   1      34.671  15.530  11.395  0.00  0.00    -0.293 N 
HETATM   15  C   UNK N   1      34.677  16.155  10.203  0.00  0.00     0.198 A 
ATOM     16  HN  UNK N   1      34.481  15.955  12.302  1.00  0.00     0.188 HD
HETATM   17  N   UNK N   1      34.967  15.285   9.210  0.00  0.00    -0.346 N 
HETATM   18  C   UNK N   1      35.140  14.108   9.840  0.00  0.00     0.201 A 
ATOM     19  HN  UNK N   1      35.040  15.477   8.211  1.00  0.00     0.167 HD
ENDBRANCH  12  13
ENDBRANCH   1  12
BRANCH   1  20
HETATM   20  C   UNK N   1      35.885  13.401  14.630  0.00  0.00     0.018 A 
HETATM   21  C   UNK N   1      36.572  14.198  15.572  0.00  0.00     0.128 A 
HETATM   22  F   UNK N   1      37.614  14.978  15.193  0.00  0.00    -0.205 F 
HETATM   23  C   UNK N   1      36.192  14.179  16.919  0.00  0.00     0.085 A 
HETATM   24  C   UNK N   1      35.125  13.383  17.342  0.00  0.00     0.119 A 
HETATM   25  F   UNK N   1      34.761  13.368  18.645  0.00  0.00    -0.206 F 
HETATM   26  C   UNK N   1      34.431  12.602  16.420  0.00  0.00     0.043 A 
HETATM   27  C   UNK N   1      34.809  12.611  15.078  0.00  0.00     0.016 A 
ENDBRANCH   1  20
TORSDOF 6
ENDMDL
MODEL 5
REMARK VINA RESULT:      -5.6      3.006      6.131
REMARK  6 active torsions:
REMARK  status: ('A' for Active; 'I' for Inactive)
REMARK    1  A    between atoms: O_3  and  C_14 
REMARK    2  A    between atoms: N_4  and  C_15 
REMARK    3  A    between atoms: N_5  and  C_16 
REMARK    4  A    between atoms: C_14  and  C_15 
REMARK    5  A    between atoms: C_14  and  C_16 
REMARK    6  A    between atoms: C_14  and  C_17 
ROOT
HETATM    1  C   UNK N   1      34.836  13.883  10.739  0.00  0.00     0.123 C 
ENDROOT
BRANCH   1   2
HETATM    2  O   UNK N   1      34.076  13.783  11.906  0.00  0.00    -0.381 OA
HETATM    3  H   UNK N   1      33.285  14.271  12.182  0.00  0.00     0.211 HD
ENDBRANCH   1   2
BRANCH   1   4
HETATM    4  C   UNK N   1      34.615  12.602   9.911  0.00  0.00     0.194 C 
BRANCH   4   5
HETATM    5  N   UNK N   1      34.760  11.393  10.717  0.00  0.00    -0.284 N 
HETATM    6  N   UNK N   1      33.878  10.999  11.615  0.00  0.00    -0.293 N 
HETATM    7  C   UNK N   1      34.337   9.839  12.126  0.00  0.00     0.198 A 
ATOM      8  HN  UNK N   1      33.016  11.478  11.873  1.00  0.00     0.188 HD
HETATM    9  N   UNK N   1      35.512   9.500  11.549  0.00  0.00    -0.346 N 
HETATM   10  C   UNK N   1      35.754  10.492  10.670  0.00  0.00     0.201 A 
ATOM     11  HN  UNK N   1      36.085   8.677  11.737  1.00  0.00     0.167 HD
ENDBRANCH   4   5
ENDBRANCH   1   4
BRANCH   1  12
HETATM   12  C   UNK N   1      36.328  13.982  11.145  0.00  0.00     0.194 C 
BRANCH  12  13
HETATM   13  N   UNK N   1      36.576  13.850  12.587  0.00  0.00    -0.284 N 
HETATM   14  N   UNK N   1      36.421  14.843  13.440  0.00  0.00    -0.293 N 
HETATM   15  C   UNK N   1      36.732  14.364  14.659  0.00  0.00     0.198 A 
ATOM     16  HN  UNK N   1      36.124  15.794  13.219  1.00  0.00     0.188 HD
HETATM   17  N   UNK N   1      37.085  13.062  14.583  0.00  0.00    -0.346 N 
HETATM   18  C   UNK N   1      36.977  12.764  13.274  0.00  0.00     0.201 A 
ATOM     19  HN  UNK N   1      37.368  12.445  15.344  1.00  0.00     0.167 HD
ENDBRANCH  12  13
ENDBRANCH   1  12
BRANCH   1  20
HETATM   20  C   UNK N   1      34.369  15.123   9.978  0.00  0.00     0.018 A 
HETATM   21  C   UNK N   1      33.108  15.160   9.345  0.00  0.00     0.128 A 
HETATM   22  F   UNK N   1      32.281  14.087   9.380  0.00  0.00    -0.205 F 
HETATM   23  C   UNK N   1      32.702  16.309   8.655  0.00  0.00     0.085 A 
HETATM   24  C   UNK N   1      33.533  17.430   8.597  0.00  0.00     0.119 A 
HETATM   25  F   UNK N   1      33.136  18.538   7.928  0.00  0.00    -0.206 F 
HETATM   26  C   UNK N   1      34.774  17.410   9.228  0.00  0.00     0.043 A 
HETATM   27  C   UNK N   1      35.188  16.267   9.911  0.00  0.00     0.016 A 
ENDBRANCH   1  20
TORSDOF 6
ENDMDL
MODEL 6
REMARK VINA RESULT:      -5.6      2.225      4.469
REMARK  6 active torsions:
REMARK  status: ('A' for Active; 'I' for Inactive)
REMARK    1  A    between atoms: O_3  and  C_14 
REMARK    2  A    between atoms: N_4  and  C_15 
REMARK    3  A    between atoms: N_5  and  C_16 
REMARK    4  A    between atoms: C_14  and  C_15 
REMARK    5  A    between atoms: C_14  and  C_16 
REMARK    6  A    between atoms: C_14  and  C_17 
ROOT
HETATM    1  C   UNK N   1      35.766  12.406  14.678  0.00  0.00     0.123 C 
ENDROOT
BRANCH   1   2
HETATM    2  O   UNK N   1      36.771  11.472  14.414  0.00  0.00    -0.381 OA
HETATM    3  H   UNK N   1      37.615  11.575  13.947  0.00  0.00     0.211 HD
ENDBRANCH   1   2
BRANCH   1   4
HETATM    4  C   UNK N   1      34.483  11.946  13.959  0.00  0.00     0.194 C 
BRANCH   4   5
HETATM    5  N   UNK N   1      34.727  10.819  13.063  0.00  0.00    -0.284 N 
HETATM    6  N   UNK N   1      34.915   9.581  13.474  0.00  0.00    -0.293 N 
HETATM    7  C   UNK N   1      35.076   8.826  12.370  0.00  0.00     0.198 A 
ATOM      8  HN  UNK N   1      34.934   9.256  14.440  1.00  0.00     0.188 HD
HETATM    9  N   UNK N   1      34.991   9.590  11.257  0.00  0.00    -0.346 N 
HETATM   10  C   UNK N   1      34.772  10.837  11.721  0.00  0.00     0.201 A 
ATOM     11  HN  UNK N   1      35.073   9.290  10.285  1.00  0.00     0.167 HD
ENDBRANCH   4   5
ENDBRANCH   1   4
BRANCH   1  12
HETATM   12  C   UNK N   1      36.218  13.772  14.101  0.00  0.00     0.194 C 
BRANCH  12  13
HETATM   13  N   UNK N   1      36.616  13.734  12.688  0.00  0.00    -0.284 N 
HETATM   14  N   UNK N   1      37.638  13.030  12.245  0.00  0.00    -0.293 N 
HETATM   15  C   UNK N   1      37.704  13.230  10.915  0.00  0.00     0.198 A 
ATOM     16  HN  UNK N   1      38.262  12.446  12.803  1.00  0.00     0.188 HD
HETATM   17  N   UNK N   1      36.720  14.063  10.510  0.00  0.00    -0.346 N 
HETATM   18  C   UNK N   1      36.052  14.363  11.639  0.00  0.00     0.201 A 
ATOM     19  HN  UNK N   1      36.528  14.390   9.564  1.00  0.00     0.167 HD
ENDBRANCH  12  13
ENDBRANCH   1  12
BRANCH   1  20
HETATM   20  C   UNK N   1      35.564  12.465  16.191  0.00  0.00     0.018 A 
HETATM   21  C   UNK N   1      35.525  11.288  16.970  0.00  0.00     0.128 A 
HETATM   22  F   UNK N   1      35.648  10.068  16.391  0.00  0.00    -0.205 F 
HETATM   23  C   UNK N   1      35.340  11.368  18.355  0.00  0.00     0.085 A 
HETATM   24  C   UNK N   1      35.206  12.610  18.981  0.00  0.00     0.119 A 
HETATM   25  F   UNK N   1      35.027  12.682  20.320  0.00  0.00    -0.206 F 
HETATM   26  C   UNK N   1      35.256  13.779  18.225  0.00  0.00     0.043 A 
HETATM   27  C   UNK N   1      35.433  13.706  16.843  0.00  0.00     0.016 A 
ENDBRANCH   1  20
TORSDOF 6
ENDMDL
MODEL 7
REMARK VINA RESULT:      -5.6      2.084      2.812
REMARK  6 active torsions:
REMARK  status: ('A' for Active; 'I' for Inactive)
REMARK    1  A    between atoms: O_3  and  C_14 
REMARK    2  A    between atoms: N_4  and  C_15 
REMARK    3  A    between atoms: N_5  and  C_16 
REMARK    4  A    between atoms: C_14  and  C_15 
REMARK    5  A    between atoms: C_14  and  C_16 
REMARK    6  A    between atoms: C_14  and  C_17 
ROOT
HETATM    1  C   UNK N   1      35.551  13.395  11.986  0.00  0.00     0.123 C 
ENDROOT
BRANCH   1   2
HETATM    2  O   UNK N   1      34.640  12.640  11.243  0.00  0.00    -0.381 OA
HETATM    3  H   UNK N   1      33.694  12.483  11.387  0.00  0.00     0.211 HD
ENDBRANCH   1   2
BRANCH   1   4
HETATM    4  C   UNK N   1      35.266  14.887  11.721  0.00  0.00     0.194 C 
BRANCH   4   5
HETATM    5  N   UNK N   1      34.338  15.082  10.611  0.00  0.00    -0.284 N 
HETATM    6  N   UNK N   1      33.039  14.872  10.694  0.00  0.00    -0.293 N 
HETATM    7  C   UNK N   1      32.517  15.185   9.492  0.00  0.00     0.198 A 
ATOM      8  HN  UNK N   1      32.527  14.536  11.511  1.00  0.00     0.188 HD
HETATM    9  N   UNK N   1      33.490  15.594   8.647  0.00  0.00    -0.346 N 
HETATM   10  C   UNK N   1      34.622  15.519   9.374  0.00  0.00     0.201 A 
ATOM     11  HN  UNK N   1      33.389  15.893   7.676  1.00  0.00     0.167 HD
ENDBRANCH   4   5
ENDBRANCH   1   4
BRANCH   1  12
HETATM   12  C   UNK N   1      36.977  13.048  11.490  0.00  0.00     0.194 C 
BRANCH  12  13
HETATM   13  N   UNK N   1      37.157  13.144  10.036  0.00  0.00    -0.284 N 
HETATM   14  N   UNK N   1      36.512  12.380   9.177  0.00  0.00    -0.293 N 
HETATM   15  C   UNK N   1      36.919  12.745   7.946  0.00  0.00     0.198 A 
ATOM     16  HN  UNK N   1      35.835  11.651   9.401  1.00  0.00     0.188 HD
HETATM   17  N   UNK N   1      37.826  13.744   8.022  0.00  0.00    -0.346 N 
HETATM   18  C   UNK N   1      37.955  13.977   9.341  0.00  0.00     0.201 A 
ATOM     19  HN  UNK N   1      38.302  14.216   7.253  1.00  0.00     0.167 HD
ENDBRANCH  12  13
ENDBRANCH   1  12
BRANCH   1  20
HETATM   20  C   UNK N   1      35.360  13.047  13.461  0.00  0.00     0.018 A 
HETATM   21  C   UNK N   1      36.016  13.776  14.476  0.00  0.00     0.128 A 
HETATM   22  F   UNK N   1      36.852  14.798  14.167  0.00  0.00    -0.205 F 
HETATM   23  C   UNK N   1      35.823  13.438  15.821  0.00  0.00     0.085 A 
HETATM   24  C   UNK N   1      34.972  12.388  16.171  0.00  0.00     0.119 A 
HETATM   25  F   UNK N   1      34.789  12.065  17.473  0.00  0.00    -0.206 F 
HETATM   26  C   UNK N   1      34.308  11.669  15.179  0.00  0.00     0.043 A 
HETATM   27  C   UNK N   1      34.501  11.996  13.837  0.00  0.00     0.016 A 
ENDBRANCH   1  20
TORSDOF 6
ENDMDL
MODEL 8
REMARK VINA RESULT:      -5.5      9.182     12.207
REMARK  6 active torsions:
REMARK  status: ('A' for Active; 'I' for Inactive)
REMARK    1  A    between atoms: O_3  and  C_14 
REMARK    2  A    between atoms: N_4  and  C_15 
REMARK    3  A    between atoms: N_5  and  C_16 
REMARK    4  A    between atoms: C_14  and  C_15 
REMARK    5  A    between atoms: C_14  and  C_16 
REMARK    6  A    between atoms: C_14  and  C_17 
ROOT
HETATM    1  C   UNK N   1      27.899  18.135   6.034  0.00  0.00     0.123 C 
ENDROOT
BRANCH   1   2
HETATM    2  O   UNK N   1      27.322  16.928   6.437  0.00  0.00    -0.381 OA
HETATM    3  H   UNK N   1      27.003  16.180   5.909  0.00  0.00     0.211 HD
ENDBRANCH   1   2
BRANCH   1   4
HETATM    4  C   UNK N   1      29.295  17.830   5.456  0.00  0.00     0.194 C 
BRANCH   4   5
HETATM    5  N   UNK N   1      29.601  16.402   5.481  0.00  0.00    -0.284 N 
HETATM    6  N   UNK N   1      29.014  15.511   4.708  0.00  0.00    -0.293 N 
HETATM    7  C   UNK N   1      29.575  14.320   4.993  0.00  0.00     0.198 A 
ATOM      8  HN  UNK N   1      28.276  15.688   4.026  1.00  0.00     0.188 HD
HETATM    9  N   UNK N   1      30.520  14.459   5.949  0.00  0.00    -0.346 N 
HETATM   10  C   UNK N   1      30.516  15.775   6.238  0.00  0.00     0.201 A 
ATOM     11  HN  UNK N   1      31.106  13.730   6.359  1.00  0.00     0.167 HD
ENDBRANCH   4   5
ENDBRANCH   1   4
BRANCH   1  12
HETATM   12  C   UNK N   1      28.046  19.036   7.285  0.00  0.00     0.194 C 
BRANCH  12  13
HETATM   13  N   UNK N   1      28.598  18.356   8.464  0.00  0.00    -0.284 N 
HETATM   14  N   UNK N   1      27.943  17.430   9.136  0.00  0.00    -0.293 N 
HETATM   15  C   UNK N   1      28.747  17.033  10.140  0.00  0.00     0.198 A 
ATOM     16  HN  UNK N   1      27.006  17.081   8.934  1.00  0.00     0.188 HD
HETATM   17  N   UNK N   1      29.918  17.708  10.108  0.00  0.00    -0.346 N 
HETATM   18  C   UNK N   1      29.799  18.529   9.048  0.00  0.00     0.201 A 
ATOM     19  HN  UNK N   1      30.710  17.615  10.742  1.00  0.00     0.167 HD
ENDBRANCH  12  13
ENDBRANCH   1  12
BRANCH   1  20
HETATM   20  C   UNK N   1      26.988  18.764   4.982  0.00  0.00     0.018 A 
HETATM   21  C   UNK N   1      27.262  20.042   4.447  0.00  0.00     0.128 A 
HETATM   22  F   UNK N   1      28.335  20.755   4.868  0.00  0.00    -0.205 F 
HETATM   23  C   UNK N   1      26.413  20.597   3.482  0.00  0.00     0.085 A 
HETATM   24  C   UNK N   1      25.296  19.889   3.031  0.00  0.00     0.119 A 
HETATM   25  F   UNK N   1      24.478  20.429   2.098  0.00  0.00    -0.206 F 
HETATM   26  C   UNK N   1      25.022  18.622   3.542  0.00  0.00     0.043 A 
HETATM   27  C   UNK N   1      25.860  18.066   4.508  0.00  0.00     0.016 A 
ENDBRANCH   1  20
TORSDOF 6
ENDMDL
MODEL 9
REMARK VINA RESULT:      -5.5     13.827     15.697
REMARK  6 active torsions:
REMARK  status: ('A' for Active; 'I' for Inactive)
REMARK    1  A    between atoms: O_3  and  C_14 
REMARK    2  A    between atoms: N_4  and  C_15 
REMARK    3  A    between atoms: N_5  and  C_16 
REMARK    4  A    between atoms: C_14  and  C_15 
REMARK    5  A    between atoms: C_14  and  C_16 
REMARK    6  A    between atoms: C_14  and  C_17 
ROOT
HETATM    1  C   UNK N   1      21.818  17.442   5.466  0.00  0.00     0.123 C 
ENDROOT
BRANCH   1   2
HETATM    2  O   UNK N   1      21.975  18.711   6.028  0.00  0.00    -0.381 OA
HETATM    3  H   UNK N   1      21.677  19.577   5.711  0.00  0.00     0.211 HD
ENDBRANCH   1   2
BRANCH   1   4
HETATM    4  C   UNK N   1      23.038  17.161   4.567  0.00  0.00     0.194 C 
BRANCH   4   5
HETATM    5  N   UNK N   1      23.976  18.280   4.546  0.00  0.00    -0.284 N 
HETATM    6  N   UNK N   1      24.880  18.497   5.480  0.00  0.00    -0.293 N 
HETATM    7  C   UNK N   1      25.571  19.591   5.103  0.00  0.00     0.198 A 
ATOM      8  HN  UNK N   1      25.029  17.945   6.324  1.00  0.00     0.188 HD
HETATM    9  N   UNK N   1      25.101  20.066   3.928  0.00  0.00    -0.346 N 
HETATM   10  C   UNK N   1      24.100  19.225   3.601  0.00  0.00     0.201 A 
ATOM     11  HN  UNK N   1      25.431  20.878   3.405  1.00  0.00     0.167 HD
ENDBRANCH   4   5
ENDBRANCH   1   4
BRANCH   1  12
HETATM   12  C   UNK N   1      20.533  17.457   4.600  0.00  0.00     0.194 C 
BRANCH  12  13
HETATM   13  N   UNK N   1      20.524  18.474   3.541  0.00  0.00    -0.284 N 
HETATM   14  N   UNK N   1      20.652  19.764   3.779  0.00  0.00    -0.293 N 
HETATM   15  C   UNK N   1      20.602  20.388   2.587  0.00  0.00     0.198 A 
ATOM     16  HN  UNK N   1      20.766  20.206   4.691  1.00  0.00     0.188 HD
HETATM   17  N   UNK N   1      20.442  19.493   1.587  0.00  0.00    -0.346 N 
HETATM   18  C   UNK N   1      20.398  18.302   2.212  0.00  0.00     0.201 A 
ATOM     19  HN  UNK N   1      20.371  19.679   0.587  1.00  0.00     0.167 HD
ENDBRANCH  12  13
ENDBRANCH   1  12
BRANCH   1  20
HETATM   20  C   UNK N   1      21.725  16.430   6.607  0.00  0.00     0.018 A 
HETATM   21  C   UNK N   1      20.815  16.610   7.672  0.00  0.00     0.128 A 
HETATM   22  F   UNK N   1      20.008  17.699   7.719  0.00  0.00    -0.205 F 
HETATM   23  C   UNK N   1      20.747  15.668   8.705  0.00  0.00     0.085 A 
HETATM   24  C   UNK N   1      21.568  14.538   8.687  0.00  0.00     0.119 A 
HETATM   25  F   UNK N   1      21.499  13.631   9.689  0.00  0.00    -0.206 F 
HETATM   26  C   UNK N   1      22.461  14.343   7.636  0.00  0.00     0.043 A 
HETATM   27  C   UNK N   1      22.538  15.281   6.607  0.00  0.00     0.016 A 
ENDBRANCH   1  20
TORSDOF 6
ENDMDL
