MODEL 1
REMARK VINA RESULT:      -5.1      0.000      0.000
REMARK  0 active torsions:
REMARK  status: ('A' for Active; 'I' for Inactive)
ROOT
HETATM    1  O   UNK N   1      30.017  17.197   4.895  0.00  0.00    -0.265 OA
HETATM    2  O   UNK N   1      34.398  17.534   6.005  0.00  0.00    -0.246 OA
HETATM    3  N   UNK N   1      32.884  17.474   7.682  0.00  0.00    -0.287 N 
HETATM    4  N   UNK N   1      29.416  17.233   7.707  0.00  0.00    -0.340 N 
HETATM    5  N   UNK N   1      32.230  17.365   5.363  0.00  0.00    -0.269 N 
HETATM    6  N   UNK N   1      31.038  17.387   9.247  0.00  0.00    -0.336 N 
ATOM      7  HN  UNK N   1      31.525  17.445  10.140  1.00  0.00     0.168 HD
HETATM    8  C   UNK N   1      30.597  17.297   7.083  0.00  0.00     0.149 A 
HETATM    9  C   UNK N   1      31.571  17.391   8.010  0.00  0.00     0.145 A 
HETATM   10  C   UNK N   1      30.899  17.282   5.732  0.00  0.00     0.282 A 
HETATM   11  C   UNK N   1      33.224  17.461   6.337  0.00  0.00     0.332 A 
HETATM   12  C   UNK N   1      29.696  17.287   9.031  0.00  0.00     0.184 A 
HETATM   13  C   UNK N   1      33.897  17.573   8.726  0.00  0.00     0.163 C 
HETATM   14  C   UNK N   1      28.098  17.124   7.105  0.00  0.00     0.157 C 
HETATM   15  C   UNK N   1      32.584  17.351   3.947  0.00  0.00     0.164 C 
ENDROOT
TORSDOF 0
ENDMDL
MODEL 2
REMARK VINA RESULT:      -5.0      6.970      9.336
REMARK  0 active torsions:
REMARK  status: ('A' for Active; 'I' for Inactive)
ROOT
HETATM    1  O   UNK N   1      24.098  21.050   2.368  0.00  0.00    -0.265 OA
HETATM    2  O   UNK N   1      20.638  18.649   4.044  0.00  0.00    -0.246 OA
HETATM    3  N   UNK N   1      22.714  18.195   4.817  0.00  0.00    -0.287 N 
HETATM    4  N   UNK N   1      25.837  19.533   4.082  0.00  0.00    -0.340 N 
HETATM    5  N   UNK N   1      22.311  19.895   3.153  0.00  0.00    -0.269 N 
HETATM    6  N   UNK N   1      25.039  17.941   5.444  0.00  0.00    -0.336 N 
ATOM      7  HN  UNK N   1      24.983  17.195   6.136  1.00  0.00     0.168 HD
HETATM    8  C   UNK N   1      24.511  19.461   3.929  0.00  0.00     0.149 A 
HETATM    9  C   UNK N   1      24.032  18.503   4.748  0.00  0.00     0.145 A 
HETATM   10  C   UNK N   1      23.663  20.184   3.108  0.00  0.00     0.282 A 
HETATM   11  C   UNK N   1      21.834  18.900   4.008  0.00  0.00     0.332 A 
HETATM   12  C   UNK N   1      26.151  18.599   5.012  0.00  0.00     0.184 A 
HETATM   13  C   UNK N   1      22.250  17.150   5.721  0.00  0.00     0.163 C 
HETATM   14  C   UNK N   1      26.763  20.422   3.402  0.00  0.00     0.157 C 
HETATM   15  C   UNK N   1      21.389  20.638   2.302  0.00  0.00     0.164 C 
ENDROOT
TORSDOF 0
ENDMDL
MODEL 3
REMARK VINA RESULT:      -4.9     10.868     12.435
REMARK  0 active torsions:
REMARK  status: ('A' for Active; 'I' for Inactive)
ROOT
HETATM    1  O   UNK N   1      20.381  15.525   4.176  0.00  0.00    -0.265 OA
HETATM    2  O   UNK N   1      21.272  19.969   4.175  0.00  0.00    -0.246 OA
HETATM    3  N   UNK N   1      20.629  19.019   2.227  0.00  0.00    -0.287 N 
HETATM    4  N   UNK N   1      19.777  15.758   1.374  0.00  0.00    -0.340 N 
HETATM    5  N   UNK N   1      20.847  17.743   4.263  0.00  0.00    -0.269 N 
HETATM    6  N   UNK N   1      19.923  17.724   0.307  0.00  0.00    -0.336 N 
ATOM      7  HN  UNK N   1      19.896  18.438  -0.421  1.00  0.00     0.168 HD
HETATM    8  C   UNK N   1      20.167  16.694   2.247  0.00  0.00     0.149 A 
HETATM    9  C   UNK N   1      20.255  17.875   1.603  0.00  0.00     0.145 A 
HETATM   10  C   UNK N   1      20.461  16.595   3.595  0.00  0.00     0.282 A 
HETATM   11  C   UNK N   1      20.931  18.957   3.580  0.00  0.00     0.332 A 
HETATM   12  C   UNK N   1      19.630  16.399   0.190  0.00  0.00     0.184 A 
HETATM   13  C   UNK N   1      20.707  20.270   1.483  0.00  0.00     0.163 C 
HETATM   14  C   UNK N   1      19.553  14.345   1.628  0.00  0.00     0.157 C 
HETATM   15  C   UNK N   1      21.163  17.675   5.686  0.00  0.00     0.164 C 
ENDROOT
TORSDOF 0
ENDMDL
MODEL 4
REMARK VINA RESULT:      -4.8      9.473     11.125
REMARK  0 active torsions:
REMARK  status: ('A' for Active; 'I' for Inactive)
ROOT
HETATM    1  O   UNK N   1      19.414  14.294   9.808  0.00  0.00    -0.265 OA
HETATM    2  O   UNK N   1      22.888  11.502  10.632  0.00  0.00    -0.246 OA
HETATM    3  N   UNK N   1      23.107  12.994   8.947  0.00  0.00    -0.287 N 
HETATM    4  N   UNK N   1      20.979  15.435   7.682  0.00  0.00    -0.340 N 
HETATM    5  N   UNK N   1      21.105  12.860  10.287  0.00  0.00    -0.269 N 
HETATM    6  N   UNK N   1      23.043  14.691   7.221  0.00  0.00    -0.336 N 
ATOM      7  HN  UNK N   1      23.960  14.577   6.790  1.00  0.00     0.168 HD
HETATM    8  C   UNK N   1      21.280  14.446   8.531  0.00  0.00     0.149 A 
HETATM    9  C   UNK N   1      22.521  14.000   8.252  0.00  0.00     0.145 A 
HETATM   10  C   UNK N   1      20.537  13.888   9.557  0.00  0.00     0.282 A 
HETATM   11  C   UNK N   1      22.391  12.411   9.983  0.00  0.00     0.332 A 
HETATM   12  C   UNK N   1      22.064  15.578   6.884  0.00  0.00     0.184 A 
HETATM   13  C   UNK N   1      24.452  12.550   8.604  0.00  0.00     0.163 C 
HETATM   14  C   UNK N   1      19.749  16.206   7.616  0.00  0.00     0.157 C 
HETATM   15  C   UNK N   1      20.349  12.249  11.375  0.00  0.00     0.164 C 
ENDROOT
TORSDOF 0
ENDMDL
MODEL 5
REMARK VINA RESULT:      -4.8      3.908      5.110
REMARK  0 active torsions:
REMARK  status: ('A' for Active; 'I' for Inactive)
ROOT
HETATM    1  O   UNK N   1      35.073  13.097   8.476  0.00  0.00    -0.265 OA
HETATM    2  O   UNK N   1      34.401  16.826   5.989  0.00  0.00    -0.246 OA
HETATM    3  N   UNK N   1      34.677  17.078   8.218  0.00  0.00    -0.287 N 
HETATM    4  N   UNK N   1      35.227  14.801  10.787  0.00  0.00    -0.340 N 
HETATM    5  N   UNK N   1      34.731  14.911   7.158  0.00  0.00    -0.269 N 
HETATM    6  N   UNK N   1      35.004  17.025  10.617  0.00  0.00    -0.336 N 
ATOM      7  HN  UNK N   1      34.945  18.015  10.852  1.00  0.00     0.168 HD
HETATM    8  C   UNK N   1      35.028  15.116   9.503  0.00  0.00     0.149 A 
HETATM    9  C   UNK N   1      34.892  16.454   9.402  0.00  0.00     0.145 A 
HETATM   10  C   UNK N   1      34.950  14.307   8.383  0.00  0.00     0.282 A 
HETATM   11  C   UNK N   1      34.595  16.298   7.074  0.00  0.00     0.332 A 
HETATM   12  C   UNK N   1      35.212  15.976  11.461  0.00  0.00     0.184 A 
HETATM   13  C   UNK N   1      34.539  18.528   8.166  0.00  0.00     0.163 C 
HETATM   14  C   UNK N   1      35.424  13.479  11.357  0.00  0.00     0.157 C 
HETATM   15  C   UNK N   1      34.646  14.088   5.956  0.00  0.00     0.164 C 
ENDROOT
TORSDOF 0
ENDMDL
MODEL 6
REMARK VINA RESULT:      -4.8      1.442      3.039
REMARK  0 active torsions:
REMARK  status: ('A' for Active; 'I' for Inactive)
ROOT
HETATM    1  O   UNK N   1      30.793  17.296   8.912  0.00  0.00    -0.265 OA
HETATM    2  O   UNK N   1      34.312  17.517   6.064  0.00  0.00    -0.246 OA
HETATM    3  N   UNK N   1      32.239  17.375   5.175  0.00  0.00    -0.287 N 
HETATM    4  N   UNK N   1      29.078  17.171   6.608  0.00  0.00    -0.340 N 
HETATM    5  N   UNK N   1      32.609  17.410   7.558  0.00  0.00    -0.269 N 
HETATM    6  N   UNK N   1      29.910  17.219   4.527  0.00  0.00    -0.336 N 
ATOM      7  HN  UNK N   1      29.982  17.219   3.510  1.00  0.00     0.168 HD
HETATM    8  C   UNK N   1      30.410  17.261   6.679  0.00  0.00     0.149 A 
HETATM    9  C   UNK N   1      30.910  17.288   5.428  0.00  0.00     0.145 A 
HETATM   10  C   UNK N   1      31.247  17.320   7.780  0.00  0.00     0.282 A 
HETATM   11  C   UNK N   1      33.107  17.438   6.255  0.00  0.00     0.332 A 
HETATM   12  C   UNK N   1      28.782  17.147   5.286  0.00  0.00     0.184 A 
HETATM   13  C   UNK N   1      32.725  17.402   3.801  0.00  0.00     0.163 C 
HETATM   14  C   UNK N   1      28.131  17.113   7.709  0.00  0.00     0.157 C 
HETATM   15  C   UNK N   1      33.520  17.475   8.696  0.00  0.00     0.164 C 
ENDROOT
TORSDOF 0
ENDMDL
MODEL 7
REMARK VINA RESULT:      -4.8      3.518      5.553
REMARK  0 active torsions:
REMARK  status: ('A' for Active; 'I' for Inactive)
ROOT
HETATM    1  O   UNK N   1      35.600  17.398  10.482  0.00  0.00    -0.265 OA
HETATM    2  O   UNK N   1      33.127  16.524   6.786  0.00  0.00    -0.246 OA
HETATM    3  N   UNK N   1      33.476  14.836   8.248  0.00  0.00    -0.287 N 
HETATM    4  N   UNK N   1      35.213  14.655  11.254  0.00  0.00    -0.340 N 
HETATM    5  N   UNK N   1      34.374  17.046   8.607  0.00  0.00    -0.269 N 
HETATM    6  N   UNK N   1      34.020  13.242   9.988  0.00  0.00    -0.336 N 
ATOM      7  HN  UNK N   1      33.555  12.401   9.645  1.00  0.00     0.168 HD
HETATM    8  C   UNK N   1      34.772  15.311  10.175  0.00  0.00     0.149 A 
HETATM    9  C   UNK N   1      34.055  14.460   9.414  0.00  0.00     0.145 A 
HETATM   10  C   UNK N   1      34.951  16.629   9.792  0.00  0.00     0.282 A 
HETATM   11  C   UNK N   1      33.635  16.150   7.833  0.00  0.00     0.332 A 
HETATM   12  C   UNK N   1      34.747  13.389  11.130  0.00  0.00     0.184 A 
HETATM   13  C   UNK N   1      32.711  13.874   7.464  0.00  0.00     0.163 C 
HETATM   14  C   UNK N   1      36.022  15.177  12.342  0.00  0.00     0.157 C 
HETATM   15  C   UNK N   1      34.542  18.429   8.173  0.00  0.00     0.164 C 
ENDROOT
TORSDOF 0
ENDMDL
MODEL 8
REMARK VINA RESULT:      -4.8      8.200     10.531
REMARK  0 active torsions:
REMARK  status: ('A' for Active; 'I' for Inactive)
ROOT
HETATM    1  O   UNK N   1      23.740  17.325   4.917  0.00  0.00    -0.265 OA
HETATM    2  O   UNK N   1      23.417  21.273   2.714  0.00  0.00    -0.246 OA
HETATM    3  N   UNK N   1      21.598  19.932   2.754  0.00  0.00    -0.287 N 
HETATM    4  N   UNK N   1      21.007  16.818   4.181  0.00  0.00    -0.340 N 
HETATM    5  N   UNK N   1      23.664  19.318   3.837  0.00  0.00    -0.269 N 
HETATM    6  N   UNK N   1      19.829  18.292   2.971  0.00  0.00    -0.336 N 
ATOM      7  HN  UNK N   1      19.072  18.740   2.456  1.00  0.00     0.168 HD
HETATM    8  C   UNK N   1      21.785  17.872   3.911  0.00  0.00     0.149 A 
HETATM    9  C   UNK N   1      21.076  18.757   3.183  0.00  0.00     0.145 A 
HETATM   10  C   UNK N   1      23.100  18.127   4.258  0.00  0.00     0.282 A 
HETATM   11  C   UNK N   1      22.914  20.223   3.084  0.00  0.00     0.332 A 
HETATM   12  C   UNK N   1      19.812  17.085   3.602  0.00  0.00     0.184 A 
HETATM   13  C   UNK N   1      20.786  20.854   1.969  0.00  0.00     0.163 C 
HETATM   14  C   UNK N   1      21.355  15.627   4.938  0.00  0.00     0.157 C 
HETATM   15  C   UNK N   1      25.048  19.620   4.186  0.00  0.00     0.164 C 
ENDROOT
TORSDOF 0
ENDMDL
MODEL 9
REMARK VINA RESULT:      -4.7     10.800     11.890
REMARK  0 active torsions:
REMARK  status: ('A' for Active; 'I' for Inactive)
ROOT
HETATM    1  O   UNK N   1      21.073  19.810   4.070  0.00  0.00    -0.265 OA
HETATM    2  O   UNK N   1      20.330  17.818   0.067  0.00  0.00    -0.246 OA
HETATM    3  N   UNK N   1      20.383  16.506   1.907  0.00  0.00    -0.287 N 
HETATM    4  N   UNK N   1      20.882  17.206   5.276  0.00  0.00    -0.340 N 
HETATM    5  N   UNK N   1      20.707  18.894   2.027  0.00  0.00    -0.269 N 
HETATM    6  N   UNK N   1      20.495  15.374   4.044  0.00  0.00    -0.336 N 
ATOM      7  HN  UNK N   1      20.336  14.405   3.769  1.00  0.00     0.168 HD
HETATM    8  C   UNK N   1      20.773  17.565   3.992  0.00  0.00     0.149 A 
HETATM    9  C   UNK N   1      20.541  16.462   3.253  0.00  0.00     0.145 A 
HETATM   10  C   UNK N   1      20.863  18.813   3.399  0.00  0.00     0.282 A 
HETATM   11  C   UNK N   1      20.467  17.741   1.279  0.00  0.00     0.332 A 
HETATM   12  C   UNK N   1      20.710  15.863   5.298  0.00  0.00     0.184 A 
HETATM   13  C   UNK N   1      20.133  15.282   1.156  0.00  0.00     0.163 C 
HETATM   14  C   UNK N   1      21.132  18.066   6.420  0.00  0.00     0.157 C 
HETATM   15  C   UNK N   1      20.796  20.193   1.370  0.00  0.00     0.164 C 
ENDROOT
TORSDOF 0
ENDMDL
