REMARK  0 active torsions:
REMARK  status: ('A' for Active; 'I' for Inactive)
ROOT
HETATM    1  O   UNK N   1       2.994   2.617   0.001  0.00  0.00    -0.265 OA
HETATM    2  O   UNK N   1       0.447  -1.132  -0.002  0.00  0.00    -0.246 OA
HETATM    3  N   UNK N   1       2.694  -1.380  -0.001  0.00  0.00    -0.287 N 
HETATM    4  N   UNK N   1       5.309   0.911   0.001  0.00  0.00    -0.340 N 
HETATM    5  N   UNK N   1       1.646   0.793  -0.001  0.00  0.00    -0.269 N 
HETATM    6  N   UNK N   1       5.115  -1.322   0.001  0.00  0.00    -0.336 N 
ATOM      7  HN  UNK N   1       5.342  -2.316   0.001  1.00  0.00     0.168 HD
HETATM    8  C   UNK N   1       4.010   0.592   0.001  0.00  0.00     0.149 A 
HETATM    9  C   UNK N   1       3.895  -0.751   0.000  0.00  0.00     0.145 A 
HETATM   10  C   UNK N   1       2.888   1.402   0.000  0.00  0.00     0.282 A 
HETATM   11  C   UNK N   1       1.547  -0.599  -0.001  0.00  0.00     0.332 A 
HETATM   12  C   UNK N   1       5.977  -0.267   0.002  0.00  0.00     0.184 A 
HETATM   13  C   UNK N   1       2.627  -2.836  -0.001  0.00  0.00     0.163 C 
HETATM   14  C   UNK N   1       5.897   2.240   0.002  0.00  0.00     0.157 C 
HETATM   15  C   UNK N   1       0.442   1.617  -0.001  0.00  0.00     0.164 C 
ENDROOT
TORSDOF 0
