MODEL 1
REMARK VINA RESULT:      -5.1      0.000      0.000
REMARK  11 active torsions:
REMARK  status: ('A' for Active; 'I' for Inactive)
REMARK    1  A    between atoms: O_1  and  C_15 
REMARK    2  A    between atoms: O_1  and  C_19 
REMARK    3  A    between atoms: O_2  and  C_16 
REMARK    4  A    between atoms: O_2  and  C_20 
REMARK    5  A    between atoms: N_5  and  C_7 
REMARK    6  A    between atoms: N_6  and  C_8 
REMARK    7  A    between atoms: C_7  and  C_15 
REMARK    8  A    between atoms: C_8  and  C_16 
REMARK    9  A    between atoms: C_17  and  C_18 
REMARK   10  A    between atoms: C_17  and  C_19 
REMARK   11  A    between atoms: C_18  and  C_20 
ROOT
HETATM    1  C   UNK N   1      34.580  15.984   9.271  0.00  0.00     0.121 C 
ENDROOT
BRANCH   1   2
HETATM    2  C   UNK N   1      33.871  17.310   9.027  0.00  0.00     0.121 C 
BRANCH   2   3
HETATM    3  C   UNK N   1      34.578  18.192   8.035  0.00  0.00     0.259 C 
HETATM    4  O   UNK N   1      35.213  19.148   8.451  0.00  0.00    -0.265 OA
BRANCH   3   5
HETATM    5  O   UNK N   1      34.549  17.912   6.704  0.00  0.00    -0.320 OA
BRANCH   5   6
HETATM    6  C   UNK N   1      33.378  17.581   6.054  0.00  0.00     0.206 C 
BRANCH   6   7
HETATM    7  C   UNK N   1      33.449  16.148   5.522  0.00  0.00     0.262 C 
BRANCH   7   8
HETATM    8  N   UNK N   1      32.272  15.345   5.871  0.00  0.00    -0.077 N 
HETATM    9  C   UNK N   1      31.655  14.882   4.643  0.00  0.00     0.271 C 
HETATM   10  C   UNK N   1      32.655  14.180   6.652  0.00  0.00     0.271 C 
HETATM   11  C   UNK N   1      31.286  16.123   6.607  0.00  0.00     0.271 C 
ENDBRANCH   7   8
ENDBRANCH   6   7
ENDBRANCH   5   6
ENDBRANCH   3   5
ENDBRANCH   2   3
ENDBRANCH   1   2
BRANCH   1  12
HETATM   12  C   UNK N   1      35.344  15.962  10.567  0.00  0.00     0.259 C 
HETATM   13  O   UNK N   1      36.366  16.624  10.657  0.00  0.00    -0.265 OA
BRANCH  12  14
HETATM   14  O   UNK N   1      34.889  15.249  11.633  0.00  0.00    -0.320 OA
BRANCH  14  15
HETATM   15  C   UNK N   1      35.231  13.927  11.827  0.00  0.00     0.206 C 
BRANCH  15  16
HETATM   16  C   UNK N   1      36.510  13.824  12.658  0.00  0.00     0.262 C 
BRANCH  16  17
HETATM   17  N   UNK N   1      36.375  12.930  13.813  0.00  0.00    -0.077 N 
HETATM   18  C   UNK N   1      37.251  11.777  13.675  0.00  0.00     0.271 C 
HETATM   19  C   UNK N   1      35.005  12.455  13.867  0.00  0.00     0.271 C 
HETATM   20  C   UNK N   1      36.667  13.616  15.065  0.00  0.00     0.271 C 
ENDBRANCH  16  17
ENDBRANCH  15  16
ENDBRANCH  14  15
ENDBRANCH  12  14
ENDBRANCH   1  12
TORSDOF 11
ENDMDL
MODEL 2
REMARK VINA RESULT:      -4.8      0.868      7.351
REMARK  11 active torsions:
REMARK  status: ('A' for Active; 'I' for Inactive)
REMARK    1  A    between atoms: O_1  and  C_15 
REMARK    2  A    between atoms: O_1  and  C_19 
REMARK    3  A    between atoms: O_2  and  C_16 
REMARK    4  A    between atoms: O_2  and  C_20 
REMARK    5  A    between atoms: N_5  and  C_7 
REMARK    6  A    between atoms: N_6  and  C_8 
REMARK    7  A    between atoms: C_7  and  C_15 
REMARK    8  A    between atoms: C_8  and  C_16 
REMARK    9  A    between atoms: C_17  and  C_18 
REMARK   10  A    between atoms: C_17  and  C_19 
REMARK   11  A    between atoms: C_18  and  C_20 
ROOT
HETATM    1  C   UNK N   1      34.199  17.165   9.234  0.00  0.00     0.121 C 
ENDROOT
BRANCH   1   2
HETATM    2  C   UNK N   1      34.802  15.768   9.158  0.00  0.00     0.121 C 
BRANCH   2   3
HETATM    3  C   UNK N   1      35.905  15.538  10.155  0.00  0.00     0.259 C 
HETATM    4  O   UNK N   1      36.388  16.504  10.725  0.00  0.00    -0.265 OA
BRANCH   3   5
HETATM    5  O   UNK N   1      36.332  14.281  10.451  0.00  0.00    -0.320 OA
BRANCH   5   6
HETATM    6  C   UNK N   1      36.634  13.899  11.742  0.00  0.00     0.206 C 
BRANCH   6   7
HETATM    7  C   UNK N   1      35.352  13.648  12.539  0.00  0.00     0.262 C 
BRANCH   7   8
HETATM    8  N   UNK N   1      35.507  12.618  13.571  0.00  0.00    -0.077 N 
HETATM    9  C   UNK N   1      36.830  12.037  13.442  0.00  0.00     0.271 C 
HETATM   10  C   UNK N   1      35.396  13.198  14.900  0.00  0.00     0.271 C 
HETATM   11  C   UNK N   1      34.528  11.551  13.421  0.00  0.00     0.271 C 
ENDBRANCH   7   8
ENDBRANCH   6   7
ENDBRANCH   5   6
ENDBRANCH   3   5
ENDBRANCH   2   3
ENDBRANCH   1   2
BRANCH   1  12
HETATM   12  C   UNK N   1      34.629  18.048   8.095  0.00  0.00     0.259 C 
HETATM   13  O   UNK N   1      35.046  19.168   8.346  0.00  0.00    -0.265 OA
BRANCH  12  14
HETATM   14  O   UNK N   1      34.591  17.599   6.812  0.00  0.00    -0.320 OA
BRANCH  14  15
HETATM   15  C   UNK N   1      33.435  17.629   6.061  0.00  0.00     0.206 C 
BRANCH  15  16
HETATM   16  C   UNK N   1      33.026  16.212   5.657  0.00  0.00     0.262 C 
BRANCH  16  17
HETATM   17  N   UNK N   1      31.744  15.796   6.235  0.00  0.00    -0.077 N 
HETATM   18  C   UNK N   1      31.135  16.890   6.976  0.00  0.00     0.271 C 
HETATM   19  C   UNK N   1      31.991  14.705   7.161  0.00  0.00     0.271 C 
HETATM   20  C   UNK N   1      30.818  15.324   5.216  0.00  0.00     0.271 C 
ENDBRANCH  16  17
ENDBRANCH  15  16
ENDBRANCH  14  15
ENDBRANCH  12  14
ENDBRANCH   1  12
TORSDOF 11
ENDMDL
MODEL 3
REMARK VINA RESULT:      -4.6     14.492     17.292
REMARK  11 active torsions:
REMARK  status: ('A' for Active; 'I' for Inactive)
REMARK    1  A    between atoms: O_1  and  C_15 
REMARK    2  A    between atoms: O_1  and  C_19 
REMARK    3  A    between atoms: O_2  and  C_16 
REMARK    4  A    between atoms: O_2  and  C_20 
REMARK    5  A    between atoms: N_5  and  C_7 
REMARK    6  A    between atoms: N_6  and  C_8 
REMARK    7  A    between atoms: C_7  and  C_15 
REMARK    8  A    between atoms: C_8  and  C_16 
REMARK    9  A    between atoms: C_17  and  C_18 
REMARK   10  A    between atoms: C_17  and  C_19 
REMARK   11  A    between atoms: C_18  and  C_20 
ROOT
HETATM    1  C   UNK N   1      29.796  24.198  -3.346  0.00  0.00     0.121 C 
ENDROOT
BRANCH   1   2
HETATM    2  C   UNK N   1      28.454  24.099  -4.059  0.00  0.00     0.121 C 
BRANCH   2   3
HETATM    3  C   UNK N   1      27.275  24.244  -3.136  0.00  0.00     0.259 C 
HETATM    4  O   UNK N   1      27.266  23.607  -2.095  0.00  0.00    -0.265 OA
BRANCH   3   5
HETATM    5  O   UNK N   1      26.256  25.097  -3.430  0.00  0.00    -0.320 OA
BRANCH   5   6
HETATM    6  C   UNK N   1      26.458  26.248  -4.163  0.00  0.00     0.206 C 
BRANCH   6   7
HETATM    7  C   UNK N   1      26.298  27.483  -3.275  0.00  0.00     0.262 C 
BRANCH   7   8
HETATM    8  N   UNK N   1      27.285  28.529  -3.559  0.00  0.00    -0.077 N 
HETATM    9  C   UNK N   1      28.463  27.904  -4.131  0.00  0.00     0.271 C 
HETATM   10  C   UNK N   1      26.764  29.482  -4.527  0.00  0.00     0.271 C 
HETATM   11  C   UNK N   1      27.689  29.234  -2.351  0.00  0.00     0.271 C 
ENDBRANCH   7   8
ENDBRANCH   6   7
ENDBRANCH   5   6
ENDBRANCH   3   5
ENDBRANCH   2   3
ENDBRANCH   1   2
BRANCH   1  12
HETATM   12  C   UNK N   1      30.295  22.867  -2.854  0.00  0.00     0.259 C 
HETATM   13  O   UNK N   1      30.921  22.825  -1.806  0.00  0.00    -0.265 OA
BRANCH  12  14
HETATM   14  O   UNK N   1      30.024  21.724  -3.540  0.00  0.00    -0.320 OA
BRANCH  14  15
HETATM   15  C   UNK N   1      30.704  21.384  -4.691  0.00  0.00     0.206 C 
BRANCH  15  16
HETATM   16  C   UNK N   1      31.708  20.267  -4.405  0.00  0.00     0.262 C 
BRANCH  16  17
HETATM   17  N   UNK N   1      33.102  20.723  -4.436  0.00  0.00    -0.077 N 
HETATM   18  C   UNK N   1      33.205  22.018  -5.092  0.00  0.00     0.271 C 
HETATM   19  C   UNK N   1      33.881  19.765  -5.199  0.00  0.00     0.271 C 
HETATM   20  C   UNK N   1      33.673  20.808  -3.099  0.00  0.00     0.271 C 
ENDBRANCH  16  17
ENDBRANCH  15  16
ENDBRANCH  14  15
ENDBRANCH  12  14
ENDBRANCH   1  12
TORSDOF 11
ENDMDL
MODEL 4
REMARK VINA RESULT:      -4.6      2.477      3.886
REMARK  11 active torsions:
REMARK  status: ('A' for Active; 'I' for Inactive)
REMARK    1  A    between atoms: O_1  and  C_15 
REMARK    2  A    between atoms: O_1  and  C_19 
REMARK    3  A    between atoms: O_2  and  C_16 
REMARK    4  A    between atoms: O_2  and  C_20 
REMARK    5  A    between atoms: N_5  and  C_7 
REMARK    6  A    between atoms: N_6  and  C_8 
REMARK    7  A    between atoms: C_7  and  C_15 
REMARK    8  A    between atoms: C_8  and  C_16 
REMARK    9  A    between atoms: C_17  and  C_18 
REMARK   10  A    between atoms: C_17  and  C_19 
REMARK   11  A    between atoms: C_18  and  C_20 
ROOT
HETATM    1  C   UNK N   1      33.178  18.043   8.203  0.00  0.00     0.121 C 
ENDROOT
BRANCH   1   2
HETATM    2  C   UNK N   1      32.992  16.934   7.175  0.00  0.00     0.121 C 
BRANCH   2   3
HETATM    3  C   UNK N   1      32.897  17.441   5.761  0.00  0.00     0.259 C 
HETATM    4  O   UNK N   1      33.912  17.846   5.216  0.00  0.00    -0.265 OA
BRANCH   3   5
HETATM    5  O   UNK N   1      31.718  17.414   5.085  0.00  0.00    -0.320 OA
BRANCH   5   6
HETATM    6  C   UNK N   1      30.591  16.812   5.608  0.00  0.00     0.206 C 
BRANCH   6   7
HETATM    7  C   UNK N   1      29.386  17.746   5.497  0.00  0.00     0.262 C 
BRANCH   7   8
HETATM    8  N   UNK N   1      28.570  17.783   6.715  0.00  0.00    -0.077 N 
HETATM    9  C   UNK N   1      29.434  17.524   7.852  0.00  0.00     0.271 C 
HETATM   10  C   UNK N   1      27.967  19.094   6.894  0.00  0.00     0.271 C 
HETATM   11  C   UNK N   1      27.528  16.765   6.699  0.00  0.00     0.271 C 
ENDBRANCH   7   8
ENDBRANCH   6   7
ENDBRANCH   5   6
ENDBRANCH   3   5
ENDBRANCH   2   3
ENDBRANCH   1   2
BRANCH   1  12
HETATM   12  C   UNK N   1      34.609  18.200   8.639  0.00  0.00     0.259 C 
HETATM   13  O   UNK N   1      35.326  18.978   8.030  0.00  0.00    -0.265 OA
BRANCH  12  14
HETATM   14  O   UNK N   1      35.090  17.518   9.714  0.00  0.00    -0.320 OA
BRANCH  14  15
HETATM   15  C   UNK N   1      35.148  16.141   9.738  0.00  0.00     0.206 C 
BRANCH  15  16
HETATM   16  C   UNK N   1      36.270  15.672  10.667  0.00  0.00     0.262 C 
BRANCH  16  17
HETATM   17  N   UNK N   1      36.610  14.257  10.490  0.00  0.00    -0.077 N 
HETATM   18  C   UNK N   1      36.772  13.602  11.779  0.00  0.00     0.271 C 
HETATM   19  C   UNK N   1      37.873  14.175   9.779  0.00  0.00     0.271 C 
HETATM   20  C   UNK N   1      35.604  13.552   9.708  0.00  0.00     0.271 C 
ENDBRANCH  16  17
ENDBRANCH  15  16
ENDBRANCH  14  15
ENDBRANCH  12  14
ENDBRANCH   1  12
TORSDOF 11
ENDMDL
MODEL 5
REMARK VINA RESULT:      -4.6      2.008      3.369
REMARK  11 active torsions:
REMARK  status: ('A' for Active; 'I' for Inactive)
REMARK    1  A    between atoms: O_1  and  C_15 
REMARK    2  A    between atoms: O_1  and  C_19 
REMARK    3  A    between atoms: O_2  and  C_16 
REMARK    4  A    between atoms: O_2  and  C_20 
REMARK    5  A    between atoms: N_5  and  C_7 
REMARK    6  A    between atoms: N_6  and  C_8 
REMARK    7  A    between atoms: C_7  and  C_15 
REMARK    8  A    between atoms: C_8  and  C_16 
REMARK    9  A    between atoms: C_17  and  C_18 
REMARK   10  A    between atoms: C_17  and  C_19 
REMARK   11  A    between atoms: C_18  and  C_20 
ROOT
HETATM    1  C   UNK N   1      33.563  17.694   7.986  0.00  0.00     0.121 C 
ENDROOT
BRANCH   1   2
HETATM    2  C   UNK N   1      33.892  17.143   6.605  0.00  0.00     0.121 C 
BRANCH   2   3
HETATM    3  C   UNK N   1      32.784  17.334   5.606  0.00  0.00     0.259 C 
HETATM    4  O   UNK N   1      31.630  17.199   5.981  0.00  0.00    -0.265 OA
BRANCH   3   5
HETATM    5  O   UNK N   1      33.052  17.690   4.321  0.00  0.00    -0.320 OA
BRANCH   5   6
HETATM    6  C   UNK N   1      32.561  16.973   3.248  0.00  0.00     0.206 C 
BRANCH   6   7
HETATM    7  C   UNK N   1      33.423  15.737   2.991  0.00  0.00     0.262 C 
BRANCH   7   8
HETATM    8  N   UNK N   1      32.711  14.477   3.233  0.00  0.00    -0.077 N 
HETATM    9  C   UNK N   1      33.134  13.951   4.517  0.00  0.00     0.271 C 
HETATM   10  C   UNK N   1      31.274  14.698   3.287  0.00  0.00     0.271 C 
HETATM   11  C   UNK N   1      33.013  13.481   2.215  0.00  0.00     0.271 C 
ENDBRANCH   7   8
ENDBRANCH   6   7
ENDBRANCH   5   6
ENDBRANCH   3   5
ENDBRANCH   2   3
ENDBRANCH   1   2
BRANCH   1  12
HETATM   12  C   UNK N   1      34.774  18.217   8.709  0.00  0.00     0.259 C 
HETATM   13  O   UNK N   1      35.300  19.243   8.307  0.00  0.00    -0.265 OA
BRANCH  12  14
HETATM   14  O   UNK N   1      35.255  17.584   9.813  0.00  0.00    -0.320 OA
BRANCH  14  15
HETATM   15  C   UNK N   1      34.893  16.292  10.130  0.00  0.00     0.206 C 
BRANCH  15  16
HETATM   16  C   UNK N   1      36.124  15.385  10.154  0.00  0.00     0.262 C 
BRANCH  16  17
HETATM   17  N   UNK N   1      36.003  14.274  11.104  0.00  0.00    -0.077 N 
HETATM   18  C   UNK N   1      35.911  14.773  12.468  0.00  0.00     0.271 C 
HETATM   19  C   UNK N   1      37.195  13.452  11.002  0.00  0.00     0.271 C 
HETATM   20  C   UNK N   1      34.848  13.437  10.813  0.00  0.00     0.271 C 
ENDBRANCH  16  17
ENDBRANCH  15  16
ENDBRANCH  14  15
ENDBRANCH  12  14
ENDBRANCH   1  12
TORSDOF 11
ENDMDL
MODEL 6
REMARK VINA RESULT:      -4.6     15.017     17.558
REMARK  11 active torsions:
REMARK  status: ('A' for Active; 'I' for Inactive)
REMARK    1  A    between atoms: O_1  and  C_15 
REMARK    2  A    between atoms: O_1  and  C_19 
REMARK    3  A    between atoms: O_2  and  C_16 
REMARK    4  A    between atoms: O_2  and  C_20 
REMARK    5  A    between atoms: N_5  and  C_7 
REMARK    6  A    between atoms: N_6  and  C_8 
REMARK    7  A    between atoms: C_7  and  C_15 
REMARK    8  A    between atoms: C_8  and  C_16 
REMARK    9  A    between atoms: C_17  and  C_18 
REMARK   10  A    between atoms: C_17  and  C_19 
REMARK   11  A    between atoms: C_18  and  C_20 
ROOT
HETATM    1  C   UNK N   1      29.549  22.906  -3.496  0.00  0.00     0.121 C 
ENDROOT
BRANCH   1   2
HETATM    2  C   UNK N   1      28.982  24.308  -3.678  0.00  0.00     0.121 C 
BRANCH   2   3
HETATM    3  C   UNK N   1      27.506  24.396  -3.396  0.00  0.00     0.259 C 
HETATM    4  O   UNK N   1      27.048  23.744  -2.471  0.00  0.00    -0.265 OA
BRANCH   3   5
HETATM    5  O   UNK N   1      26.701  25.214  -4.126  0.00  0.00    -0.320 OA
BRANCH   5   6
HETATM    6  C   UNK N   1      25.675  24.721  -4.906  0.00  0.00     0.206 C 
BRANCH   6   7
HETATM    7  C   UNK N   1      25.890  25.098  -6.372  0.00  0.00     0.262 C 
BRANCH   7   8
HETATM    8  N   UNK N   1      26.207  23.946  -7.223  0.00  0.00    -0.077 N 
HETATM    9  C   UNK N   1      25.541  24.124  -8.500  0.00  0.00     0.271 C 
HETATM   10  C   UNK N   1      27.638  23.863  -7.467  0.00  0.00     0.271 C 
HETATM   11  C   UNK N   1      25.739  22.697  -6.639  0.00  0.00     0.271 C 
ENDBRANCH   7   8
ENDBRANCH   6   7
ENDBRANCH   5   6
ENDBRANCH   3   5
ENDBRANCH   2   3
ENDBRANCH   1   2
BRANCH   1  12
HETATM   12  C   UNK N   1      30.473  22.800  -2.314  0.00  0.00     0.259 C 
HETATM   13  O   UNK N   1      30.054  23.116  -1.212  0.00  0.00    -0.265 OA
BRANCH  12  14
HETATM   14  O   UNK N   1      31.739  22.325  -2.459  0.00  0.00    -0.320 OA
BRANCH  14  15
HETATM   15  C   UNK N   1      32.031  21.263  -3.289  0.00  0.00     0.206 C 
BRANCH  15  16
HETATM   16  C   UNK N   1      33.090  21.667  -4.316  0.00  0.00     0.262 C 
BRANCH  16  17
HETATM   17  N   UNK N   1      32.613  21.575  -5.700  0.00  0.00    -0.077 N 
HETATM   18  C   UNK N   1      33.689  21.157  -6.587  0.00  0.00     0.271 C 
HETATM   19  C   UNK N   1      32.167  22.891  -6.119  0.00  0.00     0.271 C 
HETATM   20  C   UNK N   1      31.492  20.654  -5.827  0.00  0.00     0.271 C 
ENDBRANCH  16  17
ENDBRANCH  15  16
ENDBRANCH  14  15
ENDBRANCH  12  14
ENDBRANCH   1  12
TORSDOF 11
ENDMDL
MODEL 7
REMARK VINA RESULT:      -4.5     11.638     15.624
REMARK  11 active torsions:
REMARK  status: ('A' for Active; 'I' for Inactive)
REMARK    1  A    between atoms: O_1  and  C_15 
REMARK    2  A    between atoms: O_1  and  C_19 
REMARK    3  A    between atoms: O_2  and  C_16 
REMARK    4  A    between atoms: O_2  and  C_20 
REMARK    5  A    between atoms: N_5  and  C_7 
REMARK    6  A    between atoms: N_6  and  C_8 
REMARK    7  A    between atoms: C_7  and  C_15 
REMARK    8  A    between atoms: C_8  and  C_16 
REMARK    9  A    between atoms: C_17  and  C_18 
REMARK   10  A    between atoms: C_17  and  C_19 
REMARK   11  A    between atoms: C_18  and  C_20 
ROOT
HETATM    1  C   UNK N   1      21.635  16.476   7.069  0.00  0.00     0.121 C 
ENDROOT
BRANCH   1   2
HETATM    2  C   UNK N   1      20.292  15.760   7.007  0.00  0.00     0.121 C 
BRANCH   2   3
HETATM    3  C   UNK N   1      19.892  15.127   8.311  0.00  0.00     0.259 C 
HETATM    4  O   UNK N   1      19.196  15.769   9.083  0.00  0.00    -0.265 OA
BRANCH   3   5
HETATM    5  O   UNK N   1      20.259  13.853   8.614  0.00  0.00    -0.320 OA
BRANCH   5   6
HETATM    6  C   UNK N   1      20.961  13.550   9.763  0.00  0.00     0.206 C 
BRANCH   6   7
HETATM    7  C   UNK N   1      22.465  13.690   9.522  0.00  0.00     0.262 C 
BRANCH   7   8
HETATM    8  N   UNK N   1      23.233  12.529   9.985  0.00  0.00    -0.077 N 
HETATM    9  C   UNK N   1      24.638  12.890  10.011  0.00  0.00     0.271 C 
HETATM   10  C   UNK N   1      22.838  12.152  11.333  0.00  0.00     0.271 C 
HETATM   11  C   UNK N   1      23.076  11.388   9.094  0.00  0.00     0.271 C 
ENDBRANCH   7   8
ENDBRANCH   6   7
ENDBRANCH   5   6
ENDBRANCH   3   5
ENDBRANCH   2   3
ENDBRANCH   1   2
BRANCH   1  12
HETATM   12  C   UNK N   1      21.582  17.865   6.495  0.00  0.00     0.259 C 
HETATM   13  O   UNK N   1      20.916  18.713   7.069  0.00  0.00    -0.265 OA
BRANCH  12  14
HETATM   14  O   UNK N   1      22.291  18.187   5.379  0.00  0.00    -0.320 OA
BRANCH  14  15
HETATM   15  C   UNK N   1      21.715  18.843   4.312  0.00  0.00     0.206 C 
BRANCH  15  16
HETATM   16  C   UNK N   1      21.005  17.847   3.395  0.00  0.00     0.262 C 
BRANCH  16  17
HETATM   17  N   UNK N   1      20.343  18.486   2.253  0.00  0.00    -0.077 N 
HETATM   18  C   UNK N   1      21.073  19.672   1.834  0.00  0.00     0.271 C 
HETATM   19  C   UNK N   1      19.013  18.894   2.664  0.00  0.00     0.271 C 
HETATM   20  C   UNK N   1      20.209  17.573   1.126  0.00  0.00     0.271 C 
ENDBRANCH  16  17
ENDBRANCH  15  16
ENDBRANCH  14  15
ENDBRANCH  12  14
ENDBRANCH   1  12
TORSDOF 11
ENDMDL
MODEL 8
REMARK VINA RESULT:      -4.5     15.165     18.370
REMARK  11 active torsions:
REMARK  status: ('A' for Active; 'I' for Inactive)
REMARK    1  A    between atoms: O_1  and  C_15 
REMARK    2  A    between atoms: O_1  and  C_19 
REMARK    3  A    between atoms: O_2  and  C_16 
REMARK    4  A    between atoms: O_2  and  C_20 
REMARK    5  A    between atoms: N_5  and  C_7 
REMARK    6  A    between atoms: N_6  and  C_8 
REMARK    7  A    between atoms: C_7  and  C_15 
REMARK    8  A    between atoms: C_8  and  C_16 
REMARK    9  A    between atoms: C_17  and  C_18 
REMARK   10  A    between atoms: C_17  and  C_19 
REMARK   11  A    between atoms: C_18  and  C_20 
ROOT
HETATM    1  C   UNK N   1      29.017  24.402  -3.365  0.00  0.00     0.121 C 
ENDROOT
BRANCH   1   2
HETATM    2  C   UNK N   1      29.823  23.140  -3.647  0.00  0.00     0.121 C 
BRANCH   2   3
HETATM    3  C   UNK N   1      30.589  22.641  -2.453  0.00  0.00     0.259 C 
HETATM    4  O   UNK N   1      30.316  23.095  -1.353  0.00  0.00    -0.265 OA
BRANCH   3   5
HETATM    5  O   UNK N   1      31.537  21.675  -2.583  0.00  0.00    -0.320 OA
BRANCH   5   6
HETATM    6  C   UNK N   1      32.433  21.670  -3.632  0.00  0.00     0.206 C 
BRANCH   6   7
HETATM    7  C   UNK N   1      32.246  20.417  -4.489  0.00  0.00     0.262 C 
BRANCH   7   8
HETATM    8  N   UNK N   1      31.949  20.718  -5.893  0.00  0.00    -0.077 N 
HETATM    9  C   UNK N   1      32.747  19.840  -6.728  0.00  0.00     0.271 C 
HETATM   10  C   UNK N   1      30.546  20.470  -6.189  0.00  0.00     0.271 C 
HETATM   11  C   UNK N   1      32.283  22.093  -6.234  0.00  0.00     0.271 C 
ENDBRANCH   7   8
ENDBRANCH   6   7
ENDBRANCH   5   6
ENDBRANCH   3   5
ENDBRANCH   2   3
ENDBRANCH   1   2
BRANCH   1  12
HETATM   12  C   UNK N   1      27.557  24.246  -3.689  0.00  0.00     0.259 C 
HETATM   13  O   UNK N   1      26.790  23.913  -2.799  0.00  0.00    -0.265 OA
BRANCH  12  14
HETATM   14  O   UNK N   1      27.088  24.506  -4.940  0.00  0.00    -0.320 OA
BRANCH  14  15
HETATM   15  C   UNK N   1      26.205  23.661  -5.579  0.00  0.00     0.206 C 
BRANCH  15  16
HETATM   16  C   UNK N   1      26.922  22.869  -6.672  0.00  0.00     0.262 C 
BRANCH  16  17
HETATM   17  N   UNK N   1      26.071  22.588  -7.833  0.00  0.00    -0.077 N 
HETATM   18  C   UNK N   1      25.490  23.816  -8.354  0.00  0.00     0.271 C 
HETATM   19  C   UNK N   1      24.988  21.720  -7.407  0.00  0.00     0.271 C 
HETATM   20  C   UNK N   1      26.806  21.909  -8.891  0.00  0.00     0.271 C 
ENDBRANCH  16  17
ENDBRANCH  15  16
ENDBRANCH  14  15
ENDBRANCH  12  14
ENDBRANCH   1  12
TORSDOF 11
ENDMDL
MODEL 9
REMARK VINA RESULT:      -4.4     17.241     20.208
REMARK  11 active torsions:
REMARK  status: ('A' for Active; 'I' for Inactive)
REMARK    1  A    between atoms: O_1  and  C_15 
REMARK    2  A    between atoms: O_1  and  C_19 
REMARK    3  A    between atoms: O_2  and  C_16 
REMARK    4  A    between atoms: O_2  and  C_20 
REMARK    5  A    between atoms: N_5  and  C_7 
REMARK    6  A    between atoms: N_6  and  C_8 
REMARK    7  A    between atoms: C_7  and  C_15 
REMARK    8  A    between atoms: C_8  and  C_16 
REMARK    9  A    between atoms: C_17  and  C_18 
REMARK   10  A    between atoms: C_17  and  C_19 
REMARK   11  A    between atoms: C_18  and  C_20 
ROOT
HETATM    1  C   UNK N   1      26.017  27.251  -6.045  0.00  0.00     0.121 C 
ENDROOT
BRANCH   1   2
HETATM    2  C   UNK N   1      25.063  27.665  -4.932  0.00  0.00     0.121 C 
BRANCH   2   3
HETATM    3  C   UNK N   1      25.759  28.268  -3.742  0.00  0.00     0.259 C 
HETATM    4  O   UNK N   1      26.012  27.550  -2.787  0.00  0.00    -0.265 OA
BRANCH   3   5
HETATM    5  O   UNK N   1      26.139  29.574  -3.740  0.00  0.00    -0.320 OA
BRANCH   5   6
HETATM    6  C   UNK N   1      27.191  30.026  -2.969  0.00  0.00     0.206 C 
BRANCH   6   7
HETATM    7  C   UNK N   1      28.257  30.679  -3.850  0.00  0.00     0.262 C 
BRANCH   7   8
HETATM    8  N   UNK N   1      29.461  29.856  -4.004  0.00  0.00    -0.077 N 
HETATM    9  C   UNK N   1      29.562  28.973  -2.857  0.00  0.00     0.271 C 
HETATM   10  C   UNK N   1      29.376  29.035  -5.201  0.00  0.00     0.271 C 
HETATM   11  C   UNK N   1      30.668  30.669  -4.056  0.00  0.00     0.271 C 
ENDBRANCH   7   8
ENDBRANCH   6   7
ENDBRANCH   5   6
ENDBRANCH   3   5
ENDBRANCH   2   3
ENDBRANCH   1   2
BRANCH   1  12
HETATM   12  C   UNK N   1      25.767  25.851  -6.534  0.00  0.00     0.259 C 
HETATM   13  O   UNK N   1      26.109  25.555  -7.669  0.00  0.00    -0.265 OA
BRANCH  12  14
HETATM   14  O   UNK N   1      25.206  24.916  -5.720  0.00  0.00    -0.320 OA
BRANCH  14  15
HETATM   15  C   UNK N   1      25.928  23.853  -5.222  0.00  0.00     0.206 C 
BRANCH  15  16
HETATM   16  C   UNK N   1      26.670  24.262  -3.949  0.00  0.00     0.262 C 
BRANCH  16  17
HETATM   17  N   UNK N   1      28.128  24.187  -4.082  0.00  0.00    -0.077 N 
HETATM   18  C   UNK N   1      28.715  23.501  -2.941  0.00  0.00     0.271 C 
HETATM   19  C   UNK N   1      28.655  25.539  -4.118  0.00  0.00     0.271 C 
HETATM   20  C   UNK N   1      28.525  23.514  -5.311  0.00  0.00     0.271 C 
ENDBRANCH  16  17
ENDBRANCH  15  16
ENDBRANCH  14  15
ENDBRANCH  12  14
ENDBRANCH   1  12
TORSDOF 11
ENDMDL
