REMARK  11 active torsions:
REMARK  status: ('A' for Active; 'I' for Inactive)
REMARK    1  A    between atoms: S_1  and  N_9 
REMARK    2  A    between atoms: S_2  and  N_10 
REMARK    3  A    between atoms: O_3  and  C_15 
REMARK    4  A    between atoms: O_3  and  C_22 
REMARK    5  A    between atoms: N_8  and  C_11 
REMARK    6  A    between atoms: N_8  and  C_13 
REMARK    7  A    between atoms: N_9  and  C_19 
REMARK    8  A    between atoms: N_10  and  C_23 
REMARK    9  A    between atoms: C_11  and  C_12 
REMARK   10  A    between atoms: C_12  and  C_14 
REMARK   11  A    between atoms: C_13  and  C_15 
ROOT
HETATM    1  N   UNK N   1       5.195  -0.520  -0.502  0.00  0.00     0.086 N 
HETATM    2  C   UNK N   1       5.388  -1.771  -1.214  0.00  0.00     0.310 C 
ENDROOT
BRANCH   1   3
HETATM    3  C   UNK N   1       6.300   0.339  -0.881  0.00  0.00     0.276 C 
BRANCH   3   4
HETATM    4  C   UNK N   1       6.791   1.120   0.325  0.00  0.00     0.068 C 
BRANCH   4   5
HETATM    5  C   UNK N   1       6.293   2.524   0.289  0.00  0.00    -0.056 A 
HETATM    6  C   UNK N   1       4.943   2.817   0.519  0.00  0.00     0.009 A 
HETATM    7  C   UNK N   1       4.500   4.143   0.498  0.00  0.00     0.030 A 
HETATM    8  C   UNK N   1       5.401   5.185   0.251  0.00  0.00     0.042 A 
HETATM    9  C   UNK N   1       6.753   4.881   0.019  0.00  0.00     0.030 A 
HETATM   10  C   UNK N   1       7.195   3.559   0.042  0.00  0.00     0.009 A 
BRANCH   8  11
HETATM   11  N   UNK N   1       4.920   6.533   0.257  0.00  0.00    -0.285 N 
HETATM   12  H   UNK N   1       3.952   6.639   0.402  0.00  0.00     0.178 HD
BRANCH  11  13
HETATM   13  S   UNK N   1       5.837   8.048   0.036  0.00  0.00     0.227 S 
HETATM   14  O   UNK N   1       6.694   7.414   1.143  0.00  0.00    -0.206 OA
HETATM   15  O   UNK N   1       6.242   7.323  -1.257  0.00  0.00    -0.206 OA
HETATM   16  C   UNK N   1       7.618   8.092  -0.310  0.00  0.00     0.186 C 
ENDBRANCH  11  13
ENDBRANCH   8  11
ENDBRANCH   4   5
ENDBRANCH   3   4
ENDBRANCH   1   3
BRANCH   1  17
HETATM   17  C   UNK N   1       3.971   0.078  -1.019  0.00  0.00     0.298 C 
BRANCH  17  18
HETATM   18  C   UNK N   1       2.933   0.260   0.094  0.00  0.00     0.206 C 
BRANCH  18  19
HETATM   19  O   UNK N   1       2.903  -0.822   0.955  0.00  0.00    -0.349 OA
BRANCH  19  20
HETATM   20  C   UNK N   1       2.597  -2.087   0.580  0.00  0.00     0.069 A 
HETATM   21  C   UNK N   1       2.170  -2.384  -0.726  0.00  0.00     0.039 A 
HETATM   22  C   UNK N   1       1.918  -3.703  -1.102  0.00  0.00     0.033 A 
HETATM   23  C   UNK N   1       2.084  -4.739  -0.182  0.00  0.00     0.042 A 
HETATM   24  C   UNK N   1       2.492  -4.445   1.128  0.00  0.00     0.033 A 
HETATM   25  C   UNK N   1       2.748  -3.125   1.505  0.00  0.00     0.039 A 
BRANCH  23  26
HETATM   26  N   UNK N   1       1.834  -6.069  -0.591  0.00  0.00    -0.285 N 
HETATM   27  H   UNK N   1       1.579  -6.238  -1.527  0.00  0.00     0.178 HD
BRANCH  26  28
HETATM   28  S   UNK N   1       1.963  -7.430   0.508  0.00  0.00     0.227 S 
HETATM   29  O   UNK N   1       0.482  -7.466   0.102  0.00  0.00    -0.206 OA
HETATM   30  O   UNK N   1       2.669  -7.977  -0.742  0.00  0.00    -0.206 OA
HETATM   31  C   UNK N   1       1.388  -9.104   0.116  0.00  0.00     0.186 C 
ENDBRANCH  26  28
ENDBRANCH  23  26
ENDBRANCH  19  20
ENDBRANCH  18  19
ENDBRANCH  17  18
ENDBRANCH   1  17
TORSDOF 11
