MODEL 1
REMARK VINA RESULT:      -6.5      0.000      0.000
REMARK  3 active torsions:
REMARK  status: ('A' for Active; 'I' for Inactive)
REMARK    1  A    between atoms: N_6  and  C_12 
REMARK       I    between atoms: N_7  and  C_16 
REMARK    2  A    between atoms: C_8  and  C_11 
REMARK    3  A    between atoms: C_9  and  C_10 
ROOT
HETATM    1  N   UNK N   1      34.878  12.866  12.629  0.00  0.00    -0.195 N 
ATOM      2  HN  UNK N   1      34.283  12.476  11.899  1.00  0.00     0.184 HD
HETATM    3  N   UNK N   1      36.486  14.443  13.282  0.00  0.00    -0.176 N 
ATOM      4  HN  UNK N   1      37.094  15.226  13.040  1.00  0.00     0.186 HD
HETATM    5  N   UNK N   1      35.687  14.450  11.030  0.00  0.00    -0.234 N 
HETATM    6  C   UNK N   1      35.667  12.863  14.904  0.00  0.00     0.041 A 
HETATM    7  C   UNK N   1      34.841  12.324  13.875  0.00  0.00     0.041 A 
HETATM    8  C   UNK N   1      36.501  13.957  14.550  0.00  0.00     0.127 A 
HETATM    9  C   UNK N   1      35.685  13.911  12.333  0.00  0.00     0.677 A 
HETATM   10  H   UNK N   1      36.299  15.188  10.804  0.00  0.00     0.174 HD
HETATM   11  H   UNK N   1      35.077  14.089  10.347  0.00  0.00     0.174 HD
ENDROOT
BRANCH   6  12
HETATM   12  C   UNK N   1      35.663  12.315  16.310  0.00  0.00    -0.020 A 
HETATM   13  C   UNK N   1      35.099  13.058  17.363  0.00  0.00     0.014 A 
HETATM   14  C   UNK N   1      35.057  12.548  18.661  0.00  0.00     0.024 A 
HETATM   15  C   UNK N   1      35.593  11.290  18.933  0.00  0.00     0.034 A 
HETATM   16 Cl   UNK N   1      35.535  10.650  20.561  0.00  0.00    -0.084 Cl
HETATM   17  C   UNK N   1      36.171  10.542  17.907  0.00  0.00     0.024 A 
HETATM   18  C   UNK N   1      36.200  11.049  16.605  0.00  0.00     0.014 A 
ENDBRANCH   6  12
BRANCH   7  19
HETATM   19  C   UNK N   1      33.877  11.199  14.099  0.00  0.00     0.054 C 
HETATM   20  C   UNK N   1      33.973  10.170  12.983  0.00  0.00     0.011 C 
ENDBRANCH   7  19
BRANCH   8  21
HETATM   21  N   UNK N   1      37.391  14.537  15.477  0.00  0.00    -0.384 N 
HETATM   22  H   UNK N   1      38.152  14.015  15.823  0.00  0.00     0.157 HD
HETATM   23  H   UNK N   1      37.253  15.464  15.781  0.00  0.00     0.157 HD
ENDBRANCH   8  21
TORSDOF 3
ENDMDL
MODEL 2
REMARK VINA RESULT:      -6.2      1.174      3.107
REMARK  3 active torsions:
REMARK  status: ('A' for Active; 'I' for Inactive)
REMARK    1  A    between atoms: N_6  and  C_12 
REMARK       I    between atoms: N_7  and  C_16 
REMARK    2  A    between atoms: C_8  and  C_11 
REMARK    3  A    between atoms: C_9  and  C_10 
ROOT
HETATM    1  N   UNK N   1      36.812  14.941  13.864  0.00  0.00    -0.195 N 
ATOM      2  HN  UNK N   1      37.440  15.737  13.754  1.00  0.00     0.184 HD
HETATM    3  N   UNK N   1      35.285  13.438  12.912  0.00  0.00    -0.176 N 
ATOM      4  HN  UNK N   1      34.769  13.114  12.093  1.00  0.00     0.186 HD
HETATM    5  N   UNK N   1      36.291  15.113  11.537  0.00  0.00    -0.234 N 
HETATM    6  C   UNK N   1      35.814  13.245  15.253  0.00  0.00     0.041 A 
HETATM    7  C   UNK N   1      36.687  14.360  15.087  0.00  0.00     0.041 A 
HETATM    8  C   UNK N   1      35.111  12.805  14.100  0.00  0.00     0.127 A 
HETATM    9  C   UNK N   1      36.125  14.488  12.789  0.00  0.00     0.677 A 
HETATM   10  H   UNK N   1      35.766  14.807  10.761  0.00  0.00     0.174 HD
HETATM   11  H   UNK N   1      36.931  15.854  11.437  0.00  0.00     0.174 HD
ENDROOT
BRANCH   6  12
HETATM   12  C   UNK N   1      35.640  12.549  16.580  0.00  0.00    -0.020 A 
HETATM   13  C   UNK N   1      36.062  11.217  16.748  0.00  0.00     0.014 A 
HETATM   14  C   UNK N   1      35.940  10.574  17.979  0.00  0.00     0.024 A 
HETATM   15  C   UNK N   1      35.378  11.246  19.064  0.00  0.00     0.034 A 
HETATM   16 Cl   UNK N   1      35.229  10.438  20.609  0.00  0.00    -0.084 Cl
HETATM   17  C   UNK N   1      34.938  12.561  18.917  0.00  0.00     0.024 A 
HETATM   18  C   UNK N   1      35.073  13.208  17.686  0.00  0.00     0.014 A 
ENDBRANCH   6  12
BRANCH   7  19
HETATM   19  C   UNK N   1      37.529  14.917  16.195  0.00  0.00     0.054 C 
HETATM   20  C   UNK N   1      37.549  16.438  16.151  0.00  0.00     0.011 C 
ENDBRANCH   7  19
BRANCH   8  21
HETATM   21  N   UNK N   1      34.188  11.740  14.161  0.00  0.00    -0.384 N 
HETATM   22  H   UNK N   1      33.321  11.812  13.697  0.00  0.00     0.157 HD
HETATM   23  H   UNK N   1      34.408  10.924  14.667  0.00  0.00     0.157 HD
ENDBRANCH   8  21
TORSDOF 3
ENDMDL
MODEL 3
REMARK VINA RESULT:      -6.2     11.680     14.296
REMARK  3 active torsions:
REMARK  status: ('A' for Active; 'I' for Inactive)
REMARK    1  A    between atoms: N_6  and  C_12 
REMARK       I    between atoms: N_7  and  C_16 
REMARK    2  A    between atoms: C_8  and  C_11 
REMARK    3  A    between atoms: C_9  and  C_10 
ROOT
HETATM    1  N   UNK N   1      30.750  16.964   6.901  0.00  0.00    -0.195 N 
ATOM      2  HN  UNK N   1      31.560  16.432   6.585  1.00  0.00     0.184 HD
HETATM    3  N   UNK N   1      29.504  17.866   8.671  0.00  0.00    -0.176 N 
ATOM      4  HN  UNK N   1      29.381  18.006   9.674  1.00  0.00     0.186 HD
HETATM    5  N   UNK N   1      31.509  16.658   9.148  0.00  0.00    -0.234 N 
HETATM    6  C   UNK N   1      28.738  18.195   6.412  0.00  0.00     0.041 A 
HETATM    7  C   UNK N   1      29.874  17.449   5.981  0.00  0.00     0.041 A 
HETATM    8  C   UNK N   1      28.589  18.384   7.812  0.00  0.00     0.127 A 
HETATM    9  C   UNK N   1      30.572  17.169   8.227  0.00  0.00     0.677 A 
HETATM   10  H   UNK N   1      31.364  16.776  10.115  0.00  0.00     0.174 HD
HETATM   11  H   UNK N   1      32.308  16.182   8.825  0.00  0.00     0.174 HD
ENDROOT
BRANCH   6  12
HETATM   12  C   UNK N   1      27.737  18.770   5.441  0.00  0.00    -0.020 A 
HETATM   13  C   UNK N   1      26.605  18.027   5.060  0.00  0.00     0.014 A 
HETATM   14  C   UNK N   1      25.653  18.561   4.190  0.00  0.00     0.024 A 
HETATM   15  C   UNK N   1      25.824  19.844   3.673  0.00  0.00     0.034 A 
HETATM   16 Cl   UNK N   1      24.627  20.513   2.586  0.00  0.00    -0.084 Cl
HETATM   17  C   UNK N   1      26.947  20.593   4.024  0.00  0.00     0.024 A 
HETATM   18  C   UNK N   1      27.893  20.062   4.906  0.00  0.00     0.014 A 
ENDBRANCH   6  12
BRANCH   7  19
HETATM   19  C   UNK N   1      30.194  17.198   4.539  0.00  0.00     0.054 C 
HETATM   20  C   UNK N   1      31.660  17.484   4.249  0.00  0.00     0.011 C 
ENDBRANCH   7  19
BRANCH   8  21
HETATM   21  N   UNK N   1      27.479  19.068   8.350  0.00  0.00    -0.384 N 
HETATM   22  H   UNK N   1      27.100  19.844   7.875  0.00  0.00     0.157 HD
HETATM   23  H   UNK N   1      27.081  18.770   9.200  0.00  0.00     0.157 HD
ENDBRANCH   8  21
TORSDOF 3
ENDMDL
MODEL 4
REMARK VINA RESULT:      -6.2      8.262     10.522
REMARK  3 active torsions:
REMARK  status: ('A' for Active; 'I' for Inactive)
REMARK    1  A    between atoms: N_6  and  C_12 
REMARK       I    between atoms: N_7  and  C_16 
REMARK    2  A    between atoms: C_8  and  C_11 
REMARK    3  A    between atoms: C_9  and  C_10 
ROOT
HETATM    1  N   UNK N   1      28.972  17.800   5.949  0.00  0.00    -0.195 N 
ATOM      2  HN  UNK N   1      28.702  17.641   4.979  1.00  0.00     0.184 HD
HETATM    3  N   UNK N   1      28.460  18.690   8.058  0.00  0.00    -0.176 N 
ATOM      4  HN  UNK N   1      27.812  19.198   8.661  1.00  0.00     0.186 HD
HETATM    5  N   UNK N   1      26.882  18.914   6.278  0.00  0.00    -0.234 N 
HETATM    6  C   UNK N   1      30.561  17.556   7.743  0.00  0.00     0.041 A 
HETATM    7  C   UNK N   1      30.174  17.341   6.388  0.00  0.00     0.041 A 
HETATM    8  C   UNK N   1      29.642  18.259   8.568  0.00  0.00     0.127 A 
HETATM    9  C   UNK N   1      28.123  18.463   6.769  0.00  0.00     0.677 A 
HETATM   10  H   UNK N   1      26.278  19.427   6.863  0.00  0.00     0.174 HD
HETATM   11  H   UNK N   1      26.618  18.717   5.351  0.00  0.00     0.174 HD
ENDROOT
BRANCH   6  12
HETATM   12  C   UNK N   1      31.875  17.061   8.294  0.00  0.00    -0.020 A 
HETATM   13  C   UNK N   1      33.017  17.882   8.259  0.00  0.00     0.014 A 
HETATM   14  C   UNK N   1      34.230  17.450   8.797  0.00  0.00     0.024 A 
HETATM   15  C   UNK N   1      34.327  16.181   9.367  0.00  0.00     0.034 A 
HETATM   16 Cl   UNK N   1      35.848  15.642  10.045  0.00  0.00    -0.084 Cl
HETATM   17  C   UNK N   1      33.212  15.344   9.397  0.00  0.00     0.024 A 
HETATM   18  C   UNK N   1      31.994  15.783   8.870  0.00  0.00     0.014 A 
ENDBRANCH   6  12
BRANCH   7  19
HETATM   19  C   UNK N   1      31.012  16.582   5.404  0.00  0.00     0.054 C 
HETATM   20  C   UNK N   1      31.833  17.530   4.543  0.00  0.00     0.011 C 
ENDBRANCH   7  19
BRANCH   8  21
HETATM   21  N   UNK N   1      29.942  18.566   9.911  0.00  0.00    -0.384 N 
HETATM   22  H   UNK N   1      30.752  18.195  10.332  0.00  0.00     0.157 HD
HETATM   23  H   UNK N   1      29.343  19.152  10.429  0.00  0.00     0.157 HD
ENDBRANCH   8  21
TORSDOF 3
ENDMDL
MODEL 5
REMARK VINA RESULT:      -6.1     17.277     19.104
REMARK  3 active torsions:
REMARK  status: ('A' for Active; 'I' for Inactive)
REMARK    1  A    between atoms: N_6  and  C_12 
REMARK       I    between atoms: N_7  and  C_16 
REMARK    2  A    between atoms: C_8  and  C_11 
REMARK    3  A    between atoms: C_9  and  C_10 
ROOT
HETATM    1  N   UNK N   1      21.908  20.483   2.159  0.00  0.00    -0.195 N 
ATOM      2  HN  UNK N   1      22.544  21.238   1.904  1.00  0.00     0.184 HD
HETATM    3  N   UNK N   1      19.840  19.415   1.875  0.00  0.00    -0.176 N 
ATOM      4  HN  UNK N   1      18.931  19.374   1.412  1.00  0.00     0.186 HD
HETATM    5  N   UNK N   1      20.344  21.354   0.573  0.00  0.00    -0.234 N 
HETATM    6  C   UNK N   1      21.412  18.520   3.463  0.00  0.00     0.041 A 
HETATM    7  C   UNK N   1      22.293  19.581   3.100  0.00  0.00     0.041 A 
HETATM    8  C   UNK N   1      20.155  18.476   2.803  0.00  0.00     0.127 A 
HETATM    9  C   UNK N   1      20.701  20.404   1.551  0.00  0.00     0.677 A 
HETATM   10  H   UNK N   1      19.454  21.319   0.154  0.00  0.00     0.174 HD
HETATM   11  H   UNK N   1      20.985  22.053   0.308  0.00  0.00     0.174 HD
ENDROOT
BRANCH   6  12
HETATM   12  C   UNK N   1      21.785  17.480   4.490  0.00  0.00    -0.020 A 
HETATM   13  C   UNK N   1      21.438  17.657   5.842  0.00  0.00     0.014 A 
HETATM   14  C   UNK N   1      21.745  16.686   6.797  0.00  0.00     0.024 A 
HETATM   15  C   UNK N   1      22.420  15.526   6.419  0.00  0.00     0.034 A 
HETATM   16 Cl   UNK N   1      22.801  14.309   7.616  0.00  0.00    -0.084 Cl
HETATM   17  C   UNK N   1      22.789  15.337   5.087  0.00  0.00     0.024 A 
HETATM   18  C   UNK N   1      22.468  16.304   4.130  0.00  0.00     0.014 A 
ENDBRANCH   6  12
BRANCH   7  19
HETATM   19  C   UNK N   1      23.669  19.741   3.674  0.00  0.00     0.054 C 
HETATM   20  C   UNK N   1      24.569  20.513   2.721  0.00  0.00     0.011 C 
ENDBRANCH   7  19
BRANCH   8  21
HETATM   21  N   UNK N   1      19.191  17.497   3.118  0.00  0.00    -0.384 N 
HETATM   22  H   UNK N   1      18.663  17.076   2.400  0.00  0.00     0.157 HD
HETATM   23  H   UNK N   1      19.043  17.233   4.056  0.00  0.00     0.157 HD
ENDBRANCH   8  21
TORSDOF 3
ENDMDL
MODEL 6
REMARK VINA RESULT:      -5.8     10.685     12.921
REMARK  3 active torsions:
REMARK  status: ('A' for Active; 'I' for Inactive)
REMARK    1  A    between atoms: N_6  and  C_12 
REMARK       I    between atoms: N_7  and  C_16 
REMARK    2  A    between atoms: C_8  and  C_11 
REMARK    3  A    between atoms: C_9  and  C_10 
ROOT
HETATM    1  N   UNK N   1      29.432  17.995   8.016  0.00  0.00    -0.195 N 
ATOM      2  HN  UNK N   1      29.574  18.023   9.025  1.00  0.00     0.184 HD
HETATM    3  N   UNK N   1      28.124  18.560   6.153  0.00  0.00    -0.176 N 
ATOM      4  HN  UNK N   1      27.289  19.005   5.771  1.00  0.00     0.186 HD
HETATM    5  N   UNK N   1      27.415  19.240   8.330  0.00  0.00    -0.234 N 
HETATM    6  C   UNK N   1      30.161  17.320   5.821  0.00  0.00     0.041 A 
HETATM    7  C   UNK N   1      30.349  17.364   7.234  0.00  0.00     0.041 A 
HETATM    8  C   UNK N   1      28.997  17.951   5.309  0.00  0.00     0.127 A 
HETATM    9  C   UNK N   1      28.336  18.588   7.487  0.00  0.00     0.677 A 
HETATM   10  H   UNK N   1      26.599  19.642   7.952  0.00  0.00     0.174 HD
HETATM   11  H   UNK N   1      27.586  19.294   9.298  0.00  0.00     0.174 HD
ENDROOT
BRANCH   6  12
HETATM   12  C   UNK N   1      31.147  16.647   4.899  0.00  0.00    -0.020 A 
HETATM   13  C   UNK N   1      32.174  17.389   4.288  0.00  0.00     0.014 A 
HETATM   14  C   UNK N   1      33.114  16.772   3.461  0.00  0.00     0.024 A 
HETATM   15  C   UNK N   1      33.035  15.402   3.218  0.00  0.00     0.034 A 
HETATM   16 Cl   UNK N   1      34.216  14.629   2.184  0.00  0.00    -0.084 Cl
HETATM   17  C   UNK N   1      32.015  14.648   3.801  0.00  0.00     0.024 A 
HETATM   18  C   UNK N   1      31.083  15.266   4.639  0.00  0.00     0.014 A 
ENDBRANCH   6  12
BRANCH   7  19
HETATM   19  C   UNK N   1      31.545  16.782   7.924  0.00  0.00     0.054 C 
HETATM   20  C   UNK N   1      32.578  17.859   8.222  0.00  0.00     0.011 C 
ENDBRANCH   7  19
BRANCH   8  21
HETATM   21  N   UNK N   1      28.690  17.929   3.933  0.00  0.00    -0.384 N 
HETATM   22  H   UNK N   1      27.834  18.296   3.612  0.00  0.00     0.157 HD
HETATM   23  H   UNK N   1      29.332  17.545   3.291  0.00  0.00     0.157 HD
ENDBRANCH   8  21
TORSDOF 3
ENDMDL
MODEL 7
REMARK VINA RESULT:      -5.7      3.640      5.473
REMARK  3 active torsions:
REMARK  status: ('A' for Active; 'I' for Inactive)
REMARK    1  A    between atoms: N_6  and  C_12 
REMARK       I    between atoms: N_7  and  C_16 
REMARK    2  A    between atoms: C_8  and  C_11 
REMARK    3  A    between atoms: C_9  and  C_10 
ROOT
HETATM    1  N   UNK N   1      34.668  12.789  16.894  0.00  0.00    -0.195 N 
ATOM      2  HN  UNK N   1      33.972  12.200  17.351  1.00  0.00     0.184 HD
HETATM    3  N   UNK N   1      36.289  14.477  17.052  0.00  0.00    -0.176 N 
ATOM      4  HN  UNK N   1      36.801  15.149  17.624  1.00  0.00     0.186 HD
HETATM    5  N   UNK N   1      35.130  13.779  19.022  0.00  0.00    -0.234 N 
HETATM    6  C   UNK N   1      35.843  13.477  14.908  0.00  0.00     0.041 A 
HETATM    7  C   UNK N   1      34.872  12.659  15.557  0.00  0.00     0.041 A 
HETATM    8  C   UNK N   1      36.550  14.402  15.722  0.00  0.00     0.127 A 
HETATM    9  C   UNK N   1      35.365  13.682  17.636  0.00  0.00     0.677 A 
HETATM   10  H   UNK N   1      35.612  14.452  19.557  0.00  0.00     0.174 HD
HETATM   11  H   UNK N   1      34.485  13.175  19.455  0.00  0.00     0.174 HD
ENDROOT
BRANCH   6  12
HETATM   12  C   UNK N   1      36.126  13.372  13.430  0.00  0.00    -0.020 A 
HETATM   13  C   UNK N   1      35.444  14.194  12.513  0.00  0.00     0.014 A 
HETATM   14  C   UNK N   1      35.721  14.132  11.147  0.00  0.00     0.024 A 
HETATM   15  C   UNK N   1      36.676  13.235  10.669  0.00  0.00     0.034 A 
HETATM   16 Cl   UNK N   1      37.025  13.162   8.957  0.00  0.00    -0.084 Cl
HETATM   17  C   UNK N   1      37.352  12.399  11.558  0.00  0.00     0.024 A 
HETATM   18  C   UNK N   1      37.083  12.472  12.927  0.00  0.00     0.014 A 
ENDBRANCH   6  12
BRANCH   7  19
HETATM   19  C   UNK N   1      34.074  11.608  14.846  0.00  0.00     0.054 C 
HETATM   20  C   UNK N   1      34.508  10.214  15.274  0.00  0.00     0.011 C 
ENDBRANCH   7  19
BRANCH   8  21
HETATM   21  N   UNK N   1      37.500  15.290  15.176  0.00  0.00    -0.384 N 
HETATM   22  H   UNK N   1      37.570  15.396  14.199  0.00  0.00     0.157 HD
HETATM   23  H   UNK N   1      38.093  15.805  15.771  0.00  0.00     0.157 HD
ENDBRANCH   8  21
TORSDOF 3
ENDMDL
MODEL 8
REMARK VINA RESULT:      -5.7     24.977     27.432
REMARK  3 active torsions:
REMARK  status: ('A' for Active; 'I' for Inactive)
REMARK    1  A    between atoms: N_6  and  C_12 
REMARK       I    between atoms: N_7  and  C_16 
REMARK    2  A    between atoms: C_8  and  C_11 
REMARK    3  A    between atoms: C_9  and  C_10 
ROOT
HETATM    1  N   UNK N   1      25.552  22.890  -6.353  0.00  0.00    -0.195 N 
ATOM      2  HN  UNK N   1      25.551  22.066  -5.752  1.00  0.00     0.184 HD
HETATM    3  N   UNK N   1      25.217  23.832  -8.475  0.00  0.00    -0.176 N 
ATOM      4  HN  UNK N   1      24.971  23.711  -9.458  1.00  0.00     0.186 HD
HETATM    5  N   UNK N   1      24.871  21.488  -8.166  0.00  0.00    -0.234 N 
HETATM    6  C   UNK N   1      25.887  25.256  -6.653  0.00  0.00     0.041 A 
HETATM    7  C   UNK N   1      25.885  24.097  -5.823  0.00  0.00     0.041 A 
HETATM    8  C   UNK N   1      25.535  25.069  -8.016  0.00  0.00     0.127 A 
HETATM    9  C   UNK N   1      25.220  22.755  -7.658  0.00  0.00     0.677 A 
HETATM   10  H   UNK N   1      24.662  21.381  -9.123  0.00  0.00     0.174 HD
HETATM   11  H   UNK N   1      24.835  20.709  -7.565  0.00  0.00     0.174 HD
ENDROOT
BRANCH   6  12
HETATM   12  C   UNK N   1      26.235  26.625  -6.123  0.00  0.00    -0.020 A 
HETATM   13  C   UNK N   1      25.393  27.267  -5.197  0.00  0.00     0.014 A 
HETATM   14  C   UNK N   1      25.721  28.517  -4.672  0.00  0.00     0.024 A 
HETATM   15  C   UNK N   1      26.892  29.157  -5.076  0.00  0.00     0.034 A 
HETATM   16 Cl   UNK N   1      27.304  30.723  -4.413  0.00  0.00    -0.084 Cl
HETATM   17  C   UNK N   1      27.734  28.547  -6.006  0.00  0.00     0.024 A 
HETATM   18  C   UNK N   1      27.410  27.288  -6.520  0.00  0.00     0.014 A 
ENDBRANCH   6  12
BRANCH   7  19
HETATM   19  C   UNK N   1      26.192  24.135  -4.356  0.00  0.00     0.054 C 
HETATM   20  C   UNK N   1      27.693  24.087  -4.113  0.00  0.00     0.011 C 
ENDBRANCH   7  19
BRANCH   8  21
HETATM   21  N   UNK N   1      25.549  26.139  -8.935  0.00  0.00    -0.384 N 
HETATM   22  H   UNK N   1      25.615  27.067  -8.610  0.00  0.00     0.157 HD
HETATM   23  H   UNK N   1      25.492  25.959  -9.902  0.00  0.00     0.157 HD
ENDBRANCH   8  21
TORSDOF 3
ENDMDL
MODEL 9
REMARK VINA RESULT:      -5.7     11.242     12.900
REMARK  3 active torsions:
REMARK  status: ('A' for Active; 'I' for Inactive)
REMARK    1  A    between atoms: N_6  and  C_12 
REMARK       I    between atoms: N_7  and  C_16 
REMARK    2  A    between atoms: C_8  and  C_11 
REMARK    3  A    between atoms: C_9  and  C_10 
ROOT
HETATM    1  N   UNK N   1      27.437  19.454   8.038  0.00  0.00    -0.195 N 
ATOM      2  HN  UNK N   1      27.150  19.657   8.995  1.00  0.00     0.184 HD
HETATM    3  N   UNK N   1      27.341  19.983   5.755  0.00  0.00    -0.176 N 
ATOM      4  HN  UNK N   1      26.980  20.578   5.008  1.00  0.00     0.186 HD
HETATM    5  N   UNK N   1      26.123  21.318   7.319  0.00  0.00    -0.234 N 
HETATM    6  C   UNK N   1      28.680  18.114   6.469  0.00  0.00     0.041 A 
HETATM    7  C   UNK N   1      28.271  18.406   7.804  0.00  0.00     0.041 A 
HETATM    8  C   UNK N   1      28.173  18.957   5.444  0.00  0.00     0.127 A 
HETATM    9  C   UNK N   1      26.978  20.235   7.032  0.00  0.00     0.677 A 
HETATM   10  H   UNK N   1      25.760  21.867   6.585  0.00  0.00     0.174 HD
HETATM   11  H   UNK N   1      25.888  21.527   8.252  0.00  0.00     0.174 HD
ENDROOT
BRANCH   6  12
HETATM   12  C   UNK N   1      29.613  16.974   6.145  0.00  0.00    -0.020 A 
HETATM   13  C   UNK N   1      29.101  15.719   5.766  0.00  0.00     0.014 A 
HETATM   14  C   UNK N   1      29.953  14.667   5.429  0.00  0.00     0.024 A 
HETATM   15  C   UNK N   1      31.335  14.845   5.479  0.00  0.00     0.034 A 
HETATM   16 Cl   UNK N   1      32.401  13.525   5.052  0.00  0.00    -0.084 Cl
HETATM   17  C   UNK N   1      31.865  16.076   5.868  0.00  0.00     0.024 A 
HETATM   18  C   UNK N   1      31.010  17.132   6.192  0.00  0.00     0.014 A 
ENDBRANCH   6  12
BRANCH   7  19
HETATM   19  C   UNK N   1      28.751  17.638   8.998  0.00  0.00     0.054 C 
HETATM   20  C   UNK N   1      29.659  18.495   9.867  0.00  0.00     0.011 C 
ENDBRANCH   7  19
BRANCH   8  21
HETATM   21  N   UNK N   1      28.477  18.730   4.086  0.00  0.00    -0.384 N 
HETATM   22  H   UNK N   1      27.751  18.669   3.422  0.00  0.00     0.157 HD
HETATM   23  H   UNK N   1      29.414  18.633   3.799  0.00  0.00     0.157 HD
ENDBRANCH   8  21
TORSDOF 3
ENDMDL
