MODEL 1
REMARK VINA RESULT:      -7.9      0.000      0.000
REMARK  10 active torsions:
REMARK  status: ('A' for Active; 'I' for Inactive)
REMARK    1  A    between atoms: C_19  and  O_1 
REMARK    2  A    between atoms: C_20  and  O_2 
REMARK    3  A    between atoms: O_2  and  C_30 
REMARK    4  A    between atoms: O_3  and  C_25 
REMARK    5  A    between atoms: O_6  and  C_33 
REMARK    6  A    between atoms: O_7  and  C_38 
REMARK    7  A    between atoms: O_8  and  C_39 
REMARK    8  A    between atoms: O_9  and  C_41 
REMARK    9  A    between atoms: C_15  and  C_25 
REMARK   10  A    between atoms: C_30  and  C_35 
ROOT
HETATM    1  N   UNK N   1      31.767  17.170   7.363  0.00  0.00     0.099 N 
HETATM    2  N   UNK N   1      29.457  17.692   4.489  0.00  0.00    -0.357 N 
HETATM    3  C   UNK N   1      33.610  16.530   5.197  0.00  0.00     0.010 C 
HETATM    4  C   UNK N   1      34.045  16.522   6.695  0.00  0.00     0.021 C 
HETATM    5  C   UNK N   1      32.363  17.393   5.040  0.00  0.00     0.048 C 
HETATM    6  C   UNK N   1      33.296  15.108   4.675  0.00  0.00     0.121 C 
HETATM    7  C   UNK N   1      31.286  16.889   5.999  0.00  0.00     0.273 C 
HETATM    8  C   UNK N   1      32.861  16.235   7.654  0.00  0.00     0.278 C 
HETATM    9  C   UNK N   1      35.196  15.532   6.894  0.00  0.00     0.042 C 
HETATM   10  C   UNK N   1      34.480  14.167   4.886  0.00  0.00     0.164 C 
HETATM   11  C   UNK N   1      34.864  14.127   6.356  0.00  0.00     0.162 C 
HETATM   12  C   UNK N   1      30.023  17.598   5.708  0.00  0.00     0.050 A 
HETATM   13  C   UNK N   1      30.698  17.114   8.373  0.00  0.00     0.278 C 
HETATM   14  C   UNK N   1      29.281  18.244   6.667  0.00  0.00    -0.019 A 
HETATM   15  C   UNK N   1      29.656  18.237   8.120  0.00  0.00     0.072 C 
HETATM   16  C   UNK N   1      28.221  18.805   5.994  0.00  0.00    -0.001 A 
HETATM   17  C   UNK N   1      28.359  18.443   4.675  0.00  0.00     0.046 A 
HETATM   18  C   UNK N   1      27.152  19.593   6.417  0.00  0.00     0.017 A 
HETATM   19  C   UNK N   1      27.465  18.835   3.695  0.00  0.00     0.067 A 
HETATM   20  C   UNK N   1      26.228  20.019   5.439  0.00  0.00     0.038 A 
HETATM   21  C   UNK N   1      26.382  19.642   4.074  0.00  0.00     0.070 A 
HETATM   22  H   UNK N   1      29.778  17.297   3.646  0.00  0.00     0.166 HD
ENDROOT
BRANCH  11  23
HETATM   23  O   UNK N   1      33.905  13.504   7.134  0.00  0.00    -0.309 OA
BRANCH  23  24
HETATM   24  C   UNK N   1      34.233  12.495   7.982  0.00  0.00     0.294 C 
HETATM   25  O   UNK N   1      34.208  11.345   7.574  0.00  0.00    -0.259 OA
BRANCH  24  26
HETATM   26  C   UNK N   1      34.548  12.769   9.408  0.00  0.00     0.045 A 
HETATM   27  C   UNK N   1      34.707  11.723  10.314  0.00  0.00     0.057 A 
HETATM   28  C   UNK N   1      34.912  11.979  11.681  0.00  0.00     0.105 A 
HETATM   29  C   UNK N   1      34.994  13.327  12.138  0.00  0.00     0.135 A 
HETATM   30  C   UNK N   1      34.867  14.375  11.212  0.00  0.00     0.105 A 
HETATM   31  C   UNK N   1      34.636  14.085   9.867  0.00  0.00     0.057 A 
BRANCH  28  32
HETATM   32  O   UNK N   1      35.014  10.949  12.556  0.00  0.00    -0.353 OA
HETATM   33  C   UNK N   1      33.933  10.400  13.211  0.00  0.00     0.210 C 
ENDBRANCH  28  32
BRANCH  29  34
HETATM   34  O   UNK N   1      35.184  13.662  13.442  0.00  0.00    -0.351 OA
HETATM   35  C   UNK N   1      36.399  13.745  14.082  0.00  0.00     0.210 C 
ENDBRANCH  29  34
BRANCH  30  36
HETATM   36  O   UNK N   1      34.955  15.660  11.640  0.00  0.00    -0.353 OA
HETATM   37  C   UNK N   1      35.419  16.689  10.851  0.00  0.00     0.210 C 
ENDBRANCH  30  36
ENDBRANCH  24  26
ENDBRANCH  23  24
ENDBRANCH  11  23
BRANCH  10  38
HETATM   38  O   UNK N   1      34.207  12.876   4.424  0.00  0.00    -0.387 OA
HETATM   39  C   UNK N   1      35.411  12.432   3.871  0.00  0.00     0.202 C 
ENDBRANCH  10  38
BRANCH   6  40
HETATM   40  C   UNK N   1      32.754  15.093   3.256  0.00  0.00     0.265 C 
HETATM   41  O   UNK N   1      33.496  15.455   2.357  0.00  0.00    -0.265 OA
BRANCH  40  42
HETATM   42  O   UNK N   1      31.498  14.684   2.938  0.00  0.00    -0.326 OA
HETATM   43  C   UNK N   1      30.667  13.999   3.792  0.00  0.00     0.213 C 
ENDBRANCH  40  42
ENDBRANCH   6  40
BRANCH  21  44
HETATM   44  O   UNK N   1      25.516  20.047   3.118  0.00  0.00    -0.356 OA
HETATM   45  C   UNK N   1      24.173  20.229   3.344  0.00  0.00     0.210 C 
ENDBRANCH  21  44
TORSDOF 10
ENDMDL
MODEL 2
REMARK VINA RESULT:      -7.7      0.723      2.020
REMARK  10 active torsions:
REMARK  status: ('A' for Active; 'I' for Inactive)
REMARK    1  A    between atoms: C_19  and  O_1 
REMARK    2  A    between atoms: C_20  and  O_2 
REMARK    3  A    between atoms: O_2  and  C_30 
REMARK    4  A    between atoms: O_3  and  C_25 
REMARK    5  A    between atoms: O_6  and  C_33 
REMARK    6  A    between atoms: O_7  and  C_38 
REMARK    7  A    between atoms: O_8  and  C_39 
REMARK    8  A    between atoms: O_9  and  C_41 
REMARK    9  A    between atoms: C_15  and  C_25 
REMARK   10  A    between atoms: C_30  and  C_35 
ROOT
HETATM    1  N   UNK N   1      31.341  17.323   7.431  0.00  0.00     0.099 N 
HETATM    2  N   UNK N   1      29.114  17.957   4.514  0.00  0.00    -0.357 N 
HETATM    3  C   UNK N   1      33.161  16.509   5.305  0.00  0.00     0.010 C 
HETATM    4  C   UNK N   1      33.574  16.498   6.808  0.00  0.00     0.021 C 
HETATM    5  C   UNK N   1      31.983  17.457   5.114  0.00  0.00     0.048 C 
HETATM    6  C   UNK N   1      32.751  15.104   4.803  0.00  0.00     0.121 C 
HETATM    7  C   UNK N   1      30.859  17.052   6.065  0.00  0.00     0.273 C 
HETATM    8  C   UNK N   1      32.360  16.316   7.754  0.00  0.00     0.278 C 
HETATM    9  C   UNK N   1      34.646  15.430   7.042  0.00  0.00     0.042 C 
HETATM   10  C   UNK N   1      33.860  14.083   5.048  0.00  0.00     0.164 C 
HETATM   11  C   UNK N   1      34.220  14.044   6.524  0.00  0.00     0.162 C 
HETATM   12  C   UNK N   1      29.655  17.845   5.743  0.00  0.00     0.050 A 
HETATM   13  C   UNK N   1      30.258  17.364   8.426  0.00  0.00     0.278 C 
HETATM   14  C   UNK N   1      28.951  18.562   6.680  0.00  0.00    -0.019 A 
HETATM   15  C   UNK N   1      29.305  18.555   8.138  0.00  0.00     0.072 C 
HETATM   16  C   UNK N   1      27.943  19.187   5.981  0.00  0.00    -0.001 A 
HETATM   17  C   UNK N   1      28.071  18.790   4.670  0.00  0.00     0.046 A 
HETATM   18  C   UNK N   1      26.929  20.058   6.374  0.00  0.00     0.017 A 
HETATM   19  C   UNK N   1      27.222  19.228   3.670  0.00  0.00     0.067 A 
HETATM   20  C   UNK N   1      26.053  20.532   5.375  0.00  0.00     0.038 A 
HETATM   21  C   UNK N   1      26.196  20.119   4.019  0.00  0.00     0.070 A 
HETATM   22  H   UNK N   1      29.417  17.524   3.684  0.00  0.00     0.166 HD
ENDROOT
BRANCH  11  23
HETATM   23  O   UNK N   1      33.207  13.507   7.299  0.00  0.00    -0.309 OA
BRANCH  23  24
HETATM   24  C   UNK N   1      33.446  12.483   8.159  0.00  0.00     0.294 C 
HETATM   25  O   UNK N   1      32.985  11.380   7.912  0.00  0.00    -0.259 OA
BRANCH  24  26
HETATM   26  C   UNK N   1      34.194  12.707   9.424  0.00  0.00     0.045 A 
HETATM   27  C   UNK N   1      34.226  13.966  10.016  0.00  0.00     0.057 A 
HETATM   28  C   UNK N   1      35.008  14.204  11.161  0.00  0.00     0.105 A 
HETATM   29  C   UNK N   1      35.747  13.132  11.741  0.00  0.00     0.135 A 
HETATM   30  C   UNK N   1      35.681  11.857  11.156  0.00  0.00     0.105 A 
HETATM   31  C   UNK N   1      34.917  11.663  10.004  0.00  0.00     0.057 A 
BRANCH  28  32
HETATM   32  O   UNK N   1      35.067  15.448  11.694  0.00  0.00    -0.353 OA
HETATM   33  C   UNK N   1      35.318  16.581  10.952  0.00  0.00     0.210 C 
ENDBRANCH  28  32
BRANCH  29  34
HETATM   34  O   UNK N   1      36.532  13.277  12.842  0.00  0.00    -0.351 OA
HETATM   35  C   UNK N   1      36.091  13.301  14.145  0.00  0.00     0.210 C 
ENDBRANCH  29  34
BRANCH  30  36
HETATM   36  O   UNK N   1      36.374  10.830  11.711  0.00  0.00    -0.353 OA
HETATM   37  C   UNK N   1      35.780   9.827  12.445  0.00  0.00     0.210 C 
ENDBRANCH  30  36
ENDBRANCH  24  26
ENDBRANCH  23  24
ENDBRANCH  11  23
BRANCH  10  38
HETATM   38  O   UNK N   1      33.499  12.807   4.606  0.00  0.00    -0.387 OA
HETATM   39  C   UNK N   1      34.712  12.157   4.361  0.00  0.00     0.202 C 
ENDBRANCH  10  38
BRANCH   6  40
HETATM   40  C   UNK N   1      32.228  15.102   3.376  0.00  0.00     0.265 C 
HETATM   41  O   UNK N   1      32.989  15.450   2.488  0.00  0.00    -0.265 OA
BRANCH  40  42
HETATM   42  O   UNK N   1      30.968  14.719   3.041  0.00  0.00    -0.326 OA
HETATM   43  C   UNK N   1      30.053  14.205   3.928  0.00  0.00     0.213 C 
ENDBRANCH  40  42
ENDBRANCH   6  40
BRANCH  21  44
HETATM   44  O   UNK N   1      25.376  20.568   3.043  0.00  0.00    -0.356 OA
HETATM   45  C   UNK N   1      24.010  20.412   3.074  0.00  0.00     0.210 C 
ENDBRANCH  21  44
TORSDOF 10
ENDMDL
MODEL 3
REMARK VINA RESULT:      -7.6      2.792      9.963
REMARK  10 active torsions:
REMARK  status: ('A' for Active; 'I' for Inactive)
REMARK    1  A    between atoms: C_19  and  O_1 
REMARK    2  A    between atoms: C_20  and  O_2 
REMARK    3  A    between atoms: O_2  and  C_30 
REMARK    4  A    between atoms: O_3  and  C_25 
REMARK    5  A    between atoms: O_6  and  C_33 
REMARK    6  A    between atoms: O_7  and  C_38 
REMARK    7  A    between atoms: O_8  and  C_39 
REMARK    8  A    between atoms: O_9  and  C_41 
REMARK    9  A    between atoms: C_15  and  C_25 
REMARK   10  A    between atoms: C_30  and  C_35 
ROOT
HETATM    1  N   UNK N   1      35.001  15.261   6.708  0.00  0.00     0.099 N 
HETATM    2  N   UNK N   1      34.440  14.950  10.376  0.00  0.00    -0.357 N 
HETATM    3  C   UNK N   1      33.166  17.499   7.063  0.00  0.00     0.010 C 
HETATM    4  C   UNK N   1      33.797  17.147   5.682  0.00  0.00     0.021 C 
HETATM    5  C   UNK N   1      34.023  16.903   8.175  0.00  0.00     0.048 C 
HETATM    6  C   UNK N   1      31.726  16.951   7.202  0.00  0.00     0.121 C 
HETATM    7  C   UNK N   1      34.185  15.405   7.927  0.00  0.00     0.273 C 
HETATM    8  C   UNK N   1      34.165  15.646   5.563  0.00  0.00     0.278 C 
HETATM    9  C   UNK N   1      32.862  17.599   4.556  0.00  0.00     0.042 C 
HETATM   10  C   UNK N   1      30.834  17.441   6.063  0.00  0.00     0.164 C 
HETATM   11  C   UNK N   1      31.433  17.050   4.722  0.00  0.00     0.162 C 
HETATM   12  C   UNK N   1      34.848  14.799   9.101  0.00  0.00     0.050 A 
HETATM   13  C   UNK N   1      35.576  13.917   6.555  0.00  0.00     0.278 C 
HETATM   14  C   UNK N   1      35.966  14.006   9.011  0.00  0.00    -0.019 A 
HETATM   15  C   UNK N   1      36.586  13.628   7.698  0.00  0.00     0.072 C 
HETATM   16  C   UNK N   1      36.293  13.685  10.309  0.00  0.00    -0.001 A 
HETATM   17  C   UNK N   1      35.339  14.270  11.108  0.00  0.00     0.046 A 
HETATM   18  C   UNK N   1      37.330  12.933  10.856  0.00  0.00     0.017 A 
HETATM   19  C   UNK N   1      35.351  14.160  12.487  0.00  0.00     0.067 A 
HETATM   20  C   UNK N   1      37.376  12.811  12.261  0.00  0.00     0.038 A 
HETATM   21  C   UNK N   1      36.387  13.425  13.082  0.00  0.00     0.070 A 
HETATM   22  H   UNK N   1      33.656  15.448  10.701  0.00  0.00     0.166 HD
ENDROOT
BRANCH  11  23
HETATM   23  O   UNK N   1      31.390  15.684   4.505  0.00  0.00    -0.309 OA
BRANCH  23  24
HETATM   24  C   UNK N   1      31.150  15.175   3.268  0.00  0.00     0.294 C 
HETATM   25  O   UNK N   1      32.083  15.036   2.493  0.00  0.00    -0.259 OA
BRANCH  24  26
HETATM   26  C   UNK N   1      29.767  14.859   2.828  0.00  0.00     0.045 A 
HETATM   27  C   UNK N   1      28.755  15.810   2.929  0.00  0.00     0.057 A 
HETATM   28  C   UNK N   1      27.427  15.486   2.601  0.00  0.00     0.105 A 
HETATM   29  C   UNK N   1      27.121  14.177   2.125  0.00  0.00     0.135 A 
HETATM   30  C   UNK N   1      28.154  13.236   1.993  0.00  0.00     0.105 A 
HETATM   31  C   UNK N   1      29.456  13.583   2.355  0.00  0.00     0.057 A 
BRANCH  28  32
HETATM   32  O   UNK N   1      26.446  16.409   2.754  0.00  0.00    -0.353 OA
HETATM   33  C   UNK N   1      25.837  16.676   3.960  0.00  0.00     0.210 C 
ENDBRANCH  28  32
BRANCH  29  34
HETATM   34  O   UNK N   1      25.864  13.780   1.792  0.00  0.00    -0.351 OA
HETATM   35  C   UNK N   1      24.921  13.285   2.662  0.00  0.00     0.210 C 
ENDBRANCH  29  34
BRANCH  30  36
HETATM   36  O   UNK N   1      27.870  11.992   1.530  0.00  0.00    -0.353 OA
HETATM   37  C   UNK N   1      28.779  10.957   1.538  0.00  0.00     0.210 C 
ENDBRANCH  30  36
ENDBRANCH  24  26
ENDBRANCH  23  24
ENDBRANCH  11  23
BRANCH  10  38
HETATM   38  O   UNK N   1      29.532  16.947   6.172  0.00  0.00    -0.387 OA
HETATM   39  C   UNK N   1      28.709  18.047   5.918  0.00  0.00     0.202 C 
ENDBRANCH  10  38
BRANCH   6  40
HETATM   40  C   UNK N   1      31.127  17.171   8.581  0.00  0.00     0.265 C 
HETATM   41  O   UNK N   1      30.968  16.196   9.297  0.00  0.00    -0.265 OA
BRANCH  40  42
HETATM   42  O   UNK N   1      30.777  18.393   9.059  0.00  0.00    -0.326 OA
HETATM   43  C   UNK N   1      29.651  18.639   9.808  0.00  0.00     0.213 C 
ENDBRANCH  40  42
ENDBRANCH   6  40
BRANCH  21  44
HETATM   44  O   UNK N   1      36.416  13.331  14.430  0.00  0.00    -0.356 OA
HETATM   45  C   UNK N   1      36.869  14.341  15.247  0.00  0.00     0.210 C 
ENDBRANCH  21  44
TORSDOF 10
ENDMDL
MODEL 4
REMARK VINA RESULT:      -7.4      4.555     10.037
REMARK  10 active torsions:
REMARK  status: ('A' for Active; 'I' for Inactive)
REMARK    1  A    between atoms: C_19  and  O_1 
REMARK    2  A    between atoms: C_20  and  O_2 
REMARK    3  A    between atoms: O_2  and  C_30 
REMARK    4  A    between atoms: O_3  and  C_25 
REMARK    5  A    between atoms: O_6  and  C_33 
REMARK    6  A    between atoms: O_7  and  C_38 
REMARK    7  A    between atoms: O_8  and  C_39 
REMARK    8  A    between atoms: O_9  and  C_41 
REMARK    9  A    between atoms: C_15  and  C_25 
REMARK   10  A    between atoms: C_30  and  C_35 
ROOT
HETATM    1  N   UNK N   1      29.464  14.902   4.389  0.00  0.00     0.099 N 
HETATM    2  N   UNK N   1      31.109  16.973   7.011  0.00  0.00    -0.357 N 
HETATM    3  C   UNK N   1      28.117  17.432   3.858  0.00  0.00     0.010 C 
HETATM    4  C   UNK N   1      27.853  16.150   3.011  0.00  0.00     0.021 C 
HETATM    5  C   UNK N   1      29.468  17.305   4.554  0.00  0.00     0.048 C 
HETATM    6  C   UNK N   1      27.027  17.656   4.933  0.00  0.00     0.121 C 
HETATM    7  C   UNK N   1      29.490  16.009   5.362  0.00  0.00     0.273 C 
HETATM    8  C   UNK N   1      28.116  14.848   3.809  0.00  0.00     0.278 C 
HETATM    9  C   UNK N   1      26.432  16.193   2.438  0.00  0.00     0.042 C 
HETATM   10  C   UNK N   1      25.634  17.703   4.307  0.00  0.00     0.164 C 
HETATM   11  C   UNK N   1      25.366  16.428   3.525  0.00  0.00     0.162 C 
HETATM   12  C   UNK N   1      30.717  15.983   6.185  0.00  0.00     0.050 A 
HETATM   13  C   UNK N   1      29.876  13.615   4.970  0.00  0.00     0.278 C 
HETATM   14  C   UNK N   1      31.599  14.930   6.194  0.00  0.00    -0.019 A 
HETATM   15  C   UNK N   1      31.364  13.672   5.410  0.00  0.00     0.072 C 
HETATM   16  C   UNK N   1      32.615  15.310   7.040  0.00  0.00    -0.001 A 
HETATM   17  C   UNK N   1      32.278  16.554   7.522  0.00  0.00     0.046 A 
HETATM   18  C   UNK N   1      33.794  14.680   7.432  0.00  0.00     0.017 A 
HETATM   19  C   UNK N   1      33.078  17.253   8.407  0.00  0.00     0.067 A 
HETATM   20  C   UNK N   1      34.638  15.373   8.326  0.00  0.00     0.038 A 
HETATM   21  C   UNK N   1      34.283  16.663   8.816  0.00  0.00     0.070 A 
HETATM   22  H   UNK N   1      30.641  17.819   7.199  0.00  0.00     0.166 HD
ENDROOT
BRANCH  11  23
HETATM   23  O   UNK N   1      25.235  15.323   4.348  0.00  0.00    -0.309 OA
BRANCH  23  24
HETATM   24  C   UNK N   1      24.051  14.668   4.463  0.00  0.00     0.294 C 
HETATM   25  O   UNK N   1      23.530  14.202   3.461  0.00  0.00    -0.259 OA
BRANCH  24  26
HETATM   26  C   UNK N   1      23.352  14.578   5.770  0.00  0.00     0.045 A 
HETATM   27  C   UNK N   1      22.246  15.380   6.042  0.00  0.00     0.057 A 
HETATM   28  C   UNK N   1      21.639  15.366   7.310  0.00  0.00     0.105 A 
HETATM   29  C   UNK N   1      22.142  14.492   8.318  0.00  0.00     0.135 A 
HETATM   30  C   UNK N   1      23.235  13.662   8.025  0.00  0.00     0.105 A 
HETATM   31  C   UNK N   1      23.831  13.723   6.764  0.00  0.00     0.057 A 
BRANCH  28  32
HETATM   32  O   UNK N   1      20.596  16.190   7.572  0.00  0.00    -0.353 OA
HETATM   33  C   UNK N   1      20.564  17.516   7.199  0.00  0.00     0.210 C 
ENDBRANCH  28  32
BRANCH  29  34
HETATM   34  O   UNK N   1      21.618  14.420   9.572  0.00  0.00    -0.351 OA
HETATM   35  C   UNK N   1      20.546  13.646   9.951  0.00  0.00     0.210 C 
ENDBRANCH  29  34
BRANCH  30  36
HETATM   36  O   UNK N   1      23.711  12.820   8.978  0.00  0.00    -0.353 OA
HETATM   37  C   UNK N   1      24.862  13.062   9.694  0.00  0.00     0.210 C 
ENDBRANCH  30  36
ENDBRANCH  24  26
ENDBRANCH  23  24
ENDBRANCH  11  23
BRANCH  10  38
HETATM   38  O   UNK N   1      24.638  17.897   5.268  0.00  0.00    -0.387 OA
HETATM   39  C   UNK N   1      23.584  18.497   4.574  0.00  0.00     0.202 C 
ENDBRANCH  10  38
BRANCH   6  40
HETATM   40  C   UNK N   1      27.319  18.828   5.854  0.00  0.00     0.265 C 
HETATM   41  O   UNK N   1      27.635  18.583   7.007  0.00  0.00    -0.265 OA
BRANCH  40  42
HETATM   42  O   UNK N   1      27.263  20.126   5.456  0.00  0.00    -0.326 OA
HETATM   43  C   UNK N   1      26.496  21.090   6.066  0.00  0.00     0.213 C 
ENDBRANCH  40  42
ENDBRANCH   6  40
BRANCH  21  44
HETATM   44  O   UNK N   1      35.080  17.351   9.665  0.00  0.00    -0.356 OA
HETATM   45  C   UNK N   1      35.614  16.805  10.808  0.00  0.00     0.210 C 
ENDBRANCH  21  44
TORSDOF 10
ENDMDL
MODEL 5
REMARK VINA RESULT:      -7.3      5.408     10.127
REMARK  10 active torsions:
REMARK  status: ('A' for Active; 'I' for Inactive)
REMARK    1  A    between atoms: C_19  and  O_1 
REMARK    2  A    between atoms: C_20  and  O_2 
REMARK    3  A    between atoms: O_2  and  C_30 
REMARK    4  A    between atoms: O_3  and  C_25 
REMARK    5  A    between atoms: O_6  and  C_33 
REMARK    6  A    between atoms: O_7  and  C_38 
REMARK    7  A    between atoms: O_8  and  C_39 
REMARK    8  A    between atoms: O_9  and  C_41 
REMARK    9  A    between atoms: C_15  and  C_25 
REMARK   10  A    between atoms: C_30  and  C_35 
ROOT
HETATM    1  N   UNK N   1      28.134  13.948   3.677  0.00  0.00     0.099 N 
HETATM    2  N   UNK N   1      30.089  16.725   5.205  0.00  0.00    -0.357 N 
HETATM    3  C   UNK N   1      26.555  16.191   2.691  0.00  0.00     0.010 C 
HETATM    4  C   UNK N   1      26.224  14.711   2.327  0.00  0.00     0.021 C 
HETATM    5  C   UNK N   1      28.014  16.288   3.121  0.00  0.00     0.048 C 
HETATM    6  C   UNK N   1      25.664  16.722   3.839  0.00  0.00     0.121 C 
HETATM    7  C   UNK N   1      28.264  15.297   4.256  0.00  0.00     0.273 C 
HETATM    8  C   UNK N   1      26.710  13.712   3.408  0.00  0.00     0.278 C 
HETATM    9  C   UNK N   1      24.724  14.570   2.050  0.00  0.00     0.042 C 
HETATM   10  C   UNK N   1      24.181  16.569   3.506  0.00  0.00     0.164 C 
HETATM   11  C   UNK N   1      23.859  15.116   3.202  0.00  0.00     0.162 C 
HETATM   12  C   UNK N   1      29.619  15.529   4.799  0.00  0.00     0.050 A 
HETATM   13  C   UNK N   1      28.725  12.899   4.522  0.00  0.00     0.278 C 
HETATM   14  C   UNK N   1      30.553  14.533   4.949  0.00  0.00    -0.019 A 
HETATM   15  C   UNK N   1      30.261  13.096   4.632  0.00  0.00     0.072 C 
HETATM   16  C   UNK N   1      31.679  15.158   5.435  0.00  0.00    -0.001 A 
HETATM   17  C   UNK N   1      31.357  16.486   5.583  0.00  0.00     0.046 A 
HETATM   18  C   UNK N   1      32.948  14.683   5.762  0.00  0.00     0.017 A 
HETATM   19  C   UNK N   1      32.257  17.426   6.052  0.00  0.00     0.067 A 
HETATM   20  C   UNK N   1      33.893  15.619   6.233  0.00  0.00     0.038 A 
HETATM   21  C   UNK N   1      33.551  16.994   6.379  0.00  0.00     0.070 A 
HETATM   22  H   UNK N   1      29.610  17.584   5.220  0.00  0.00     0.166 HD
ENDROOT
BRANCH  11  23
HETATM   23  O   UNK N   1      23.949  14.310   4.323  0.00  0.00    -0.309 OA
BRANCH  23  24
HETATM   24  C   UNK N   1      22.864  13.648   4.804  0.00  0.00     0.294 C 
HETATM   25  O   UNK N   1      22.114  13.091   4.018  0.00  0.00    -0.259 OA
BRANCH  24  26
HETATM   26  C   UNK N   1      22.543  13.659   6.254  0.00  0.00     0.045 A 
HETATM   27  C   UNK N   1      23.339  12.966   7.162  0.00  0.00     0.057 A 
HETATM   28  C   UNK N   1      22.987  12.896   8.522  0.00  0.00     0.105 A 
HETATM   29  C   UNK N   1      21.819  13.574   8.980  0.00  0.00     0.135 A 
HETATM   30  C   UNK N   1      21.042  14.299   8.062  0.00  0.00     0.105 A 
HETATM   31  C   UNK N   1      21.405  14.324   6.716  0.00  0.00     0.057 A 
BRANCH  28  32
HETATM   32  O   UNK N   1      23.745  12.175   9.383  0.00  0.00    -0.353 OA
HETATM   33  C   UNK N   1      24.785  12.711  10.110  0.00  0.00     0.210 C 
ENDBRANCH  28  32
BRANCH  29  34
HETATM   34  O   UNK N   1      21.404  13.553  10.275  0.00  0.00    -0.351 OA
HETATM   35  C   UNK N   1      20.777  12.501  10.900  0.00  0.00     0.210 C 
ENDBRANCH  29  34
BRANCH  30  36
HETATM   36  O   UNK N   1      19.935  14.956   8.495  0.00  0.00    -0.353 OA
HETATM   37  C   UNK N   1      19.671  16.273   8.192  0.00  0.00     0.210 C 
ENDBRANCH  30  36
ENDBRANCH  24  26
ENDBRANCH  23  24
ENDBRANCH  11  23
BRANCH  10  38
HETATM   38  O   UNK N   1      23.365  17.038   4.539  0.00  0.00    -0.387 OA
HETATM   39  C   UNK N   1      22.184  17.437   3.908  0.00  0.00     0.202 C 
ENDBRANCH  10  38
BRANCH   6  40
HETATM   40  C   UNK N   1      26.043  18.119   4.299  0.00  0.00     0.265 C 
HETATM   41  O   UNK N   1      26.426  18.257   5.450  0.00  0.00    -0.265 OA
BRANCH  40  42
HETATM   42  O   UNK N   1      25.993  19.213   3.494  0.00  0.00    -0.326 OA
HETATM   43  C   UNK N   1      24.984  20.146   3.518  0.00  0.00     0.213 C 
ENDBRANCH  40  42
ENDBRANCH   6  40
BRANCH  21  44
HETATM   44  O   UNK N   1      34.443  17.911   6.817  0.00  0.00    -0.356 OA
HETATM   45  C   UNK N   1      34.491  18.355   8.117  0.00  0.00     0.210 C 
ENDBRANCH  21  44
TORSDOF 10
ENDMDL
MODEL 6
REMARK VINA RESULT:      -7.3      2.221      3.218
REMARK  10 active torsions:
REMARK  status: ('A' for Active; 'I' for Inactive)
REMARK    1  A    between atoms: C_19  and  O_1 
REMARK    2  A    between atoms: C_20  and  O_2 
REMARK    3  A    between atoms: O_2  and  C_30 
REMARK    4  A    between atoms: O_3  and  C_25 
REMARK    5  A    between atoms: O_6  and  C_33 
REMARK    6  A    between atoms: O_7  and  C_38 
REMARK    7  A    between atoms: O_8  and  C_39 
REMARK    8  A    between atoms: O_9  and  C_41 
REMARK    9  A    between atoms: C_15  and  C_25 
REMARK   10  A    between atoms: C_30  and  C_35 
ROOT
HETATM    1  N   UNK N   1      30.657  17.528   7.702  0.00  0.00     0.099 N 
HETATM    2  N   UNK N   1      29.068  15.308   5.168  0.00  0.00    -0.357 N 
HETATM    3  C   UNK N   1      33.008  16.972   6.069  0.00  0.00     0.010 C 
HETATM    4  C   UNK N   1      33.054  17.918   7.307  0.00  0.00     0.021 C 
HETATM    5  C   UNK N   1      31.570  16.862   5.574  0.00  0.00     0.048 C 
HETATM    6  C   UNK N   1      33.525  15.552   6.401  0.00  0.00     0.121 C 
HETATM    7  C   UNK N   1      30.678  16.418   6.732  0.00  0.00     0.273 C 
HETATM    8  C   UNK N   1      31.969  17.572   8.359  0.00  0.00     0.278 C 
HETATM    9  C   UNK N   1      34.461  17.909   7.912  0.00  0.00     0.042 C 
HETATM   10  C   UNK N   1      34.935  15.601   6.988  0.00  0.00     0.164 C 
HETATM   11  C   UNK N   1      34.959  16.485   8.223  0.00  0.00     0.162 C 
HETATM   12  C   UNK N   1      29.328  16.126   6.206  0.00  0.00     0.050 A 
HETATM   13  C   UNK N   1      29.550  17.429   8.665  0.00  0.00     0.278 C 
HETATM   14  C   UNK N   1      28.180  16.667   6.732  0.00  0.00    -0.019 A 
HETATM   15  C   UNK N   1      28.186  17.562   7.937  0.00  0.00     0.072 C 
HETATM   16  C   UNK N   1      27.157  16.189   5.946  0.00  0.00    -0.001 A 
HETATM   17  C   UNK N   1      27.735  15.363   5.011  0.00  0.00     0.046 A 
HETATM   18  C   UNK N   1      25.780  16.401   5.968  0.00  0.00     0.017 A 
HETATM   19  C   UNK N   1      27.001  14.703   4.042  0.00  0.00     0.067 A 
HETATM   20  C   UNK N   1      25.004  15.750   4.986  0.00  0.00     0.038 A 
HETATM   21  C   UNK N   1      25.612  14.900   4.018  0.00  0.00     0.070 A 
HETATM   22  H   UNK N   1      29.713  14.785   4.639  0.00  0.00     0.166 HD
ENDROOT
BRANCH  11  23
HETATM   23  O   UNK N   1      34.264  15.929   9.282  0.00  0.00    -0.309 OA
BRANCH  23  24
HETATM   24  C   UNK N   1      34.807  15.869  10.526  0.00  0.00     0.294 C 
HETATM   25  O   UNK N   1      35.199  16.899  11.053  0.00  0.00    -0.259 OA
BRANCH  24  26
HETATM   26  C   UNK N   1      34.995  14.566  11.215  0.00  0.00     0.045 A 
HETATM   27  C   UNK N   1      34.734  13.369  10.554  0.00  0.00     0.057 A 
HETATM   28  C   UNK N   1      34.821  12.139  11.230  0.00  0.00     0.105 A 
HETATM   29  C   UNK N   1      35.217  12.118  12.599  0.00  0.00     0.135 A 
HETATM   30  C   UNK N   1      35.512  13.327  13.248  0.00  0.00     0.105 A 
HETATM   31  C   UNK N   1      35.388  14.532  12.555  0.00  0.00     0.057 A 
BRANCH  28  32
HETATM   32  O   UNK N   1      34.514  10.988  10.584  0.00  0.00    -0.353 OA
HETATM   33  C   UNK N   1      35.417  10.281   9.821  0.00  0.00     0.210 C 
ENDBRANCH  28  32
BRANCH  29  34
HETATM   34  O   UNK N   1      35.320  10.973  13.328  0.00  0.00    -0.351 OA
HETATM   35  C   UNK N   1      34.286  10.334  13.970  0.00  0.00     0.210 C 
ENDBRANCH  29  34
BRANCH  30  36
HETATM   36  O   UNK N   1      35.900  13.311  14.549  0.00  0.00    -0.353 OA
HETATM   37  C   UNK N   1      36.813  14.198  15.076  0.00  0.00     0.210 C 
ENDBRANCH  30  36
ENDBRANCH  24  26
ENDBRANCH  23  24
ENDBRANCH  11  23
BRANCH  10  38
HETATM   38  O   UNK N   1      35.412  14.324   7.299  0.00  0.00    -0.387 OA
HETATM   39  C   UNK N   1      36.683  14.267   6.722  0.00  0.00     0.202 C 
ENDBRANCH  10  38
BRANCH   6  40
HETATM   40  C   UNK N   1      33.380  14.573   5.249  0.00  0.00     0.265 C 
HETATM   41  O   UNK N   1      32.624  13.626   5.396  0.00  0.00    -0.265 OA
BRANCH  40  42
HETATM   42  O   UNK N   1      34.032  14.707   4.065  0.00  0.00    -0.326 OA
HETATM   43  C   UNK N   1      33.408  14.882   2.852  0.00  0.00     0.213 C 
ENDBRANCH  40  42
ENDBRANCH   6  40
BRANCH  21  44
HETATM   44  O   UNK N   1      24.891  14.274   3.060  0.00  0.00    -0.356 OA
HETATM   45  C   UNK N   1      25.103  14.461   1.714  0.00  0.00     0.210 C 
ENDBRANCH  21  44
TORSDOF 10
ENDMDL
MODEL 7
REMARK VINA RESULT:      -7.3      6.803     12.379
REMARK  10 active torsions:
REMARK  status: ('A' for Active; 'I' for Inactive)
REMARK    1  A    between atoms: C_19  and  O_1 
REMARK    2  A    between atoms: C_20  and  O_2 
REMARK    3  A    between atoms: O_2  and  C_30 
REMARK    4  A    between atoms: O_3  and  C_25 
REMARK    5  A    between atoms: O_6  and  C_33 
REMARK    6  A    between atoms: O_7  and  C_38 
REMARK    7  A    between atoms: O_8  and  C_39 
REMARK    8  A    between atoms: O_9  and  C_41 
REMARK    9  A    between atoms: C_15  and  C_25 
REMARK   10  A    between atoms: C_30  and  C_35 
ROOT
HETATM    1  N   UNK N   1      23.128  14.484   6.793  0.00  0.00     0.099 N 
HETATM    2  N   UNK N   1      21.569  11.306   5.634  0.00  0.00    -0.357 N 
HETATM    3  C   UNK N   1      20.445  15.485   6.242  0.00  0.00     0.010 C 
HETATM    4  C   UNK N   1      21.576  16.394   6.815  0.00  0.00     0.021 C 
HETATM    5  C   UNK N   1      20.777  14.026   6.535  0.00  0.00     0.048 C 
HETATM    6  C   UNK N   1      20.277  15.657   4.714  0.00  0.00     0.121 C 
HETATM    7  C   UNK N   1      22.167  13.713   5.984  0.00  0.00     0.273 C 
HETATM    8  C   UNK N   1      22.991  15.898   6.421  0.00  0.00     0.278 C 
HETATM    9  C   UNK N   1      21.339  17.845   6.387  0.00  0.00     0.042 C 
HETATM   10  C   UNK N   1      20.030  17.119   4.345  0.00  0.00     0.164 C 
HETATM   11  C   UNK N   1      21.163  17.989   4.864  0.00  0.00     0.162 C 
HETATM   12  C   UNK N   1      22.404  12.258   6.095  0.00  0.00     0.050 A 
HETATM   13  C   UNK N   1      24.510  14.000   6.660  0.00  0.00     0.278 C 
HETATM   14  C   UNK N   1      23.519  11.718   6.689  0.00  0.00    -0.019 A 
HETATM   15  C   UNK N   1      24.637  12.561   7.228  0.00  0.00     0.072 C 
HETATM   16  C   UNK N   1      23.341  10.355   6.629  0.00  0.00    -0.001 A 
HETATM   17  C   UNK N   1      22.150  10.143   5.976  0.00  0.00     0.046 A 
HETATM   18  C   UNK N   1      24.114   9.288   7.082  0.00  0.00     0.017 A 
HETATM   19  C   UNK N   1      21.644   8.879   5.735  0.00  0.00     0.067 A 
HETATM   20  C   UNK N   1      23.620   7.984   6.862  0.00  0.00     0.038 A 
HETATM   21  C   UNK N   1      22.382   7.775   6.189  0.00  0.00     0.070 A 
HETATM   22  H   UNK N   1      20.721  11.434   5.152  0.00  0.00     0.166 HD
ENDROOT
BRANCH  11  23
HETATM   23  O   UNK N   1      22.353  17.758   4.196  0.00  0.00    -0.309 OA
BRANCH  23  24
HETATM   24  C   UNK N   1      23.219  18.771   3.932  0.00  0.00     0.294 C 
HETATM   25  O   UNK N   1      22.787  19.821   3.485  0.00  0.00    -0.259 OA
BRANCH  24  26
HETATM   26  C   UNK N   1      24.683  18.588   4.111  0.00  0.00     0.045 A 
HETATM   27  C   UNK N   1      25.453  19.578   4.715  0.00  0.00     0.057 A 
HETATM   28  C   UNK N   1      26.851  19.451   4.801  0.00  0.00     0.105 A 
HETATM   29  C   UNK N   1      27.481  18.276   4.296  0.00  0.00     0.135 A 
HETATM   30  C   UNK N   1      26.692  17.268   3.720  0.00  0.00     0.105 A 
HETATM   31  C   UNK N   1      25.311  17.440   3.625  0.00  0.00     0.057 A 
BRANCH  28  32
HETATM   32  O   UNK N   1      27.590  20.447   5.346  0.00  0.00    -0.353 OA
HETATM   33  C   UNK N   1      27.104  21.321   6.294  0.00  0.00     0.210 C 
ENDBRANCH  28  32
BRANCH  29  34
HETATM   34  O   UNK N   1      28.826  18.076   4.334  0.00  0.00    -0.351 OA
HETATM   35  C   UNK N   1      29.528  17.536   5.386  0.00  0.00     0.210 C 
ENDBRANCH  29  34
BRANCH  30  36
HETATM   36  O   UNK N   1      27.286  16.142   3.247  0.00  0.00    -0.353 OA
HETATM   37  C   UNK N   1      26.743  15.363   2.250  0.00  0.00     0.210 C 
ENDBRANCH  30  36
ENDBRANCH  24  26
ENDBRANCH  23  24
ENDBRANCH  11  23
BRANCH  10  38
HETATM   38  O   UNK N   1      19.884  17.289   2.966  0.00  0.00    -0.387 OA
HETATM   39  C   UNK N   1      19.335  18.566   2.820  0.00  0.00     0.202 C 
ENDBRANCH  10  38
BRANCH   6  40
HETATM   40  C   UNK N   1      19.267  14.698   4.107  0.00  0.00     0.265 C 
HETATM   41  O   UNK N   1      18.214  14.528   4.698  0.00  0.00    -0.265 OA
BRANCH  40  42
HETATM   42  O   UNK N   1      19.471  14.038   2.937  0.00  0.00    -0.326 OA
HETATM   43  C   UNK N   1      20.690  13.562   2.518  0.00  0.00     0.213 C 
ENDBRANCH  40  42
ENDBRANCH   6  40
BRANCH  21  44
HETATM   44  O   UNK N   1      21.883   6.537   5.976  0.00  0.00    -0.356 OA
HETATM   45  C   UNK N   1      21.263   6.164   4.807  0.00  0.00     0.210 C 
ENDBRANCH  21  44
TORSDOF 10
ENDMDL
MODEL 8
REMARK VINA RESULT:      -7.3      4.737      9.994
REMARK  10 active torsions:
REMARK  status: ('A' for Active; 'I' for Inactive)
REMARK    1  A    between atoms: C_19  and  O_1 
REMARK    2  A    between atoms: C_20  and  O_2 
REMARK    3  A    between atoms: O_2  and  C_30 
REMARK    4  A    between atoms: O_3  and  C_25 
REMARK    5  A    between atoms: O_6  and  C_33 
REMARK    6  A    between atoms: O_7  and  C_38 
REMARK    7  A    between atoms: O_8  and  C_39 
REMARK    8  A    between atoms: O_9  and  C_41 
REMARK    9  A    between atoms: C_15  and  C_25 
REMARK   10  A    between atoms: C_30  and  C_35 
ROOT
HETATM    1  N   UNK N   1      29.124  14.894   4.301  0.00  0.00     0.099 N 
HETATM    2  N   UNK N   1      30.828  17.045   6.819  0.00  0.00    -0.357 N 
HETATM    3  C   UNK N   1      27.823  17.425   3.667  0.00  0.00     0.010 C 
HETATM    4  C   UNK N   1      27.527  16.113   2.879  0.00  0.00     0.021 C 
HETATM    5  C   UNK N   1      29.176  17.301   4.360  0.00  0.00     0.048 C 
HETATM    6  C   UNK N   1      26.745  17.718   4.738  0.00  0.00     0.121 C 
HETATM    7  C   UNK N   1      29.178  16.042   5.224  0.00  0.00     0.273 C 
HETATM    8  C   UNK N   1      27.771  14.841   3.732  0.00  0.00     0.278 C 
HETATM    9  C   UNK N   1      26.104  16.159   2.314  0.00  0.00     0.042 C 
HETATM   10  C   UNK N   1      25.350  17.765   4.119  0.00  0.00     0.164 C 
HETATM   11  C   UNK N   1      25.051  16.463   3.396  0.00  0.00     0.162 C 
HETATM   12  C   UNK N   1      30.410  16.028   6.039  0.00  0.00     0.050 A 
HETATM   13  C   UNK N   1      29.514  13.626   4.936  0.00  0.00     0.278 C 
HETATM   14  C   UNK N   1      31.271  14.959   6.089  0.00  0.00    -0.019 A 
HETATM   15  C   UNK N   1      31.006  13.672   5.364  0.00  0.00     0.072 C 
HETATM   16  C   UNK N   1      32.301  15.355   6.912  0.00  0.00    -0.001 A 
HETATM   17  C   UNK N   1      31.993  16.625   7.340  0.00  0.00     0.046 A 
HETATM   18  C   UNK N   1      33.470  14.719   7.324  0.00  0.00     0.017 A 
HETATM   19  C   UNK N   1      32.813  17.347   8.189  0.00  0.00     0.067 A 
HETATM   20  C   UNK N   1      34.334  15.433   8.181  0.00  0.00     0.038 A 
HETATM   21  C   UNK N   1      34.008  16.751   8.616  0.00  0.00     0.070 A 
HETATM   22  H   UNK N   1      30.378  17.907   6.972  0.00  0.00     0.166 HD
ENDROOT
BRANCH  11  23
HETATM   23  O   UNK N   1      24.904  15.399   4.268  0.00  0.00    -0.309 OA
BRANCH  23  24
HETATM   24  C   UNK N   1      23.680  14.875   4.538  0.00  0.00     0.294 C 
HETATM   25  O   UNK N   1      22.933  14.601   3.612  0.00  0.00    -0.259 OA
BRANCH  24  26
HETATM   26  C   UNK N   1      23.216  14.702   5.939  0.00  0.00     0.045 A 
HETATM   27  C   UNK N   1      23.741  13.694   6.742  0.00  0.00     0.057 A 
HETATM   28  C   UNK N   1      23.239  13.468   8.036  0.00  0.00     0.105 A 
HETATM   29  C   UNK N   1      22.203  14.307   8.543  0.00  0.00     0.135 A 
HETATM   30  C   UNK N   1      21.703  15.343   7.738  0.00  0.00     0.105 A 
HETATM   31  C   UNK N   1      22.206  15.521   6.449  0.00  0.00     0.057 A 
BRANCH  28  32
HETATM   32  O   UNK N   1      23.727  12.450   8.785  0.00  0.00    -0.353 OA
HETATM   33  C   UNK N   1      23.598  11.123   8.438  0.00  0.00     0.210 C 
ENDBRANCH  28  32
BRANCH  29  34
HETATM   34  O   UNK N   1      21.657  14.153   9.779  0.00  0.00    -0.351 OA
HETATM   35  C   UNK N   1      20.654  13.274  10.111  0.00  0.00     0.210 C 
ENDBRANCH  29  34
BRANCH  30  36
HETATM   36  O   UNK N   1      20.725  16.152   8.220  0.00  0.00    -0.353 OA
HETATM   37  C   UNK N   1      19.557  16.413   7.539  0.00  0.00     0.210 C 
ENDBRANCH  30  36
ENDBRANCH  24  26
ENDBRANCH  23  24
ENDBRANCH  11  23
BRANCH  10  38
HETATM   38  O   UNK N   1      24.365  18.022   5.077  0.00  0.00    -0.387 OA
HETATM   39  C   UNK N   1      23.311  18.598   4.361  0.00  0.00     0.202 C 
ENDBRANCH  10  38
BRANCH   6  40
HETATM   40  C   UNK N   1      27.068  18.923   5.604  0.00  0.00     0.265 C 
HETATM   41  O   UNK N   1      27.460  18.720   6.742  0.00  0.00    -0.265 OA
BRANCH  40  42
HETATM   42  O   UNK N   1      26.957  20.207   5.173  0.00  0.00    -0.326 OA
HETATM   43  C   UNK N   1      27.072  21.310   5.986  0.00  0.00     0.213 C 
ENDBRANCH  40  42
ENDBRANCH   6  40
BRANCH  21  44
HETATM   44  O   UNK N   1      34.825  17.459   9.428  0.00  0.00    -0.356 OA
HETATM   45  C   UNK N   1      35.361  16.952  10.588  0.00  0.00     0.210 C 
ENDBRANCH  21  44
TORSDOF 10
ENDMDL
MODEL 9
REMARK VINA RESULT:      -7.2      2.301      3.396
REMARK  10 active torsions:
REMARK  status: ('A' for Active; 'I' for Inactive)
REMARK    1  A    between atoms: C_19  and  O_1 
REMARK    2  A    between atoms: C_20  and  O_2 
REMARK    3  A    between atoms: O_2  and  C_30 
REMARK    4  A    between atoms: O_3  and  C_25 
REMARK    5  A    between atoms: O_6  and  C_33 
REMARK    6  A    between atoms: O_7  and  C_38 
REMARK    7  A    between atoms: O_8  and  C_39 
REMARK    8  A    between atoms: O_9  and  C_41 
REMARK    9  A    between atoms: C_15  and  C_25 
REMARK   10  A    between atoms: C_30  and  C_35 
ROOT
HETATM    1  N   UNK N   1      30.702  17.523   7.674  0.00  0.00     0.099 N 
HETATM    2  N   UNK N   1      29.100  15.229   5.217  0.00  0.00    -0.357 N 
HETATM    3  C   UNK N   1      33.047  16.906   6.055  0.00  0.00     0.010 C 
HETATM    4  C   UNK N   1      33.100  17.892   7.261  0.00  0.00     0.021 C 
HETATM    5  C   UNK N   1      31.608  16.786   5.567  0.00  0.00     0.048 C 
HETATM    6  C   UNK N   1      33.561  15.496   6.431  0.00  0.00     0.121 C 
HETATM    7  C   UNK N   1      30.718  16.382   6.741  0.00  0.00     0.273 C 
HETATM    8  C   UNK N   1      32.016  17.584   8.326  0.00  0.00     0.278 C 
HETATM    9  C   UNK N   1      34.509  17.897   7.863  0.00  0.00     0.042 C 
HETATM   10  C   UNK N   1      34.972  15.558   7.013  0.00  0.00     0.164 C 
HETATM   11  C   UNK N   1      35.002  16.482   8.219  0.00  0.00     0.162 C 
HETATM   12  C   UNK N   1      29.365  16.079   6.228  0.00  0.00     0.050 A 
HETATM   13  C   UNK N   1      29.598  17.460   8.643  0.00  0.00     0.278 C 
HETATM   14  C   UNK N   1      28.220  16.641   6.739  0.00  0.00    -0.019 A 
HETATM   15  C   UNK N   1      28.232  17.574   7.914  0.00  0.00     0.072 C 
HETATM   16  C   UNK N   1      27.193  16.142   5.970  0.00  0.00    -0.001 A 
HETATM   17  C   UNK N   1      27.766  15.283   5.062  0.00  0.00     0.046 A 
HETATM   18  C   UNK N   1      25.817  16.359   5.989  0.00  0.00     0.017 A 
HETATM   19  C   UNK N   1      27.027  14.595   4.116  0.00  0.00     0.067 A 
HETATM   20  C   UNK N   1      25.036  15.680   5.030  0.00  0.00     0.038 A 
HETATM   21  C   UNK N   1      25.639  14.796   4.089  0.00  0.00     0.070 A 
HETATM   22  H   UNK N   1      29.741  14.687   4.704  0.00  0.00     0.166 HD
ENDROOT
BRANCH  11  23
HETATM   23  O   UNK N   1      34.307  15.964   9.297  0.00  0.00    -0.309 OA
BRANCH  23  24
HETATM   24  C   UNK N   1      34.851  15.946  10.542  0.00  0.00     0.294 C 
HETATM   25  O   UNK N   1      35.188  17.001  11.058  0.00  0.00    -0.259 OA
BRANCH  24  26
HETATM   26  C   UNK N   1      35.106  14.663  11.246  0.00  0.00     0.045 A 
HETATM   27  C   UNK N   1      35.758  14.645  12.476  0.00  0.00     0.057 A 
HETATM   28  C   UNK N   1      36.084  13.428  13.101  0.00  0.00     0.105 A 
HETATM   29  C   UNK N   1      35.709  12.199  12.482  0.00  0.00     0.135 A 
HETATM   30  C   UNK N   1      35.022  12.228  11.259  0.00  0.00     0.105 A 
HETATM   31  C   UNK N   1      34.739  13.453  10.653  0.00  0.00     0.057 A 
BRANCH  28  32
HETATM   32  O   UNK N   1      36.764  13.429  14.273  0.00  0.00    -0.353 OA
HETATM   33  C   UNK N   1      36.151  13.470  15.506  0.00  0.00     0.210 C 
ENDBRANCH  28  32
BRANCH  29  34
HETATM   34  O   UNK N   1      35.991  10.980  13.015  0.00  0.00    -0.351 OA
HETATM   35  C   UNK N   1      37.176  10.296  12.874  0.00  0.00     0.210 C 
ENDBRANCH  29  34
BRANCH  30  36
HETATM   36  O   UNK N   1      34.653  11.062  10.671  0.00  0.00    -0.353 OA
HETATM   37  C   UNK N   1      34.864  10.787   9.338  0.00  0.00     0.210 C 
ENDBRANCH  30  36
ENDBRANCH  24  26
ENDBRANCH  23  24
ENDBRANCH  11  23
BRANCH  10  38
HETATM   38  O   UNK N   1      35.445  14.291   7.365  0.00  0.00    -0.387 OA
HETATM   39  C   UNK N   1      36.738  14.233   6.837  0.00  0.00     0.202 C 
ENDBRANCH  10  38
BRANCH   6  40
HETATM   40  C   UNK N   1      33.409  14.480   5.312  0.00  0.00     0.265 C 
HETATM   41  O   UNK N   1      32.687  13.516   5.510  0.00  0.00    -0.265 OA
BRANCH  40  42
HETATM   42  O   UNK N   1      34.019  14.599   4.104  0.00  0.00    -0.326 OA
HETATM   43  C   UNK N   1      33.388  14.419   2.896  0.00  0.00     0.213 C 
ENDBRANCH  40  42
ENDBRANCH   6  40
BRANCH  21  44
HETATM   44  O   UNK N   1      24.914  14.143   3.153  0.00  0.00    -0.356 OA
HETATM   45  C   UNK N   1      25.190  14.201   1.808  0.00  0.00     0.210 C 
ENDBRANCH  21  44
TORSDOF 10
ENDMDL
