REMARK  2 active torsions:
REMARK  status: ('A' for Active; 'I' for Inactive)
REMARK    1  A    between atoms: N_3  and  C_9 
REMARK    2  A    between atoms: C_9  and  C_10 
ROOT
HETATM    1  S   UNK N   1       8.763  -1.533   0.469  0.00  0.00    -0.106 SA
HETATM    2  N   UNK N   1       4.603  -0.038   0.074  0.00  0.00     0.097 N 
HETATM    3  C   UNK N   1       4.876  -1.356  -0.526  0.00  0.00     0.278 C 
HETATM    4  C   UNK N   1       5.748   0.878  -0.096  0.00  0.00     0.312 C 
HETATM    5  C   UNK N   1       6.005  -2.087   0.206  0.00  0.00     0.077 C 
HETATM    6  C   UNK N   1       7.076   0.206   0.132  0.00  0.00    -0.017 A 
HETATM    7  C   UNK N   1       7.166  -1.167   0.277  0.00  0.00    -0.008 A 
HETATM    8  C   UNK N   1       8.327   0.873   0.181  0.00  0.00     0.017 A 
HETATM    9  C   UNK N   1       9.414  -0.002   0.378  0.00  0.00     0.051 A 
ENDROOT
BRANCH   2  10
HETATM   10  C   UNK N   1       3.502   0.556  -0.681  0.00  0.00     0.313 C 
BRANCH  10  11
HETATM   11  C   UNK N   1       2.151   0.029  -0.273  0.00  0.00    -0.008 A 
HETATM   12  C   UNK N   1       1.124   0.906   0.126  0.00  0.00     0.042 A 
HETATM   13 Cl   UNK N   1       1.377   2.644   0.188  0.00  0.00    -0.084 Cl
HETATM   14  C   UNK N   1      -0.136   0.398   0.462  0.00  0.00     0.024 A 
HETATM   15  C   UNK N   1      -0.380  -0.977   0.406  0.00  0.00     0.002 A 
HETATM   16  C   UNK N   1       0.634  -1.849   0.008  0.00  0.00     0.001 A 
HETATM   17  C   UNK N   1       1.891  -1.348  -0.335  0.00  0.00     0.011 A 
ENDBRANCH  10  11
ENDBRANCH   2  10
TORSDOF 2
