MODEL 1
REMARK VINA RESULT:      -5.9      0.000      0.000
REMARK  2 active torsions:
REMARK  status: ('A' for Active; 'I' for Inactive)
REMARK    1  A    between atoms: N_3  and  C_9 
REMARK    2  A    between atoms: C_9  and  C_10 
ROOT
HETATM    1  S   UNK N   1      32.129  21.731  -3.713  0.00  0.00    -0.106 SA
HETATM    2  N   UNK N   1      28.312  23.980  -3.458  0.00  0.00     0.097 N 
HETATM    3  C   UNK N   1      28.689  23.209  -2.260  0.00  0.00     0.278 C 
HETATM    4  C   UNK N   1      28.679  23.265  -4.696  0.00  0.00     0.312 C 
HETATM    5  C   UNK N   1      30.209  23.071  -2.132  0.00  0.00     0.077 C 
HETATM    6  C   UNK N   1      30.033  22.610  -4.616  0.00  0.00    -0.017 A 
HETATM    7  C   UNK N   1      30.723  22.541  -3.419  0.00  0.00    -0.008 A 
HETATM    8  C   UNK N   1      30.700  21.986  -5.701  0.00  0.00     0.017 A 
HETATM    9  C   UNK N   1      31.942  21.427  -5.340  0.00  0.00     0.051 A 
ENDROOT
BRANCH   2  10
HETATM   10  C   UNK N   1      26.854  24.070  -3.468  0.00  0.00     0.313 C 
BRANCH  10  11
HETATM   11  C   UNK N   1      26.343  25.372  -4.027  0.00  0.00    -0.008 A 
HETATM   12  C   UNK N   1      25.763  25.430  -5.309  0.00  0.00     0.042 A 
HETATM   13 Cl   UNK N   1      25.629  23.997  -6.318  0.00  0.00    -0.084 Cl
HETATM   14  C   UNK N   1      25.258  26.642  -5.793  0.00  0.00     0.024 A 
HETATM   15  C   UNK N   1      25.330  27.798  -5.011  0.00  0.00     0.002 A 
HETATM   16  C   UNK N   1      25.902  27.745  -3.739  0.00  0.00     0.001 A 
HETATM   17  C   UNK N   1      26.400  26.537  -3.248  0.00  0.00     0.011 A 
ENDBRANCH  10  11
ENDBRANCH   2  10
TORSDOF 2
ENDMDL
MODEL 2
REMARK VINA RESULT:      -5.6     19.107     21.805
REMARK  2 active torsions:
REMARK  status: ('A' for Active; 'I' for Inactive)
REMARK    1  A    between atoms: N_3  and  C_9 
REMARK    2  A    between atoms: C_9  and  C_10 
ROOT
HETATM    1  S   UNK N   1      34.118  15.587   8.672  0.00  0.00    -0.106 SA
HETATM    2  N   UNK N   1      35.392  14.118  12.661  0.00  0.00     0.097 N 
HETATM    3  C   UNK N   1      36.143  15.267  12.126  0.00  0.00     0.278 C 
HETATM    4  C   UNK N   1      35.030  13.166  11.593  0.00  0.00     0.312 C 
HETATM    5  C   UNK N   1      35.280  16.120  11.191  0.00  0.00     0.077 C 
HETATM    6  C   UNK N   1      34.568  13.847  10.332  0.00  0.00    -0.017 A 
HETATM    7  C   UNK N   1      34.687  15.217  10.175  0.00  0.00    -0.008 A 
HETATM    8  C   UNK N   1      34.022  13.184   9.203  0.00  0.00     0.017 A 
HETATM    9  C   UNK N   1      33.700  14.061   8.147  0.00  0.00     0.051 A 
ENDROOT
BRANCH   2  10
HETATM   10  C   UNK N   1      36.296  13.393  13.551  0.00  0.00     0.313 C 
BRANCH  10  11
HETATM   11  C   UNK N   1      36.034  13.663  15.010  0.00  0.00    -0.008 A 
HETATM   12  C   UNK N   1      35.030  12.961  15.705  0.00  0.00     0.042 A 
HETATM   13 Cl   UNK N   1      34.027  11.763  14.902  0.00  0.00    -0.084 Cl
HETATM   14  C   UNK N   1      34.832  13.198  17.070  0.00  0.00     0.024 A 
HETATM   15  C   UNK N   1      35.623  14.130  17.747  0.00  0.00     0.002 A 
HETATM   16  C   UNK N   1      36.621  14.825  17.063  0.00  0.00     0.001 A 
HETATM   17  C   UNK N   1      36.829  14.588  15.703  0.00  0.00     0.011 A 
ENDBRANCH  10  11
ENDBRANCH   2  10
TORSDOF 2
ENDMDL
MODEL 3
REMARK VINA RESULT:      -5.4     10.094     12.117
REMARK  2 active torsions:
REMARK  status: ('A' for Active; 'I' for Inactive)
REMARK    1  A    between atoms: N_3  and  C_9 
REMARK    2  A    between atoms: C_9  and  C_10 
ROOT
HETATM    1  S   UNK N   1      19.656  18.570   2.972  0.00  0.00    -0.106 SA
HETATM    2  N   UNK N   1      23.846  19.814   3.743  0.00  0.00     0.097 N 
HETATM    3  C   UNK N   1      23.161  20.501   2.634  0.00  0.00     0.278 C 
HETATM    4  C   UNK N   1      23.462  18.391   3.813  0.00  0.00     0.312 C 
HETATM    5  C   UNK N   1      21.648  20.571   2.860  0.00  0.00     0.077 C 
HETATM    6  C   UNK N   1      21.991  18.168   3.581  0.00  0.00    -0.017 A 
HETATM    7  C   UNK N   1      21.172  19.196   3.148  0.00  0.00    -0.008 A 
HETATM    8  C   UNK N   1      21.322  16.926   3.735  0.00  0.00     0.017 A 
HETATM    9  C   UNK N   1      19.949  16.994   3.424  0.00  0.00     0.051 A 
ENDROOT
BRANCH   2  10
HETATM   10  C   UNK N   1      25.275  19.827   3.437  0.00  0.00     0.313 C 
BRANCH  10  11
HETATM   11  C   UNK N   1      26.145  19.802   4.667  0.00  0.00    -0.008 A 
HETATM   12  C   UNK N   1      26.920  18.670   4.981  0.00  0.00     0.042 A 
HETATM   13 Cl   UNK N   1      26.892  17.232   3.970  0.00  0.00    -0.084 Cl
HETATM   14  C   UNK N   1      27.752  18.683   6.106  0.00  0.00     0.024 A 
HETATM   15  C   UNK N   1      27.816  19.816   6.922  0.00  0.00     0.002 A 
HETATM   16  C   UNK N   1      27.051  20.942   6.613  0.00  0.00     0.001 A 
HETATM   17  C   UNK N   1      26.224  20.937   5.488  0.00  0.00     0.011 A 
ENDBRANCH  10  11
ENDBRANCH   2  10
TORSDOF 2
ENDMDL
MODEL 4
REMARK VINA RESULT:      -5.4     18.370     21.150
REMARK  2 active torsions:
REMARK  status: ('A' for Active; 'I' for Inactive)
REMARK    1  A    between atoms: N_3  and  C_9 
REMARK    2  A    between atoms: C_9  and  C_10 
ROOT
HETATM    1  S   UNK N   1      33.893  16.979   8.620  0.00  0.00    -0.106 SA
HETATM    2  N   UNK N   1      35.118  14.100  11.767  0.00  0.00     0.097 N 
HETATM    3  C   UNK N   1      36.050  15.211  11.510  0.00  0.00     0.278 C 
HETATM    4  C   UNK N   1      34.491  13.623  10.518  0.00  0.00     0.312 C 
HETATM    5  C   UNK N   1      35.318  16.457  11.003  0.00  0.00     0.077 C 
HETATM    6  C   UNK N   1      34.091  14.746   9.598  0.00  0.00    -0.017 A 
HETATM    7  C   UNK N   1      34.480  16.049   9.850  0.00  0.00    -0.008 A 
HETATM    8  C   UNK N   1      33.339  14.590   8.405  0.00  0.00     0.017 A 
HETATM    9  C   UNK N   1      33.132  15.803   7.718  0.00  0.00     0.051 A 
ENDROOT
BRANCH   2  10
HETATM   10  C   UNK N   1      35.914  12.980  12.265  0.00  0.00     0.313 C 
BRANCH  10  11
HETATM   11  C   UNK N   1      35.332  12.342  13.499  0.00  0.00    -0.008 A 
HETATM   12  C   UNK N   1      35.644  12.832  14.782  0.00  0.00     0.042 A 
HETATM   13 Cl   UNK N   1      36.737  14.190  15.002  0.00  0.00    -0.084 Cl
HETATM   14  C   UNK N   1      35.060  12.250  15.913  0.00  0.00     0.024 A 
HETATM   15  C   UNK N   1      34.170  11.181  15.776  0.00  0.00     0.002 A 
HETATM   16  C   UNK N   1      33.857  10.693  14.506  0.00  0.00     0.001 A 
HETATM   17  C   UNK N   1      34.430  11.275  13.374  0.00  0.00     0.011 A 
ENDBRANCH  10  11
ENDBRANCH   2  10
TORSDOF 2
ENDMDL
MODEL 5
REMARK VINA RESULT:      -5.4     10.418     11.488
REMARK  2 active torsions:
REMARK  status: ('A' for Active; 'I' for Inactive)
REMARK    1  A    between atoms: N_3  and  C_9 
REMARK    2  A    between atoms: C_9  and  C_10 
ROOT
HETATM    1  S   UNK N   1      33.722  15.963   4.755  0.00  0.00    -0.106 SA
HETATM    2  N   UNK N   1      29.772  17.550   6.011  0.00  0.00     0.097 N 
HETATM    3  C   UNK N   1      30.350  16.501   6.870  0.00  0.00     0.278 C 
HETATM    4  C   UNK N   1      30.059  17.297   4.586  0.00  0.00     0.312 C 
HETATM    5  C   UNK N   1      31.881  16.516   6.826  0.00  0.00     0.077 C 
HETATM    6  C   UNK N   1      31.466  16.817   4.347  0.00  0.00    -0.017 A 
HETATM    7  C   UNK N   1      32.291  16.470   5.402  0.00  0.00    -0.008 A 
HETATM    8  C   UNK N   1      32.059  16.639   3.070  0.00  0.00     0.017 A 
HETATM    9  C   UNK N   1      33.379  16.150   3.136  0.00  0.00     0.051 A 
ENDROOT
BRANCH   2  10
HETATM   10  C   UNK N   1      28.320  17.462   6.147  0.00  0.00     0.313 C 
BRANCH  10  11
HETATM   11  C   UNK N   1      27.622  18.778   5.924  0.00  0.00    -0.008 A 
HETATM   12  C   UNK N   1      26.758  18.961   4.827  0.00  0.00     0.042 A 
HETATM   13 Cl   UNK N   1      26.472  17.676   3.663  0.00  0.00    -0.084 Cl
HETATM   14  C   UNK N   1      26.088  20.179   4.662  0.00  0.00     0.024 A 
HETATM   15  C   UNK N   1      26.276  21.217   5.578  0.00  0.00     0.002 A 
HETATM   16  C   UNK N   1      27.129  21.039   6.668  0.00  0.00     0.001 A 
HETATM   17  C   UNK N   1      27.794  19.824   6.843  0.00  0.00     0.011 A 
ENDBRANCH  10  11
ENDBRANCH   2  10
TORSDOF 2
ENDMDL
MODEL 6
REMARK VINA RESULT:      -5.3     25.099     27.554
REMARK  2 active torsions:
REMARK  status: ('A' for Active; 'I' for Inactive)
REMARK    1  A    between atoms: N_3  and  C_9 
REMARK    2  A    between atoms: C_9  and  C_10 
ROOT
HETATM    1  S   UNK N   1      36.116  13.415  14.802  0.00  0.00    -0.106 SA
HETATM    2  N   UNK N   1      35.029  11.132  18.450  0.00  0.00     0.097 N 
HETATM    3  C   UNK N   1      35.313  12.565  18.645  0.00  0.00     0.278 C 
HETATM    4  C   UNK N   1      35.921  10.540  17.434  0.00  0.00     0.312 C 
HETATM    5  C   UNK N   1      34.984  13.381  17.391  0.00  0.00     0.077 C 
HETATM    6  C   UNK N   1      36.129  11.437  16.242  0.00  0.00    -0.017 A 
HETATM    7  C   UNK N   1      35.678  12.745  16.245  0.00  0.00    -0.008 A 
HETATM    8  C   UNK N   1      36.813  11.067  15.055  0.00  0.00     0.017 A 
HETATM    9  C   UNK N   1      36.887  12.110  14.111  0.00  0.00     0.051 A 
ENDROOT
BRANCH   2  10
HETATM   10  C   UNK N   1      35.353  10.458  19.705  0.00  0.00     0.313 C 
BRANCH  10  11
HETATM   11  C   UNK N   1      34.145   9.886  20.400  0.00  0.00    -0.008 A 
HETATM   12  C   UNK N   1      33.635   8.623  20.042  0.00  0.00     0.042 A 
HETATM   13 Cl   UNK N   1      34.367   7.671  18.759  0.00  0.00    -0.084 Cl
HETATM   14  C   UNK N   1      32.536   8.094  20.728  0.00  0.00     0.024 A 
HETATM   15  C   UNK N   1      31.940   8.814  21.767  0.00  0.00     0.002 A 
HETATM   16  C   UNK N   1      32.444  10.064  22.127  0.00  0.00     0.001 A 
HETATM   17  C   UNK N   1      33.544  10.595  21.451  0.00  0.00     0.011 A 
ENDBRANCH  10  11
ENDBRANCH   2  10
TORSDOF 2
ENDMDL
MODEL 7
REMARK VINA RESULT:      -5.2     10.443     13.022
REMARK  2 active torsions:
REMARK  status: ('A' for Active; 'I' for Inactive)
REMARK    1  A    between atoms: N_3  and  C_9 
REMARK    2  A    between atoms: C_9  and  C_10 
ROOT
HETATM    1  S   UNK N   1      24.480  20.601   2.724  0.00  0.00    -0.106 SA
HETATM    2  N   UNK N   1      27.065  18.417   5.596  0.00  0.00     0.097 N 
HETATM    3  C   UNK N   1      27.696  18.803   4.322  0.00  0.00     0.278 C 
HETATM    4  C   UNK N   1      25.658  18.016   5.399  0.00  0.00     0.312 C 
HETATM    5  C   UNK N   1      27.063  20.069   3.738  0.00  0.00     0.077 C 
HETATM    6  C   UNK N   1      24.923  18.907   4.433  0.00  0.00    -0.017 A 
HETATM    7  C   UNK N   1      25.596  19.855   3.682  0.00  0.00    -0.008 A 
HETATM    8  C   UNK N   1      23.531  18.847   4.169  0.00  0.00     0.017 A 
HETATM    9  C   UNK N   1      23.110  19.777   3.197  0.00  0.00     0.051 A 
ENDROOT
BRANCH   2  10
HETATM   10  C   UNK N   1      27.757  17.222   6.072  0.00  0.00     0.313 C 
BRANCH  10  11
HETATM   11  C   UNK N   1      28.772  17.512   7.146  0.00  0.00    -0.008 A 
HETATM   12  C   UNK N   1      30.138  17.237   6.944  0.00  0.00     0.042 A 
HETATM   13 Cl   UNK N   1      30.715  16.523   5.445  0.00  0.00    -0.084 Cl
HETATM   14  C   UNK N   1      31.069  17.552   7.940  0.00  0.00     0.024 A 
HETATM   15  C   UNK N   1      30.649  18.138   9.137  0.00  0.00     0.002 A 
HETATM   16  C   UNK N   1      29.297  18.416   9.341  0.00  0.00     0.001 A 
HETATM   17  C   UNK N   1      28.364  18.110   8.348  0.00  0.00     0.011 A 
ENDBRANCH  10  11
ENDBRANCH   2  10
TORSDOF 2
ENDMDL
MODEL 8
REMARK VINA RESULT:      -5.1      1.683      2.076
REMARK  2 active torsions:
REMARK  status: ('A' for Active; 'I' for Inactive)
REMARK    1  A    between atoms: N_3  and  C_9 
REMARK    2  A    between atoms: C_9  and  C_10 
ROOT
HETATM    1  S   UNK N   1      31.270  21.153  -6.832  0.00  0.00    -0.106 SA
HETATM    2  N   UNK N   1      27.960  23.757  -5.431  0.00  0.00     0.097 N 
HETATM    3  C   UNK N   1      28.895  23.285  -4.394  0.00  0.00     0.278 C 
HETATM    4  C   UNK N   1      27.716  22.716  -6.449  0.00  0.00     0.312 C 
HETATM    5  C   UNK N   1      30.294  23.036  -4.965  0.00  0.00     0.077 C 
HETATM    6  C   UNK N   1      28.966  21.974  -6.841  0.00  0.00    -0.017 A 
HETATM    7  C   UNK N   1      30.148  22.146  -6.143  0.00  0.00    -0.008 A 
HETATM    8  C   UNK N   1      29.053  21.030  -7.896  0.00  0.00     0.017 A 
HETATM    9  C   UNK N   1      30.337  20.462  -8.027  0.00  0.00     0.051 A 
ENDROOT
BRANCH   2  10
HETATM   10  C   UNK N   1      26.674  23.984  -4.776  0.00  0.00     0.313 C 
BRANCH  10  11
HETATM   11  C   UNK N   1      26.321  25.443  -4.652  0.00  0.00    -0.008 A 
HETATM   12  C   UNK N   1      25.827  26.163  -5.757  0.00  0.00     0.042 A 
HETATM   13 Cl   UNK N   1      25.623  25.403  -7.328  0.00  0.00    -0.084 Cl
HETATM   14  C   UNK N   1      25.468  27.508  -5.609  0.00  0.00     0.024 A 
HETATM   15  C   UNK N   1      25.598  28.140  -4.369  0.00  0.00     0.002 A 
HETATM   16  C   UNK N   1      26.084  27.429  -3.271  0.00  0.00     0.001 A 
HETATM   17  C   UNK N   1      26.438  26.086  -3.411  0.00  0.00     0.011 A 
ENDBRANCH  10  11
ENDBRANCH   2  10
TORSDOF 2
ENDMDL
MODEL 9
REMARK VINA RESULT:      -5.0     10.924     13.192
REMARK  2 active torsions:
REMARK  status: ('A' for Active; 'I' for Inactive)
REMARK    1  A    between atoms: N_3  and  C_9 
REMARK    2  A    between atoms: C_9  and  C_10 
ROOT
HETATM    1  S   UNK N   1      27.028  20.871   6.730  0.00  0.00    -0.106 SA
HETATM    2  N   UNK N   1      29.090  16.943   6.884  0.00  0.00     0.097 N 
HETATM    3  C   UNK N   1      29.450  17.904   7.942  0.00  0.00     0.278 C 
HETATM    4  C   UNK N   1      28.867  17.623   5.593  0.00  0.00     0.312 C 
HETATM    5  C   UNK N   1      28.293  18.857   8.256  0.00  0.00     0.077 C 
HETATM    6  C   UNK N   1      28.103  18.913   5.732  0.00  0.00    -0.017 A 
HETATM    7  C   UNK N   1      27.843  19.458   6.977  0.00  0.00    -0.008 A 
HETATM    8  C   UNK N   1      27.621  19.694   4.650  0.00  0.00     0.017 A 
HETATM    9  C   UNK N   1      26.964  20.869   5.065  0.00  0.00     0.051 A 
ENDROOT
BRANCH   2  10
HETATM   10  C   UNK N   1      30.247  16.075   6.683  0.00  0.00     0.313 C 
BRANCH  10  11
HETATM   11  C   UNK N   1      31.112  16.498   5.524  0.00  0.00    -0.008 A 
HETATM   12  C   UNK N   1      32.291  17.239   5.736  0.00  0.00     0.042 A 
HETATM   13 Cl   UNK N   1      32.793  17.720   7.350  0.00  0.00    -0.084 Cl
HETATM   14  C   UNK N   1      33.101  17.587   4.649  0.00  0.00     0.024 A 
HETATM   15  C   UNK N   1      32.744  17.205   3.352  0.00  0.00     0.002 A 
HETATM   16  C   UNK N   1      31.578  16.469   3.139  0.00  0.00     0.001 A 
HETATM   17  C   UNK N   1      30.770  16.112   4.220  0.00  0.00     0.011 A 
ENDBRANCH  10  11
ENDBRANCH   2  10
TORSDOF 2
ENDMDL
