MODEL 1
REMARK VINA RESULT:      -8.5      0.000      0.000
REMARK  5 active torsions:
REMARK  status: ('A' for Active; 'I' for Inactive)
REMARK    1  A    between atoms: O_1  and  C_15 
REMARK    2  A    between atoms: O_2  and  C_31 
REMARK    3  A    between atoms: C_4  and  C_14 
REMARK    4  A    between atoms: C_17  and  C_20 
REMARK    5  A    between atoms: C_30  and  C_31 
ROOT
HETATM    1  C   UNK N   1      30.356  17.272   6.388  0.00  0.00    -0.015 A 
HETATM    2  C   UNK N   1      30.618  17.393   7.772  0.00  0.00     0.075 A 
HETATM    3  C   UNK N   1      29.237  17.885   5.906  0.00  0.00     0.023 A 
HETATM    4  C   UNK N   1      28.318  18.595   6.633  0.00  0.00    -0.025 A 
HETATM    5  C   UNK N   1      29.700  18.134   8.580  0.00  0.00     0.038 A 
HETATM    6  C   UNK N   1      28.537  18.726   8.013  0.00  0.00     0.015 A 
ENDROOT
BRANCH   4   7
HETATM    7  C   UNK N   1      27.161  19.071   5.822  0.00  0.00    -0.025 A 
HETATM    8  C   UNK N   1      25.908  18.436   5.717  0.00  0.00     0.024 A 
HETATM    9  C   UNK N   1      24.939  18.978   4.836  0.00  0.00    -0.025 A 
HETATM   10  C   UNK N   1      25.242  20.143   4.083  0.00  0.00    -0.025 A 
HETATM   11  C   UNK N   1      23.678  18.389   4.677  0.00  0.00     0.013 A 
HETATM   12  C   UNK N   1      26.463  20.758   4.201  0.00  0.00     0.013 A 
HETATM   13  C   UNK N   1      24.320  20.693   3.215  0.00  0.00     0.030 A 
HETATM   14  C   UNK N   1      27.397  20.229   5.048  0.00  0.00     0.013 A 
HETATM   15  C   UNK N   1      23.070  20.119   3.057  0.00  0.00     0.038 A 
HETATM   16  C   UNK N   1      22.744  18.959   3.789  0.00  0.00     0.019 A 
BRANCH  15  17
HETATM   17  C   UNK N   1      22.109  20.747   2.132  0.00  0.00     0.176 C 
HETATM   18  O   UNK N   1      22.143  20.474   0.935  0.00  0.00    -0.646 OA
BRANCH  17  19
HETATM   19  O   UNK N   1      21.200  21.626   2.581  0.00  0.00    -0.773 OA
HETATM   20  H   UNK N   1      20.748  21.465   3.386  0.00  0.00     0.167 HD
ENDBRANCH  17  19
ENDBRANCH  15  17
ENDBRANCH   4   7
BRANCH   1  21
HETATM   21  C   UNK N   1      31.153  16.466   5.358  0.00  0.00    -0.009 C 
HETATM   22  C   UNK N   1      30.455  16.521   3.988  0.00  0.00     0.019 C 
HETATM   23  C   UNK N   1      31.299  15.791   2.929  0.00  0.00    -0.013 C 
HETATM   24  C   UNK N   1      31.497  14.328   3.357  0.00  0.00     0.009 C 
HETATM   25  C   UNK N   1      32.672  16.468   2.802  0.00  0.00     0.009 C 
HETATM   26  C   UNK N   1      32.210  14.267   4.717  0.00  0.00    -0.013 C 
HETATM   27  C   UNK N   1      31.352  14.999   5.775  0.00  0.00     0.019 C 
HETATM   28  C   UNK N   1      33.588  14.940   4.581  0.00  0.00     0.009 C 
HETATM   29  C   UNK N   1      33.415  16.396   4.140  0.00  0.00    -0.013 C 
HETATM   30  C   UNK N   1      32.576  17.102   5.188  0.00  0.00     0.019 C 
ENDBRANCH   1  21
BRANCH   2  31
HETATM   31  O   UNK N   1      31.706  16.783   8.306  0.00  0.00    -0.355 OA
HETATM   32  C   UNK N   1      32.852  17.459   8.660  0.00  0.00     0.210 C 
ENDBRANCH   2  31
TORSDOF 5
ENDMDL
MODEL 2
REMARK VINA RESULT:      -8.2      2.193      9.235
REMARK  5 active torsions:
REMARK  status: ('A' for Active; 'I' for Inactive)
REMARK    1  A    between atoms: O_1  and  C_15 
REMARK    2  A    between atoms: O_2  and  C_31 
REMARK    3  A    between atoms: C_4  and  C_14 
REMARK    4  A    between atoms: C_17  and  C_20 
REMARK    5  A    between atoms: C_30  and  C_31 
ROOT
HETATM    1  C   UNK N   1      23.623  18.410   4.568  0.00  0.00    -0.015 A 
HETATM    2  C   UNK N   1      23.389  19.428   3.616  0.00  0.00     0.075 A 
HETATM    3  C   UNK N   1      24.904  18.245   5.008  0.00  0.00     0.023 A 
HETATM    4  C   UNK N   1      26.004  18.955   4.602  0.00  0.00    -0.025 A 
HETATM    5  C   UNK N   1      24.497  20.210   3.165  0.00  0.00     0.038 A 
HETATM    6  C   UNK N   1      25.813  19.965   3.647  0.00  0.00     0.015 A 
ENDROOT
BRANCH   4   7
HETATM    7  C   UNK N   1      27.277  18.476   5.212  0.00  0.00    -0.025 A 
HETATM    8  C   UNK N   1      27.649  18.614   6.563  0.00  0.00     0.024 A 
HETATM    9  C   UNK N   1      28.935  18.173   6.966  0.00  0.00    -0.025 A 
HETATM   10  C   UNK N   1      29.817  17.602   6.011  0.00  0.00    -0.025 A 
HETATM   11  C   UNK N   1      29.372  18.292   8.292  0.00  0.00     0.013 A 
HETATM   12  C   UNK N   1      29.440  17.464   4.700  0.00  0.00     0.013 A 
HETATM   13  C   UNK N   1      31.077  17.166   6.372  0.00  0.00     0.030 A 
HETATM   14  C   UNK N   1      28.200  17.895   4.313  0.00  0.00     0.013 A 
HETATM   15  C   UNK N   1      31.513  17.275   7.682  0.00  0.00     0.038 A 
HETATM   16  C   UNK N   1      30.658  17.843   8.650  0.00  0.00     0.019 A 
BRANCH  15  17
HETATM   17  C   UNK N   1      32.858  16.783   8.029  0.00  0.00     0.176 C 
HETATM   18  O   UNK N   1      33.506  16.141   7.207  0.00  0.00    -0.646 OA
BRANCH  17  19
HETATM   19  O   UNK N   1      33.383  17.020   9.241  0.00  0.00    -0.773 OA
HETATM   20  H   UNK N   1      32.835  17.315   9.941  0.00  0.00     0.167 HD
ENDBRANCH  17  19
ENDBRANCH  15  17
ENDBRANCH   4   7
BRANCH   1  21
HETATM   21  C   UNK N   1      22.609  17.408   5.127  0.00  0.00    -0.009 C 
HETATM   22  C   UNK N   1      21.840  16.737   3.975  0.00  0.00     0.019 C 
HETATM   23  C   UNK N   1      20.885  15.663   4.525  0.00  0.00    -0.013 C 
HETATM   24  C   UNK N   1      19.896  16.315   5.505  0.00  0.00     0.009 C 
HETATM   25  C   UNK N   1      21.689  14.584   5.266  0.00  0.00     0.009 C 
HETATM   26  C   UNK N   1      20.658  16.972   6.666  0.00  0.00    -0.013 C 
HETATM   27  C   UNK N   1      21.611  18.053   6.103  0.00  0.00     0.019 C 
HETATM   28  C   UNK N   1      21.456  15.885   7.409  0.00  0.00     0.009 C 
HETATM   29  C   UNK N   1      22.438  15.211   6.448  0.00  0.00    -0.013 C 
HETATM   30  C   UNK N   1      23.367  16.280   5.908  0.00  0.00     0.019 C 
ENDBRANCH   1  21
BRANCH   2  31
HETATM   31  O   UNK N   1      22.137  19.618   3.130  0.00  0.00    -0.355 OA
HETATM   32  C   UNK N   1      21.761  20.746   2.437  0.00  0.00     0.210 C 
ENDBRANCH   2  31
TORSDOF 5
ENDMDL
MODEL 3
REMARK VINA RESULT:      -8.2      4.227      9.185
REMARK  5 active torsions:
REMARK  status: ('A' for Active; 'I' for Inactive)
REMARK    1  A    between atoms: O_1  and  C_15 
REMARK    2  A    between atoms: O_2  and  C_31 
REMARK    3  A    between atoms: C_4  and  C_14 
REMARK    4  A    between atoms: C_17  and  C_20 
REMARK    5  A    between atoms: C_30  and  C_31 
ROOT
HETATM    1  C   UNK N   1      24.293  15.166   6.162  0.00  0.00    -0.015 A 
HETATM    2  C   UNK N   1      23.589  15.766   5.093  0.00  0.00     0.075 A 
HETATM    3  C   UNK N   1      25.576  15.577   6.378  0.00  0.00     0.023 A 
HETATM    4  C   UNK N   1      26.270  16.505   5.645  0.00  0.00    -0.025 A 
HETATM    5  C   UNK N   1      24.258  16.751   4.301  0.00  0.00     0.038 A 
HETATM    6  C   UNK N   1      25.608  17.113   4.567  0.00  0.00     0.015 A 
ENDROOT
BRANCH   4   7
HETATM    7  C   UNK N   1      27.683  16.672   6.087  0.00  0.00    -0.025 A 
HETATM    8  C   UNK N   1      28.113  17.351   7.244  0.00  0.00     0.024 A 
HETATM    9  C   UNK N   1      29.505  17.489   7.478  0.00  0.00    -0.025 A 
HETATM   10  C   UNK N   1      30.434  16.944   6.553  0.00  0.00    -0.025 A 
HETATM   11  C   UNK N   1      29.999  18.162   8.603  0.00  0.00     0.013 A 
HETATM   12  C   UNK N   1      30.003  16.277   5.435  0.00  0.00     0.013 A 
HETATM   13  C   UNK N   1      31.795  17.065   6.752  0.00  0.00     0.030 A 
HETATM   14  C   UNK N   1      28.660  16.150   5.210  0.00  0.00     0.013 A 
HETATM   15  C   UNK N   1      32.290  17.724   7.865  0.00  0.00     0.038 A 
HETATM   16  C   UNK N   1      31.389  18.279   8.797  0.00  0.00     0.019 A 
BRANCH  15  17
HETATM   17  C   UNK N   1      33.750  17.816   8.048  0.00  0.00     0.176 C 
HETATM   18  O   UNK N   1      34.468  18.122   7.100  0.00  0.00    -0.646 OA
BRANCH  17  19
HETATM   19  O   UNK N   1      34.308  17.559   9.241  0.00  0.00    -0.773 OA
HETATM   20  H   UNK N   1      35.097  17.055   9.292  0.00  0.00     0.167 HD
ENDBRANCH  17  19
ENDBRANCH  15  17
ENDBRANCH   4   7
BRANCH   1  21
HETATM   21  C   UNK N   1      23.806  14.043   7.082  0.00  0.00    -0.009 C 
HETATM   22  C   UNK N   1      24.893  13.695   8.114  0.00  0.00     0.019 C 
HETATM   23  C   UNK N   1      24.374  12.632   9.098  0.00  0.00    -0.013 C 
HETATM   24  C   UNK N   1      23.971  11.370   8.318  0.00  0.00     0.009 C 
HETATM   25  C   UNK N   1      23.147  13.173   9.848  0.00  0.00     0.009 C 
HETATM   26  C   UNK N   1      22.874  11.708   7.297  0.00  0.00    -0.013 C 
HETATM   27  C   UNK N   1      23.406  12.773   6.310  0.00  0.00     0.019 C 
HETATM   28  C   UNK N   1      21.644  12.243   8.055  0.00  0.00     0.009 C 
HETATM   29  C   UNK N   1      22.027  13.492   8.852  0.00  0.00    -0.013 C 
HETATM   30  C   UNK N   1      22.542  14.529   7.872  0.00  0.00     0.019 C 
ENDBRANCH   1  21
BRANCH   2  31
HETATM   31  O   UNK N   1      22.319  15.377   4.822  0.00  0.00    -0.355 OA
HETATM   32  C   UNK N   1      21.258  16.252   4.763  0.00  0.00     0.210 C 
ENDBRANCH   2  31
TORSDOF 5
ENDMDL
MODEL 4
REMARK VINA RESULT:      -8.1      6.702     12.307
REMARK  5 active torsions:
REMARK  status: ('A' for Active; 'I' for Inactive)
REMARK    1  A    between atoms: O_1  and  C_15 
REMARK    2  A    between atoms: O_2  and  C_31 
REMARK    3  A    between atoms: C_4  and  C_14 
REMARK    4  A    between atoms: C_17  and  C_20 
REMARK    5  A    between atoms: C_30  and  C_31 
ROOT
HETATM    1  C   UNK N   1      34.594  14.127   8.160  0.00  0.00    -0.015 A 
HETATM    2  C   UNK N   1      35.079  13.133   7.280  0.00  0.00     0.075 A 
HETATM    3  C   UNK N   1      34.850  13.966   9.491  0.00  0.00     0.023 A 
HETATM    4  C   UNK N   1      35.514  12.919  10.073  0.00  0.00    -0.025 A 
HETATM    5  C   UNK N   1      35.792  12.022   7.830  0.00  0.00     0.038 A 
HETATM    6  C   UNK N   1      35.999  11.905   9.232  0.00  0.00     0.015 A 
ENDROOT
BRANCH   4   7
HETATM    7  C   UNK N   1      35.556  12.997  11.561  0.00  0.00    -0.025 A 
HETATM    8  C   UNK N   1      34.934  12.103  12.453  0.00  0.00     0.024 A 
HETATM    9  C   UNK N   1      35.004  12.367  13.845  0.00  0.00    -0.025 A 
HETATM   10  C   UNK N   1      35.695  13.516  14.311  0.00  0.00    -0.025 A 
HETATM   11  C   UNK N   1      34.399  11.524  14.785  0.00  0.00     0.013 A 
HETATM   12  C   UNK N   1      36.305  14.375  13.433  0.00  0.00     0.013 A 
HETATM   13  C   UNK N   1      35.778  13.801  15.660  0.00  0.00     0.030 A 
HETATM   14  C   UNK N   1      36.231  14.120  12.091  0.00  0.00     0.013 A 
HETATM   15  C   UNK N   1      35.186  12.969  16.596  0.00  0.00     0.038 A 
HETATM   16  C   UNK N   1      34.490  11.823  16.158  0.00  0.00     0.019 A 
BRANCH  15  17
HETATM   17  C   UNK N   1      35.312  13.301  18.026  0.00  0.00     0.176 C 
HETATM   18  O   UNK N   1      35.313  12.404  18.865  0.00  0.00    -0.646 OA
BRANCH  17  19
HETATM   19  O   UNK N   1      35.417  14.577  18.427  0.00  0.00    -0.773 OA
HETATM   20  H   UNK N   1      35.631  14.774  19.318  0.00  0.00     0.167 HD
ENDBRANCH  17  19
ENDBRANCH  15  17
ENDBRANCH   4   7
BRANCH   1  21
HETATM   21  C   UNK N   1      33.744  15.350   7.803  0.00  0.00    -0.009 C 
HETATM   22  C   UNK N   1      33.406  16.148   9.074  0.00  0.00     0.019 C 
HETATM   23  C   UNK N   1      32.631  17.427   8.711  0.00  0.00    -0.013 C 
HETATM   24  C   UNK N   1      31.338  17.046   7.974  0.00  0.00     0.009 C 
HETATM   25  C   UNK N   1      33.490  18.313   7.795  0.00  0.00     0.009 C 
HETATM   26  C   UNK N   1      31.670  16.263   6.694  0.00  0.00    -0.013 C 
HETATM   27  C   UNK N   1      32.444  14.978   7.070  0.00  0.00     0.019 C 
HETATM   28  C   UNK N   1      32.524  17.157   5.777  0.00  0.00     0.009 C 
HETATM   29  C   UNK N   1      33.812  17.562   6.498  0.00  0.00    -0.013 C 
HETATM   30  C   UNK N   1      34.563  16.294   6.856  0.00  0.00     0.019 C 
ENDBRANCH   1  21
BRANCH   2  31
HETATM   31  O   UNK N   1      34.832  13.234   5.950  0.00  0.00    -0.355 OA
HETATM   32  C   UNK N   1      35.806  13.084   4.989  0.00  0.00     0.210 C 
ENDBRANCH   2  31
TORSDOF 5
ENDMDL
MODEL 5
REMARK VINA RESULT:      -8.0     10.815     14.885
REMARK  5 active torsions:
REMARK  status: ('A' for Active; 'I' for Inactive)
REMARK    1  A    between atoms: O_1  and  C_15 
REMARK    2  A    between atoms: O_2  and  C_31 
REMARK    3  A    between atoms: C_4  and  C_14 
REMARK    4  A    between atoms: C_17  and  C_20 
REMARK    5  A    between atoms: C_30  and  C_31 
ROOT
HETATM    1  C   UNK N   1      27.535  26.095  -5.842  0.00  0.00    -0.015 A 
HETATM    2  C   UNK N   1      26.245  25.856  -6.367  0.00  0.00     0.075 A 
HETATM    3  C   UNK N   1      28.357  25.017  -5.682  0.00  0.00     0.023 A 
HETATM    4  C   UNK N   1      28.052  23.711  -5.960  0.00  0.00    -0.025 A 
HETATM    5  C   UNK N   1      25.875  24.513  -6.688  0.00  0.00     0.038 A 
HETATM    6  C   UNK N   1      26.775  23.433  -6.472  0.00  0.00     0.015 A 
ENDROOT
BRANCH   4   7
HETATM    7  C   UNK N   1      29.140  22.759  -5.599  0.00  0.00    -0.025 A 
HETATM    8  C   UNK N   1      30.079  22.931  -4.563  0.00  0.00     0.024 A 
HETATM    9  C   UNK N   1      31.104  21.964  -4.402  0.00  0.00    -0.025 A 
HETATM   10  C   UNK N   1      31.166  20.849  -5.277  0.00  0.00    -0.025 A 
HETATM   11  C   UNK N   1      32.075  22.082  -3.399  0.00  0.00     0.013 A 
HETATM   12  C   UNK N   1      30.241  20.687  -6.277  0.00  0.00     0.013 A 
HETATM   13  C   UNK N   1      32.155  19.893  -5.148  0.00  0.00     0.030 A 
HETATM   14  C   UNK N   1      29.256  21.623  -6.432  0.00  0.00     0.013 A 
HETATM   15  C   UNK N   1      33.114  19.999  -4.155  0.00  0.00     0.038 A 
HETATM   16  C   UNK N   1      33.078  21.101  -3.274  0.00  0.00     0.019 A 
BRANCH  15  17
HETATM   17  C   UNK N   1      34.142  18.949  -4.041  0.00  0.00     0.176 C 
HETATM   18  O   UNK N   1      35.296  19.182  -4.388  0.00  0.00    -0.646 OA
BRANCH  17  19
HETATM   19  O   UNK N   1      33.828  17.732  -3.570  0.00  0.00    -0.773 OA
HETATM   20  H   UNK N   1      34.131  16.964  -4.013  0.00  0.00     0.167 HD
ENDBRANCH  17  19
ENDBRANCH  15  17
ENDBRANCH   4   7
BRANCH   1  21
HETATM   21  C   UNK N   1      28.110  27.429  -5.357  0.00  0.00    -0.009 C 
HETATM   22  C   UNK N   1      27.785  28.543  -6.369  0.00  0.00     0.019 C 
HETATM   23  C   UNK N   1      28.279  29.902  -5.843  0.00  0.00    -0.013 C 
HETATM   24  C   UNK N   1      29.797  29.835  -5.607  0.00  0.00     0.009 C 
HETATM   25  C   UNK N   1      27.578  30.231  -4.516  0.00  0.00     0.009 C 
HETATM   26  C   UNK N   1      30.125  28.736  -4.584  0.00  0.00    -0.013 C 
HETATM   27  C   UNK N   1      29.629  27.374  -5.124  0.00  0.00     0.019 C 
HETATM   28  C   UNK N   1      29.426  29.076  -3.255  0.00  0.00     0.009 C 
HETATM   29  C   UNK N   1      27.912  29.162  -3.470  0.00  0.00    -0.013 C 
HETATM   30  C   UNK N   1      27.440  27.820  -3.994  0.00  0.00     0.019 C 
ENDBRANCH   1  21
BRANCH   2  31
HETATM   31  O   UNK N   1      25.381  26.890  -6.523  0.00  0.00    -0.355 OA
HETATM   32  C   UNK N   1      24.400  27.198  -5.608  0.00  0.00     0.210 C 
ENDBRANCH   2  31
TORSDOF 5
ENDMDL
MODEL 6
REMARK VINA RESULT:      -7.9     10.377     14.462
REMARK  5 active torsions:
REMARK  status: ('A' for Active; 'I' for Inactive)
REMARK    1  A    between atoms: O_1  and  C_15 
REMARK    2  A    between atoms: O_2  and  C_31 
REMARK    3  A    between atoms: C_4  and  C_14 
REMARK    4  A    between atoms: C_17  and  C_20 
REMARK    5  A    between atoms: C_30  and  C_31 
ROOT
HETATM    1  C   UNK N   1      27.411  26.530  -4.433  0.00  0.00    -0.015 A 
HETATM    2  C   UNK N   1      26.049  26.228  -4.657  0.00  0.00     0.075 A 
HETATM    3  C   UNK N   1      28.294  25.490  -4.444  0.00  0.00     0.023 A 
HETATM    4  C   UNK N   1      27.993  24.166  -4.628  0.00  0.00    -0.025 A 
HETATM    5  C   UNK N   1      25.676  24.864  -4.869  0.00  0.00     0.038 A 
HETATM    6  C   UNK N   1      26.648  23.826  -4.840  0.00  0.00     0.015 A 
ENDROOT
BRANCH   4   7
HETATM    7  C   UNK N   1      29.174  23.266  -4.502  0.00  0.00    -0.025 A 
HETATM    8  C   UNK N   1      29.684  22.424  -5.510  0.00  0.00     0.024 A 
HETATM    9  C   UNK N   1      30.771  21.568  -5.200  0.00  0.00    -0.025 A 
HETATM   10  C   UNK N   1      31.324  21.575  -3.893  0.00  0.00    -0.025 A 
HETATM   11  C   UNK N   1      31.318  20.698  -6.152  0.00  0.00     0.013 A 
HETATM   12  C   UNK N   1      30.825  22.405  -2.922  0.00  0.00     0.013 A 
HETATM   13  C   UNK N   1      32.381  20.750  -3.560  0.00  0.00     0.030 A 
HETATM   14  C   UNK N   1      29.774  23.227  -3.223  0.00  0.00     0.013 A 
HETATM   15  C   UNK N   1      32.930  19.892  -4.498  0.00  0.00     0.038 A 
HETATM   16  C   UNK N   1      32.396  19.862  -5.803  0.00  0.00     0.019 A 
BRANCH  15  17
HETATM   17  C   UNK N   1      34.068  19.041  -4.106  0.00  0.00     0.176 C 
HETATM   18  O   UNK N   1      35.217  19.433  -4.290  0.00  0.00    -0.646 OA
BRANCH  17  19
HETATM   19  O   UNK N   1      33.863  17.832  -3.559  0.00  0.00    -0.773 OA
HETATM   20  H   UNK N   1      34.459  17.131  -3.733  0.00  0.00     0.167 HD
ENDBRANCH  17  19
ENDBRANCH  15  17
ENDBRANCH   4   7
BRANCH   1  21
HETATM   21  C   UNK N   1      28.019  27.897  -4.107  0.00  0.00    -0.009 C 
HETATM   22  C   UNK N   1      27.303  28.519  -2.896  0.00  0.00     0.019 C 
HETATM   23  C   UNK N   1      27.970  29.850  -2.506  0.00  0.00    -0.013 C 
HETATM   24  C   UNK N   1      27.912  30.816  -3.701  0.00  0.00     0.009 C 
HETATM   25  C   UNK N   1      29.439  29.604  -2.129  0.00  0.00     0.009 C 
HETATM   26  C   UNK N   1      28.641  30.207  -4.909  0.00  0.00    -0.013 C 
HETATM   27  C   UNK N   1      27.960  28.873  -5.295  0.00  0.00     0.019 C 
HETATM   28  C   UNK N   1      30.114  29.970  -4.527  0.00  0.00     0.009 C 
HETATM   29  C   UNK N   1      30.194  29.021  -3.328  0.00  0.00    -0.013 C 
HETATM   30  C   UNK N   1      29.528  27.717  -3.722  0.00  0.00     0.019 C 
ENDBRANCH   1  21
BRANCH   2  31
HETATM   31  O   UNK N   1      25.127  27.223  -4.634  0.00  0.00    -0.355 OA
HETATM   32  C   UNK N   1      24.265  27.478  -5.676  0.00  0.00     0.210 C 
ENDBRANCH   2  31
TORSDOF 5
ENDMDL
MODEL 7
REMARK VINA RESULT:      -7.8     13.565     18.156
REMARK  5 active torsions:
REMARK  status: ('A' for Active; 'I' for Inactive)
REMARK    1  A    between atoms: O_1  and  C_15 
REMARK    2  A    between atoms: O_2  and  C_31 
REMARK    3  A    between atoms: C_4  and  C_14 
REMARK    4  A    between atoms: C_17  and  C_20 
REMARK    5  A    between atoms: C_30  and  C_31 
ROOT
HETATM    1  C   UNK N   1      34.873   8.604  20.959  0.00  0.00    -0.015 A 
HETATM    2  C   UNK N   1      35.802   8.790  22.007  0.00  0.00     0.075 A 
HETATM    3  C   UNK N   1      35.048   9.345  19.827  0.00  0.00     0.023 A 
HETATM    4  C   UNK N   1      36.026  10.279  19.606  0.00  0.00    -0.025 A 
HETATM    5  C   UNK N   1      36.854   9.742  21.829  0.00  0.00     0.038 A 
HETATM    6  C   UNK N   1      36.960  10.501  20.630  0.00  0.00     0.015 A 
ENDROOT
BRANCH   4   7
HETATM    7  C   UNK N   1      35.894  10.977  18.296  0.00  0.00    -0.025 A 
HETATM    8  C   UNK N   1      36.436  10.545  17.070  0.00  0.00     0.024 A 
HETATM    9  C   UNK N   1      36.287  11.371  15.927  0.00  0.00    -0.025 A 
HETATM   10  C   UNK N   1      35.597  12.607  16.035  0.00  0.00    -0.025 A 
HETATM   11  C   UNK N   1      36.812  11.005  14.681  0.00  0.00     0.013 A 
HETATM   12  C   UNK N   1      35.065  13.013  17.232  0.00  0.00     0.013 A 
HETATM   13  C   UNK N   1      35.437  13.434  14.941  0.00  0.00     0.030 A 
HETATM   14  C   UNK N   1      35.215  12.216  18.334  0.00  0.00     0.013 A 
HETATM   15  C   UNK N   1      35.948  13.076  13.705  0.00  0.00     0.038 A 
HETATM   16  C   UNK N   1      36.642  11.855  13.571  0.00  0.00     0.019 A 
BRANCH  15  17
HETATM   17  C   UNK N   1      35.742  13.980  12.559  0.00  0.00     0.176 C 
HETATM   18  O   UNK N   1      34.608  14.176  12.131  0.00  0.00    -0.646 OA
BRANCH  17  19
HETATM   19  O   UNK N   1      36.783  14.586  11.967  0.00  0.00    -0.773 OA
HETATM   20  H   UNK N   1      36.640  15.173  11.252  0.00  0.00     0.167 HD
ENDBRANCH  17  19
ENDBRANCH  15  17
ENDBRANCH   4   7
BRANCH   1  21
HETATM   21  C   UNK N   1      33.634   7.704  20.964  0.00  0.00    -0.009 C 
HETATM   22  C   UNK N   1      32.574   8.271  21.925  0.00  0.00     0.019 C 
HETATM   23  C   UNK N   1      31.291   7.423  21.864  0.00  0.00    -0.013 C 
HETATM   24  C   UNK N   1      31.622   5.971  22.247  0.00  0.00     0.009 C 
HETATM   25  C   UNK N   1      30.718   7.448  20.439  0.00  0.00     0.009 C 
HETATM   26  C   UNK N   1      32.668   5.395  21.280  0.00  0.00    -0.013 C 
HETATM   27  C   UNK N   1      33.954   6.251  21.352  0.00  0.00     0.019 C 
HETATM   28  C   UNK N   1      32.086   5.417  19.855  0.00  0.00     0.009 C 
HETATM   29  C   UNK N   1      31.734   6.853  19.458  0.00  0.00    -0.013 C 
HETATM   30  C   UNK N   1      33.004   7.678  19.528  0.00  0.00     0.019 C 
ENDBRANCH   1  21
BRANCH   2  31
HETATM   31  O   UNK N   1      35.660   8.093  23.163  0.00  0.00    -0.355 OA
HETATM   32  C   UNK N   1      35.465   8.693  24.386  0.00  0.00     0.210 C 
ENDBRANCH   2  31
TORSDOF 5
ENDMDL
MODEL 8
REMARK VINA RESULT:      -7.8     10.977     15.082
REMARK  5 active torsions:
REMARK  status: ('A' for Active; 'I' for Inactive)
REMARK    1  A    between atoms: O_1  and  C_15 
REMARK    2  A    between atoms: O_2  and  C_31 
REMARK    3  A    between atoms: C_4  and  C_14 
REMARK    4  A    between atoms: C_17  and  C_20 
REMARK    5  A    between atoms: C_30  and  C_31 
ROOT
HETATM    1  C   UNK N   1      26.753  24.589  -6.540  0.00  0.00    -0.015 A 
HETATM    2  C   UNK N   1      25.972  25.189  -5.527  0.00  0.00     0.075 A 
HETATM    3  C   UNK N   1      27.763  23.759  -6.147  0.00  0.00     0.023 A 
HETATM    4  C   UNK N   1      28.117  23.461  -4.857  0.00  0.00    -0.025 A 
HETATM    5  C   UNK N   1      26.288  24.904  -4.162  0.00  0.00     0.038 A 
HETATM    6  C   UNK N   1      27.373  24.049  -3.822  0.00  0.00     0.015 A 
ENDROOT
BRANCH   4   7
HETATM    7  C   UNK N   1      29.319  22.585  -4.761  0.00  0.00    -0.025 A 
HETATM    8  C   UNK N   1      30.251  22.572  -3.705  0.00  0.00     0.024 A 
HETATM    9  C   UNK N   1      31.388  21.731  -3.807  0.00  0.00    -0.025 A 
HETATM   10  C   UNK N   1      31.565  20.920  -4.958  0.00  0.00    -0.025 A 
HETATM   11  C   UNK N   1      32.358  21.680  -2.798  0.00  0.00     0.013 A 
HETATM   12  C   UNK N   1      30.646  20.933  -5.976  0.00  0.00     0.013 A 
HETATM   13  C   UNK N   1      32.664  20.093  -5.087  0.00  0.00     0.030 A 
HETATM   14  C   UNK N   1      29.553  21.750  -5.877  0.00  0.00     0.013 A 
HETATM   15  C   UNK N   1      33.623  20.033  -4.091  0.00  0.00     0.038 A 
HETATM   16  C   UNK N   1      33.474  20.832  -2.938  0.00  0.00     0.019 A 
BRANCH  15  17
HETATM   17  C   UNK N   1      34.772  19.124  -4.261  0.00  0.00     0.176 C 
HETATM   18  O   UNK N   1      34.635  17.921  -4.059  0.00  0.00    -0.646 OA
BRANCH  17  19
HETATM   19  O   UNK N   1      35.973  19.599  -4.626  0.00  0.00    -0.773 OA
HETATM   20  H   UNK N   1      36.660  19.676  -3.993  0.00  0.00     0.167 HD
ENDBRANCH  17  19
ENDBRANCH  15  17
ENDBRANCH   4   7
BRANCH   1  21
HETATM   21  C   UNK N   1      26.646  24.813  -8.051  0.00  0.00    -0.009 C 
HETATM   22  C   UNK N   1      26.891  26.296  -8.385  0.00  0.00     0.019 C 
HETATM   23  C   UNK N   1      26.876  26.510  -9.909  0.00  0.00    -0.013 C 
HETATM   24  C   UNK N   1      25.517  26.064 -10.472  0.00  0.00     0.009 C 
HETATM   25  C   UNK N   1      27.989  25.675 -10.561  0.00  0.00     0.009 C 
HETATM   26  C   UNK N   1      25.275  24.579 -10.157  0.00  0.00    -0.013 C 
HETATM   27  C   UNK N   1      25.287  24.376  -8.623  0.00  0.00     0.019 C 
HETATM   28  C   UNK N   1      26.389  23.748 -10.819  0.00  0.00     0.009 C 
HETATM   29  C   UNK N   1      27.754  24.186 -10.283  0.00  0.00    -0.013 C 
HETATM   30  C   UNK N   1      27.753  23.977  -8.781  0.00  0.00     0.019 C 
ENDBRANCH   1  21
BRANCH   2  31
HETATM   31  O   UNK N   1      24.971  26.040  -5.864  0.00  0.00    -0.355 OA
HETATM   32  C   UNK N   1      24.875  27.323  -5.374  0.00  0.00     0.210 C 
ENDBRANCH   2  31
TORSDOF 5
ENDMDL
MODEL 9
REMARK VINA RESULT:      -7.8      3.705      6.498
REMARK  5 active torsions:
REMARK  status: ('A' for Active; 'I' for Inactive)
REMARK    1  A    between atoms: O_1  and  C_15 
REMARK    2  A    between atoms: O_2  and  C_31 
REMARK    3  A    between atoms: C_4  and  C_14 
REMARK    4  A    between atoms: C_17  and  C_20 
REMARK    5  A    between atoms: C_30  and  C_31 
ROOT
HETATM    1  C   UNK N   1      33.776  13.760   7.854  0.00  0.00    -0.015 A 
HETATM    2  C   UNK N   1      33.998  12.842   6.803  0.00  0.00     0.075 A 
HETATM    3  C   UNK N   1      32.736  14.633   7.716  0.00  0.00     0.023 A 
HETATM    4  C   UNK N   1      31.889  14.729   6.644  0.00  0.00    -0.025 A 
HETATM    5  C   UNK N   1      33.136  12.886   5.663  0.00  0.00     0.038 A 
HETATM    6  C   UNK N   1      32.086  13.841   5.574  0.00  0.00     0.015 A 
ENDROOT
BRANCH   4   7
HETATM    7  C   UNK N   1      30.905  15.842   6.764  0.00  0.00    -0.025 A 
HETATM    8  C   UNK N   1      30.112  16.360   5.722  0.00  0.00     0.024 A 
HETATM    9  C   UNK N   1      29.282  17.479   5.987  0.00  0.00    -0.025 A 
HETATM   10  C   UNK N   1      29.262  18.052   7.286  0.00  0.00    -0.025 A 
HETATM   11  C   UNK N   1      28.477  18.050   4.993  0.00  0.00     0.013 A 
HETATM   12  C   UNK N   1      30.032  17.532   8.295  0.00  0.00     0.013 A 
HETATM   13  C   UNK N   1      28.466  19.143   7.573  0.00  0.00     0.030 A 
HETATM   14  C   UNK N   1      30.835  16.456   8.035  0.00  0.00     0.013 A 
HETATM   15  C   UNK N   1      27.664  19.709   6.597  0.00  0.00     0.038 A 
HETATM   16  C   UNK N   1      27.668  19.162   5.297  0.00  0.00     0.019 A 
BRANCH  15  17
HETATM   17  C   UNK N   1      26.817  20.863   6.950  0.00  0.00     0.176 C 
HETATM   18  O   UNK N   1      26.834  21.871   6.249  0.00  0.00    -0.646 OA
BRANCH  17  19
HETATM   19  O   UNK N   1      26.032  20.830   8.038  0.00  0.00    -0.773 OA
HETATM   20  H   UNK N   1      25.634  21.617   8.355  0.00  0.00     0.167 HD
ENDBRANCH  17  19
ENDBRANCH  15  17
ENDBRANCH   4   7
BRANCH   1  21
HETATM   21  C   UNK N   1      34.617  13.944   9.121  0.00  0.00    -0.009 C 
HETATM   22  C   UNK N   1      36.015  14.473   8.755  0.00  0.00     0.019 C 
HETATM   23  C   UNK N   1      36.832  14.747  10.030  0.00  0.00    -0.013 C 
HETATM   24  C   UNK N   1      36.960  13.447  10.841  0.00  0.00     0.009 C 
HETATM   25  C   UNK N   1      36.120  15.805  10.887  0.00  0.00     0.009 C 
HETATM   26  C   UNK N   1      35.568  12.923  11.223  0.00  0.00    -0.013 C 
HETATM   27  C   UNK N   1      34.757  12.646   9.936  0.00  0.00     0.019 C 
HETATM   28  C   UNK N   1      34.862  13.984  12.087  0.00  0.00     0.009 C 
HETATM   29  C   UNK N   1      34.736  15.294  11.304  0.00  0.00    -0.013 C 
HETATM   30  C   UNK N   1      33.936  15.009  10.048  0.00  0.00     0.019 C 
ENDBRANCH   1  21
BRANCH   2  31
HETATM   31  O   UNK N   1      35.032  11.968   6.880  0.00  0.00    -0.355 OA
HETATM   32  C   UNK N   1      35.836  11.653   5.808  0.00  0.00     0.210 C 
ENDBRANCH   2  31
TORSDOF 5
ENDMDL
