MODEL 1
REMARK VINA RESULT:      -6.2      0.000      0.000
REMARK  8 active torsions:
REMARK  status: ('A' for Active; 'I' for Inactive)
REMARK    1  A    between atoms: O_1  and  C_7 
REMARK    2  A    between atoms: O_2  and  C_10 
REMARK    3  A    between atoms: O_3  and  C_12 
REMARK    4  A    between atoms: N_5  and  C_9 
REMARK       I    between atoms: N_5  and  C_15 
REMARK    5  A    between atoms: N_6  and  C_16 
REMARK    6  A    between atoms: C_7  and  C_8 
REMARK    7  A    between atoms: C_7  and  C_9 
REMARK    8  A    between atoms: C_15  and  C_16 
ROOT
HETATM    1  C   UNK N   1      26.976  24.113  -3.883  0.00  0.00     0.171 C 
ENDROOT
BRANCH   1   2
HETATM    2  O   UNK N   1      26.717  23.840  -2.539  0.00  0.00    -0.389 OA
HETATM    3  H   UNK N   1      26.557  23.993  -1.595  0.00  0.00     0.210 HD
ENDBRANCH   1   2
BRANCH   1   4
HETATM    4  C   UNK N   1      26.333  25.420  -4.285  0.00  0.00     0.008 A 
HETATM    5  C   UNK N   1      25.526  25.565  -5.455  0.00  0.00     0.077 A 
HETATM    6  C   UNK N   1      24.964  26.817  -5.736  0.00  0.00     0.040 A 
HETATM    7  C   UNK N   1      25.182  27.911  -4.899  0.00  0.00     0.039 A 
HETATM    8  C   UNK N   1      25.968  27.773  -3.748  0.00  0.00     0.069 A 
HETATM    9  C   UNK N   1      26.526  26.533  -3.451  0.00  0.00     0.049 A 
BRANCH   5  10
HETATM   10  O   UNK N   1      25.251  24.558  -6.329  0.00  0.00    -0.355 OA
HETATM   11  C   UNK N   1      25.890  24.315  -7.521  0.00  0.00     0.210 C 
ENDBRANCH   5  10
BRANCH   8  12
HETATM   12  O   UNK N   1      26.209  28.815  -2.917  0.00  0.00    -0.356 OA
HETATM   13  C   UNK N   1      27.472  29.290  -2.648  0.00  0.00     0.210 C 
ENDBRANCH   8  12
ENDBRANCH   1   4
BRANCH   1  14
HETATM   14  C   UNK N   1      28.485  24.023  -4.160  0.00  0.00     0.159 C 
BRANCH  14  15
HETATM   15  N   UNK N   1      29.251  23.858  -2.945  0.00  0.00    -0.357 N 
HETATM   16  C   UNK N   1      30.273  22.976  -2.812  0.00  0.00     0.234 C 
HETATM   17  O   UNK N   1      30.857  22.898  -1.745  0.00  0.00    -0.272 OA
HETATM   18  H   UNK N   1      29.018  24.417  -2.169  0.00  0.00     0.162 HD
BRANCH  16  19
HETATM   19  C   UNK N   1      30.679  22.076  -3.940  0.00  0.00     0.214 C 
BRANCH  19  20
HETATM   20  N   UNK N   1      30.943  20.739  -3.435  0.00  0.00    -0.422 N 
HETATM   21  H   UNK N   1      30.391  19.903  -3.628  0.00  0.00     0.150 HD
HETATM   22  H   UNK N   1      31.757  20.627  -2.830  0.00  0.00     0.150 HD
ENDBRANCH  19  20
ENDBRANCH  16  19
ENDBRANCH  14  15
ENDBRANCH   1  14
TORSDOF 8
ENDMDL
MODEL 2
REMARK VINA RESULT:      -5.5     12.576     15.781
REMARK  8 active torsions:
REMARK  status: ('A' for Active; 'I' for Inactive)
REMARK    1  A    between atoms: O_1  and  C_7 
REMARK    2  A    between atoms: O_2  and  C_10 
REMARK    3  A    between atoms: O_3  and  C_12 
REMARK    4  A    between atoms: N_5  and  C_9 
REMARK       I    between atoms: N_5  and  C_15 
REMARK    5  A    between atoms: N_6  and  C_16 
REMARK    6  A    between atoms: C_7  and  C_8 
REMARK    7  A    between atoms: C_7  and  C_9 
REMARK    8  A    between atoms: C_15  and  C_16 
ROOT
HETATM    1  C   UNK N   1      33.468  17.866   7.462  0.00  0.00     0.171 C 
ENDROOT
BRANCH   1   2
HETATM    2  O   UNK N   1      34.720  18.468   7.338  0.00  0.00    -0.389 OA
HETATM    3  H   UNK N   1      35.616  18.643   7.011  0.00  0.00     0.210 HD
ENDBRANCH   1   2
BRANCH   1   4
HETATM    4  C   UNK N   1      33.115  17.125   6.193  0.00  0.00     0.008 A 
HETATM    5  C   UNK N   1      34.026  16.257   5.517  0.00  0.00     0.077 A 
HETATM    6  C   UNK N   1      33.600  15.605   4.353  0.00  0.00     0.040 A 
HETATM    7  C   UNK N   1      32.312  15.792   3.850  0.00  0.00     0.039 A 
HETATM    8  C   UNK N   1      31.413  16.637   4.512  0.00  0.00     0.069 A 
HETATM    9  C   UNK N   1      31.819  17.286   5.675  0.00  0.00     0.049 A 
BRANCH   5  10
HETATM   10  O   UNK N   1      35.298  16.006   5.930  0.00  0.00    -0.355 OA
HETATM   11  C   UNK N   1      35.761  14.837   6.485  0.00  0.00     0.210 C 
ENDBRANCH   5  10
BRANCH   8  12
HETATM   12  O   UNK N   1      30.158  16.851   4.049  0.00  0.00    -0.356 OA
HETATM   13  C   UNK N   1      29.692  16.332   2.863  0.00  0.00     0.210 C 
ENDBRANCH   8  12
ENDBRANCH   1   4
BRANCH   1  14
HETATM   14  C   UNK N   1      33.413  17.015   8.741  0.00  0.00     0.159 C 
BRANCH  14  15
HETATM   15  N   UNK N   1      34.547  17.259   9.604  0.00  0.00    -0.357 N 
HETATM   16  C   UNK N   1      35.265  16.276  10.202  0.00  0.00     0.234 C 
HETATM   17  O   UNK N   1      36.201  16.576  10.923  0.00  0.00    -0.272 OA
HETATM   18  H   UNK N   1      34.814  18.193   9.768  0.00  0.00     0.162 HD
BRANCH  16  19
HETATM   19  C   UNK N   1      34.914  14.831  10.018  0.00  0.00     0.214 C 
BRANCH  19  20
HETATM   20  N   UNK N   1      34.099  14.374  11.132  0.00  0.00    -0.422 N 
HETATM   21  H   UNK N   1      34.194  14.665  12.105  0.00  0.00     0.150 HD
HETATM   22  H   UNK N   1      33.364  13.699  10.921  0.00  0.00     0.150 HD
ENDBRANCH  19  20
ENDBRANCH  16  19
ENDBRANCH  14  15
ENDBRANCH   1  14
TORSDOF 8
ENDMDL
MODEL 3
REMARK VINA RESULT:      -5.5     17.339     21.226
REMARK  8 active torsions:
REMARK  status: ('A' for Active; 'I' for Inactive)
REMARK    1  A    between atoms: O_1  and  C_7 
REMARK    2  A    between atoms: O_2  and  C_10 
REMARK    3  A    between atoms: O_3  and  C_12 
REMARK    4  A    between atoms: N_5  and  C_9 
REMARK       I    between atoms: N_5  and  C_15 
REMARK    5  A    between atoms: N_6  and  C_16 
REMARK    6  A    between atoms: C_7  and  C_8 
REMARK    7  A    between atoms: C_7  and  C_9 
REMARK    8  A    between atoms: C_15  and  C_16 
ROOT
HETATM    1  C   UNK N   1      36.240  15.037  10.587  0.00  0.00     0.171 C 
ENDROOT
BRANCH   1   2
HETATM    2  O   UNK N   1      37.434  15.760  10.583  0.00  0.00    -0.389 OA
HETATM    3  H   UNK N   1      38.137  16.355  10.886  0.00  0.00     0.210 HD
ENDBRANCH   1   2
BRANCH   1   4
HETATM    4  C   UNK N   1      36.344  13.859  11.528  0.00  0.00     0.008 A 
HETATM    5  C   UNK N   1      37.466  12.974  11.549  0.00  0.00     0.077 A 
HETATM    6  C   UNK N   1      37.474  11.917  12.468  0.00  0.00     0.040 A 
HETATM    7  C   UNK N   1      36.412  11.718  13.351  0.00  0.00     0.039 A 
HETATM    8  C   UNK N   1      35.313  12.586  13.337  0.00  0.00     0.069 A 
HETATM    9  C   UNK N   1      35.294  13.646  12.435  0.00  0.00     0.049 A 
BRANCH   5  10
HETATM   10  O   UNK N   1      38.550  13.088  10.734  0.00  0.00    -0.355 OA
HETATM   11  C   UNK N   1      38.828  12.315   9.632  0.00  0.00     0.210 C 
ENDBRANCH   5  10
BRANCH   8  12
HETATM   12  O   UNK N   1      34.259  12.419  14.172  0.00  0.00    -0.356 OA
HETATM   13  C   UNK N   1      33.915  11.204  14.720  0.00  0.00     0.210 C 
ENDBRANCH   8  12
ENDBRANCH   1   4
BRANCH   1  14
HETATM   14  C   UNK N   1      35.054  15.976  10.858  0.00  0.00     0.159 C 
BRANCH  14  15
HETATM   15  N   UNK N   1      35.175  17.226  10.141  0.00  0.00    -0.357 N 
HETATM   16  C   UNK N   1      34.439  17.541   9.047  0.00  0.00     0.234 C 
HETATM   17  O   UNK N   1      34.617  18.616   8.500  0.00  0.00    -0.272 OA
HETATM   18  H   UNK N   1      35.830  17.885  10.466  0.00  0.00     0.162 HD
BRANCH  16  19
HETATM   19  C   UNK N   1      33.435  16.585   8.479  0.00  0.00     0.214 C 
BRANCH  19  20
HETATM   20  N   UNK N   1      32.098  16.961   8.905  0.00  0.00    -0.422 N 
HETATM   21  H   UNK N   1      31.225  16.704   8.443  0.00  0.00     0.150 HD
HETATM   22  H   UNK N   1      32.025  17.535   9.745  0.00  0.00     0.150 HD
ENDBRANCH  19  20
ENDBRANCH  16  19
ENDBRANCH  14  15
ENDBRANCH   1  14
TORSDOF 8
ENDMDL
MODEL 4
REMARK VINA RESULT:      -5.5     11.071     13.461
REMARK  8 active torsions:
REMARK  status: ('A' for Active; 'I' for Inactive)
REMARK    1  A    between atoms: O_1  and  C_7 
REMARK    2  A    between atoms: O_2  and  C_10 
REMARK    3  A    between atoms: O_3  and  C_12 
REMARK    4  A    between atoms: N_5  and  C_9 
REMARK       I    between atoms: N_5  and  C_15 
REMARK    5  A    between atoms: N_6  and  C_16 
REMARK    6  A    between atoms: C_7  and  C_8 
REMARK    7  A    between atoms: C_7  and  C_9 
REMARK    8  A    between atoms: C_15  and  C_16 
ROOT
HETATM    1  C   UNK N   1      29.629  16.696   6.817  0.00  0.00     0.171 C 
ENDROOT
BRANCH   1   2
HETATM    2  O   UNK N   1      28.868  15.730   6.157  0.00  0.00    -0.389 OA
HETATM    3  H   UNK N   1      28.590  14.862   5.827  0.00  0.00     0.210 HD
ENDBRANCH   1   2
BRANCH   1   4
HETATM    4  C   UNK N   1      30.861  17.033   6.009  0.00  0.00     0.008 A 
HETATM    5  C   UNK N   1      30.841  17.204   4.591  0.00  0.00     0.077 A 
HETATM    6  C   UNK N   1      32.035  17.529   3.933  0.00  0.00     0.040 A 
HETATM    7  C   UNK N   1      33.229  17.684   4.638  0.00  0.00     0.039 A 
HETATM    8  C   UNK N   1      33.253  17.524   6.029  0.00  0.00     0.069 A 
HETATM    9  C   UNK N   1      32.073  17.209   6.697  0.00  0.00     0.049 A 
BRANCH   5  10
HETATM   10  O   UNK N   1      29.729  17.079   3.817  0.00  0.00    -0.355 OA
HETATM   11  C   UNK N   1      29.576  16.246   2.735  0.00  0.00     0.210 C 
ENDBRANCH   5  10
BRANCH   8  12
HETATM   12  O   UNK N   1      34.394  17.657   6.745  0.00  0.00    -0.356 OA
HETATM   13  C   UNK N   1      34.437  18.219   8.001  0.00  0.00     0.210 C 
ENDBRANCH   8  12
ENDBRANCH   1   4
BRANCH   1  14
HETATM   14  C   UNK N   1      28.751  17.901   7.186  0.00  0.00     0.159 C 
BRANCH  14  15
HETATM   15  N   UNK N   1      27.437  17.819   6.587  0.00  0.00    -0.357 N 
HETATM   16  C   UNK N   1      26.984  18.681   5.643  0.00  0.00     0.234 C 
HETATM   17  O   UNK N   1      25.856  18.542   5.201  0.00  0.00    -0.272 OA
HETATM   18  H   UNK N   1      26.836  17.097   6.882  0.00  0.00     0.162 HD
BRANCH  16  19
HETATM   19  C   UNK N   1      27.829  19.818   5.154  0.00  0.00     0.214 C 
BRANCH  19  20
HETATM   20  N   UNK N   1      28.045  19.694   3.722  0.00  0.00    -0.422 N 
HETATM   21  H   UNK N   1      28.757  20.180   3.177  0.00  0.00     0.150 HD
HETATM   22  H   UNK N   1      27.427  19.060   3.215  0.00  0.00     0.150 HD
ENDBRANCH  19  20
ENDBRANCH  16  19
ENDBRANCH  14  15
ENDBRANCH   1  14
TORSDOF 8
ENDMDL
MODEL 5
REMARK VINA RESULT:      -5.5     16.932     20.629
REMARK  8 active torsions:
REMARK  status: ('A' for Active; 'I' for Inactive)
REMARK    1  A    between atoms: O_1  and  C_7 
REMARK    2  A    between atoms: O_2  and  C_10 
REMARK    3  A    between atoms: O_3  and  C_12 
REMARK    4  A    between atoms: N_5  and  C_9 
REMARK       I    between atoms: N_5  and  C_15 
REMARK    5  A    between atoms: N_6  and  C_16 
REMARK    6  A    between atoms: C_7  and  C_8 
REMARK    7  A    between atoms: C_7  and  C_9 
REMARK    8  A    between atoms: C_15  and  C_16 
ROOT
HETATM    1  C   UNK N   1      35.872  15.277  10.622  0.00  0.00     0.171 C 
ENDROOT
BRANCH   1   2
HETATM    2  O   UNK N   1      36.911  16.168  10.895  0.00  0.00    -0.389 OA
HETATM    3  H   UNK N   1      37.401  16.892  11.316  0.00  0.00     0.210 HD
ENDBRANCH   1   2
BRANCH   1   4
HETATM    4  C   UNK N   1      35.699  14.307  11.768  0.00  0.00     0.008 A 
HETATM    5  C   UNK N   1      35.080  13.028  11.619  0.00  0.00     0.077 A 
HETATM    6  C   UNK N   1      34.979  12.193  12.740  0.00  0.00     0.040 A 
HETATM    7  C   UNK N   1      35.467  12.592  13.984  0.00  0.00     0.039 A 
HETATM    8  C   UNK N   1      36.079  13.842  14.134  0.00  0.00     0.069 A 
HETATM    9  C   UNK N   1      36.195  14.679  13.028  0.00  0.00     0.049 A 
BRANCH   5  10
HETATM   10  O   UNK N   1      34.580  12.547  10.448  0.00  0.00    -0.355 OA
HETATM   11  C   UNK N   1      35.224  11.714   9.565  0.00  0.00     0.210 C 
ENDBRANCH   5  10
BRANCH   8  12
HETATM   12  O   UNK N   1      36.556  14.267  15.328  0.00  0.00    -0.356 OA
HETATM   13  C   UNK N   1      37.283  15.425  15.482  0.00  0.00     0.210 C 
ENDBRANCH   8  12
ENDBRANCH   1   4
BRANCH   1  14
HETATM   14  C   UNK N   1      34.601  16.050  10.235  0.00  0.00     0.159 C 
BRANCH  14  15
HETATM   15  N   UNK N   1      34.885  17.425   9.889  0.00  0.00    -0.357 N 
HETATM   16  C   UNK N   1      34.756  17.929   8.637  0.00  0.00     0.234 C 
HETATM   17  O   UNK N   1      35.029  19.100   8.436  0.00  0.00    -0.272 OA
HETATM   18  H   UNK N   1      35.190  18.030  10.603  0.00  0.00     0.162 HD
BRANCH  16  19
HETATM   19  C   UNK N   1      34.316  17.070   7.490  0.00  0.00     0.214 C 
BRANCH  19  20
HETATM   20  N   UNK N   1      33.174  17.677   6.828  0.00  0.00    -0.422 N 
HETATM   21  H   UNK N   1      33.205  18.445   6.158  0.00  0.00     0.150 HD
HETATM   22  H   UNK N   1      32.254  17.298   7.055  0.00  0.00     0.150 HD
ENDBRANCH  19  20
ENDBRANCH  16  19
ENDBRANCH  14  15
ENDBRANCH   1  14
TORSDOF 8
ENDMDL
MODEL 6
REMARK VINA RESULT:      -5.5     13.615     16.123
REMARK  8 active torsions:
REMARK  status: ('A' for Active; 'I' for Inactive)
REMARK    1  A    between atoms: O_1  and  C_7 
REMARK    2  A    between atoms: O_2  and  C_10 
REMARK    3  A    between atoms: O_3  and  C_12 
REMARK    4  A    between atoms: N_5  and  C_9 
REMARK       I    between atoms: N_5  and  C_15 
REMARK    5  A    between atoms: N_6  and  C_16 
REMARK    6  A    between atoms: C_7  and  C_8 
REMARK    7  A    between atoms: C_7  and  C_9 
REMARK    8  A    between atoms: C_15  and  C_16 
ROOT
HETATM    1  C   UNK N   1      34.067  17.973   8.292  0.00  0.00     0.171 C 
ENDROOT
BRANCH   1   2
HETATM    2  O   UNK N   1      34.966  18.922   7.806  0.00  0.00    -0.389 OA
HETATM    3  H   UNK N   1      35.662  19.319   7.258  0.00  0.00     0.210 HD
ENDBRANCH   1   2
BRANCH   1   4
HETATM    4  C   UNK N   1      33.043  17.631   7.233  0.00  0.00     0.008 A 
HETATM    5  C   UNK N   1      31.664  17.403   7.527  0.00  0.00     0.077 A 
HETATM    6  C   UNK N   1      30.790  17.104   6.473  0.00  0.00     0.040 A 
HETATM    7  C   UNK N   1      31.246  17.025   5.157  0.00  0.00     0.039 A 
HETATM    8  C   UNK N   1      32.596  17.253   4.863  0.00  0.00     0.069 A 
HETATM    9  C   UNK N   1      33.474  17.560   5.899  0.00  0.00     0.049 A 
BRANCH   5  10
HETATM   10  O   UNK N   1      31.124  17.462   8.775  0.00  0.00    -0.355 OA
HETATM   11  C   UNK N   1      30.280  18.436   9.254  0.00  0.00     0.210 C 
ENDBRANCH   5  10
BRANCH   8  12
HETATM   12  O   UNK N   1      33.076  17.176   3.599  0.00  0.00    -0.356 OA
HETATM   13  C   UNK N   1      33.303  15.985   2.949  0.00  0.00     0.210 C 
ENDBRANCH   8  12
ENDBRANCH   1   4
BRANCH   1  14
HETATM   14  C   UNK N   1      34.827  16.768   8.866  0.00  0.00     0.159 C 
BRANCH  14  15
HETATM   15  N   UNK N   1      34.049  16.055   9.855  0.00  0.00    -0.357 N 
HETATM   16  C   UNK N   1      34.593  15.281  10.827  0.00  0.00     0.234 C 
HETATM   17  O   UNK N   1      33.858  14.709  11.613  0.00  0.00    -0.272 OA
HETATM   18  H   UNK N   1      33.069  16.136   9.821  0.00  0.00     0.162 HD
BRANCH  16  19
HETATM   19  C   UNK N   1      36.076  15.092  10.936  0.00  0.00     0.214 C 
BRANCH  19  20
HETATM   20  N   UNK N   1      36.483  15.170  12.329  0.00  0.00    -0.422 N 
HETATM   21  H   UNK N   1      35.955  14.826  13.130  0.00  0.00     0.150 HD
HETATM   22  H   UNK N   1      37.382  15.612  12.523  0.00  0.00     0.150 HD
ENDBRANCH  19  20
ENDBRANCH  16  19
ENDBRANCH  14  15
ENDBRANCH   1  14
TORSDOF 8
ENDMDL
MODEL 7
REMARK VINA RESULT:      -5.5     16.370     20.373
REMARK  8 active torsions:
REMARK  status: ('A' for Active; 'I' for Inactive)
REMARK    1  A    between atoms: O_1  and  C_7 
REMARK    2  A    between atoms: O_2  and  C_10 
REMARK    3  A    between atoms: O_3  and  C_12 
REMARK    4  A    between atoms: N_5  and  C_9 
REMARK       I    between atoms: N_5  and  C_15 
REMARK    5  A    between atoms: N_6  and  C_16 
REMARK    6  A    between atoms: C_7  and  C_8 
REMARK    7  A    between atoms: C_7  and  C_9 
REMARK    8  A    between atoms: C_15  and  C_16 
ROOT
HETATM    1  C   UNK N   1      34.644  15.354  10.944  0.00  0.00     0.171 C 
ENDROOT
BRANCH   1   2
HETATM    2  O   UNK N   1      33.408  14.839  11.337  0.00  0.00    -0.389 OA
HETATM    3  H   UNK N   1      32.620  14.682  11.880  0.00  0.00     0.210 HD
ENDBRANCH   1   2
BRANCH   1   4
HETATM    4  C   UNK N   1      35.731  14.324  11.153  0.00  0.00     0.008 A 
HETATM    5  C   UNK N   1      35.933  13.646  12.394  0.00  0.00     0.077 A 
HETATM    6  C   UNK N   1      36.961  12.697  12.483  0.00  0.00     0.040 A 
HETATM    7  C   UNK N   1      37.780  12.413  11.391  0.00  0.00     0.039 A 
HETATM    8  C   UNK N   1      37.582  13.072  10.171  0.00  0.00     0.069 A 
HETATM    9  C   UNK N   1      36.559  14.011  10.064  0.00  0.00     0.049 A 
BRANCH   5  10
HETATM   10  O   UNK N   1      35.186  13.849  13.512  0.00  0.00    -0.355 OA
HETATM   11  C   UNK N   1      35.330  13.207  14.719  0.00  0.00     0.210 C 
ENDBRANCH   5  10
BRANCH   8  12
HETATM   12  O   UNK N   1      38.363  12.829   9.091  0.00  0.00    -0.356 OA
HETATM   13  C   UNK N   1      38.970  13.824   8.360  0.00  0.00     0.210 C 
ENDBRANCH   8  12
ENDBRANCH   1   4
BRANCH   1  14
HETATM   14  C   UNK N   1      34.555  15.916   9.517  0.00  0.00     0.159 C 
BRANCH  14  15
HETATM   15  N   UNK N   1      34.897  17.320   9.463  0.00  0.00    -0.357 N 
HETATM   16  C   UNK N   1      34.686  18.106   8.378  0.00  0.00     0.234 C 
HETATM   17  O   UNK N   1      35.017  19.279   8.419  0.00  0.00    -0.272 OA
HETATM   18  H   UNK N   1      35.307  17.729  10.259  0.00  0.00     0.162 HD
BRANCH  16  19
HETATM   19  C   UNK N   1      34.083  17.557   7.121  0.00  0.00     0.214 C 
BRANCH  19  20
HETATM   20  N   UNK N   1      32.635  17.655   7.183  0.00  0.00    -0.422 N 
HETATM   21  H   UNK N   1      32.070  17.693   8.032  0.00  0.00     0.150 HD
HETATM   22  H   UNK N   1      32.136  17.689   6.294  0.00  0.00     0.150 HD
ENDBRANCH  19  20
ENDBRANCH  16  19
ENDBRANCH  14  15
ENDBRANCH   1  14
TORSDOF 8
ENDMDL
MODEL 8
REMARK VINA RESULT:      -5.5     11.284     13.573
REMARK  8 active torsions:
REMARK  status: ('A' for Active; 'I' for Inactive)
REMARK    1  A    between atoms: O_1  and  C_7 
REMARK    2  A    between atoms: O_2  and  C_10 
REMARK    3  A    between atoms: O_3  and  C_12 
REMARK    4  A    between atoms: N_5  and  C_9 
REMARK       I    between atoms: N_5  and  C_15 
REMARK    5  A    between atoms: N_6  and  C_16 
REMARK    6  A    between atoms: C_7  and  C_8 
REMARK    7  A    between atoms: C_7  and  C_9 
REMARK    8  A    between atoms: C_15  and  C_16 
ROOT
HETATM    1  C   UNK N   1      28.565  17.636   8.631  0.00  0.00     0.171 C 
ENDROOT
BRANCH   1   2
HETATM    2  O   UNK N   1      27.522  18.193   9.373  0.00  0.00    -0.389 OA
HETATM    3  H   UNK N   1      26.896  18.329  10.101  0.00  0.00     0.210 HD
ENDBRANCH   1   2
BRANCH   1   4
HETATM    4  C   UNK N   1      28.500  18.109   7.198  0.00  0.00     0.008 A 
HETATM    5  C   UNK N   1      29.105  17.401   6.115  0.00  0.00     0.077 A 
HETATM    6  C   UNK N   1      28.977  17.915   4.818  0.00  0.00     0.040 A 
HETATM    7  C   UNK N   1      28.277  19.096   4.574  0.00  0.00     0.039 A 
HETATM    8  C   UNK N   1      27.677  19.791   5.631  0.00  0.00     0.069 A 
HETATM    9  C   UNK N   1      27.788  19.288   6.925  0.00  0.00     0.049 A 
BRANCH   5  10
HETATM   10  O   UNK N   1      29.803  16.241   6.249  0.00  0.00    -0.355 OA
HETATM   11  C   UNK N   1      29.725  15.141   5.429  0.00  0.00     0.210 C 
ENDBRANCH   5  10
BRANCH   8  12
HETATM   12  O   UNK N   1      26.997  20.946   5.434  0.00  0.00    -0.356 OA
HETATM   13  C   UNK N   1      26.529  21.731   6.463  0.00  0.00     0.210 C 
ENDBRANCH   8  12
ENDBRANCH   1   4
BRANCH   1  14
HETATM   14  C   UNK N   1      29.908  17.891   9.333  0.00  0.00     0.159 C 
BRANCH  14  15
HETATM   15  N   UNK N   1      30.744  16.711   9.352  0.00  0.00    -0.357 N 
HETATM   16  C   UNK N   1      31.959  16.639   8.754  0.00  0.00     0.234 C 
HETATM   17  O   UNK N   1      32.591  15.597   8.812  0.00  0.00    -0.272 OA
HETATM   18  H   UNK N   1      30.413  15.914   9.826  0.00  0.00     0.162 HD
BRANCH  16  19
HETATM   19  C   UNK N   1      32.528  17.801   7.997  0.00  0.00     0.214 C 
BRANCH  19  20
HETATM   20  N   UNK N   1      32.669  17.456   6.593  0.00  0.00    -0.422 N 
HETATM   21  H   UNK N   1      32.664  16.513   6.202  0.00  0.00     0.150 HD
HETATM   22  H   UNK N   1      32.783  18.228   5.936  0.00  0.00     0.150 HD
ENDBRANCH  19  20
ENDBRANCH  16  19
ENDBRANCH  14  15
ENDBRANCH   1  14
TORSDOF 8
ENDMDL
MODEL 9
REMARK VINA RESULT:      -5.4     14.346     15.986
REMARK  8 active torsions:
REMARK  status: ('A' for Active; 'I' for Inactive)
REMARK    1  A    between atoms: O_1  and  C_7 
REMARK    2  A    between atoms: O_2  and  C_10 
REMARK    3  A    between atoms: O_3  and  C_12 
REMARK    4  A    between atoms: N_5  and  C_9 
REMARK       I    between atoms: N_5  and  C_15 
REMARK    5  A    between atoms: N_6  and  C_16 
REMARK    6  A    between atoms: C_7  and  C_8 
REMARK    7  A    between atoms: C_7  and  C_9 
REMARK    8  A    between atoms: C_15  and  C_16 
ROOT
HETATM    1  C   UNK N   1      33.982  17.849   8.419  0.00  0.00     0.171 C 
ENDROOT
BRANCH   1   2
HETATM    2  O   UNK N   1      34.778  18.639   7.589  0.00  0.00    -0.389 OA
HETATM    3  H   UNK N   1      35.023  19.246   6.873  0.00  0.00     0.210 HD
ENDBRANCH   1   2
BRANCH   1   4
HETATM    4  C   UNK N   1      32.605  17.682   7.820  0.00  0.00     0.008 A 
HETATM    5  C   UNK N   1      32.387  17.284   6.465  0.00  0.00     0.077 A 
HETATM    6  C   UNK N   1      31.071  17.143   6.006  0.00  0.00     0.040 A 
HETATM    7  C   UNK N   1      29.983  17.387   6.845  0.00  0.00     0.039 A 
HETATM    8  C   UNK N   1      30.191  17.771   8.175  0.00  0.00     0.069 A 
HETATM    9  C   UNK N   1      31.493  17.907   8.648  0.00  0.00     0.049 A 
BRANCH   5  10
HETATM   10  O   UNK N   1      33.380  17.019   5.573  0.00  0.00    -0.355 OA
HETATM   11  C   UNK N   1      33.784  15.777   5.145  0.00  0.00     0.210 C 
ENDBRANCH   5  10
BRANCH   8  12
HETATM   12  O   UNK N   1      29.160  18.025   9.016  0.00  0.00    -0.356 OA
HETATM   13  C   UNK N   1      28.003  17.280   9.039  0.00  0.00     0.210 C 
ENDBRANCH   8  12
ENDBRANCH   1   4
BRANCH   1  14
HETATM   14  C   UNK N   1      34.704  16.534   8.752  0.00  0.00     0.159 C 
BRANCH  14  15
HETATM   15  N   UNK N   1      34.481  16.123  10.120  0.00  0.00    -0.357 N 
HETATM   16  C   UNK N   1      34.115  14.868  10.479  0.00  0.00     0.234 C 
HETATM   17  O   UNK N   1      33.938  14.613  11.659  0.00  0.00    -0.272 OA
HETATM   18  H   UNK N   1      34.602  16.792  10.832  0.00  0.00     0.162 HD
BRANCH  16  19
HETATM   19  C   UNK N   1      33.893  13.796   9.456  0.00  0.00     0.214 C 
BRANCH  19  20
HETATM   20  N   UNK N   1      32.469  13.582   9.264  0.00  0.00    -0.422 N 
HETATM   21  H   UNK N   1      31.776  14.301   9.052  0.00  0.00     0.150 HD
HETATM   22  H   UNK N   1      32.130  12.624   9.350  0.00  0.00     0.150 HD
ENDBRANCH  19  20
ENDBRANCH  16  19
ENDBRANCH  14  15
ENDBRANCH   1  14
TORSDOF 8
ENDMDL
