REMARK  7 active torsions:
REMARK  status: ('A' for Active; 'I' for Inactive)
REMARK    1  A    between atoms: S_1  and  C_14 
REMARK    2  A    between atoms: S_1  and  C_16 
REMARK    3  A    between atoms: O_4  and  C_20 
REMARK    4  A    between atoms: O_5  and  C_21 
REMARK    5  A    between atoms: O_5  and  C_27 
REMARK    6  A    between atoms: O_7  and  C_23 
REMARK    7  A    between atoms: C_16  and  C_17 
ROOT
HETATM    1  N   UNK N   1       4.969   1.038   0.993  0.00  0.00    -0.333 N 
HETATM    2  N   UNK N   1       5.741  -0.915   0.146  0.00  0.00    -0.333 N 
ATOM      3  HN  UNK N   1       6.363  -1.687  -0.093  1.00  0.00     0.168 HD
HETATM    4  C   UNK N   1       3.988   0.410   0.334  0.00  0.00     0.063 A 
HETATM    5  C   UNK N   1       6.030   0.197   0.868  0.00  0.00     0.176 A 
HETATM    6  C   UNK N   1       4.451  -0.761  -0.179  0.00  0.00     0.061 A 
HETATM    7  C   UNK N   1       2.681   0.844   0.114  0.00  0.00     0.068 A 
HETATM    8  C   UNK N   1       3.671  -1.594  -0.964  0.00  0.00     0.035 A 
HETATM    9  C   UNK N   1       1.852   0.023  -0.686  0.00  0.00     0.077 A 
HETATM   10  C   UNK N   1       2.353  -1.183  -1.227  0.00  0.00     0.039 A 
HETATM   11  H   UNK N   1       4.931   1.905   1.459  0.00  0.00     0.168 HD
ENDROOT
BRANCH   5  12
HETATM   12  S   UNK N   1       7.693   0.667   1.336  0.00  0.00     0.090 S 
HETATM   13  O   UNK N   1       7.901   1.114  -0.118  0.00  0.00    -0.249 OA
BRANCH  12  14
HETATM   14  C   UNK N   1       8.436  -0.988   1.056  0.00  0.00     0.177 C 
BRANCH  14  15
HETATM   15  C   UNK N   1       9.828  -1.157   0.471  0.00  0.00     0.057 A 
HETATM   16  N   UNK N   1      10.182  -2.433   0.158  0.00  0.00    -0.366 N 
HETATM   17  C   UNK N   1      11.370  -2.747  -0.411  0.00  0.00     0.091 A 
ATOM     18  HN  UNK N   1       9.524  -3.185   0.360  1.00  0.00     0.165 HD
HETATM   19  C   UNK N   1      12.297  -1.752  -0.681  0.00  0.00     0.056 A 
HETATM   20  C   UNK N   1      12.019  -0.424  -0.365  0.00  0.00     0.104 A 
HETATM   21  C   UNK N   1      10.747  -0.097   0.207  0.00  0.00     0.125 A 
BRANCH  20  22
HETATM   22  O   UNK N   1      13.010   0.474  -0.605  0.00  0.00    -0.353 OA
HETATM   23  C   UNK N   1      13.232   1.624   0.116  0.00  0.00     0.210 C 
ENDBRANCH  20  22
BRANCH  21  24
HETATM   24  O   UNK N   1      10.394   1.179   0.491  0.00  0.00    -0.351 OA
HETATM   25  C   UNK N   1      10.551   2.221  -0.398  0.00  0.00     0.210 C 
ENDBRANCH  21  24
ENDBRANCH  14  15
ENDBRANCH  12  14
ENDBRANCH   5  12
BRANCH   9  26
HETATM   26  O   UNK N   1       0.577   0.369  -0.944  0.00  0.00    -0.290 OA
BRANCH  26  27
HETATM   27  C   UNK N   1      -0.316   0.584   0.074  0.00  0.00     0.505 C 
HETATM   28  F   UNK N   1      -1.409  -0.240  -0.124  0.00  0.00    -0.184 F 
HETATM   29  F   UNK N   1      -0.725   1.902   0.092  0.00  0.00    -0.184 F 
ENDBRANCH  26  27
ENDBRANCH   9  26
TORSDOF 7
