MODEL 1
REMARK VINA RESULT:      -7.3      0.000      0.000
REMARK  7 active torsions:
REMARK  status: ('A' for Active; 'I' for Inactive)
REMARK    1  A    between atoms: S_1  and  C_14 
REMARK    2  A    between atoms: S_1  and  C_16 
REMARK    3  A    between atoms: O_4  and  C_20 
REMARK    4  A    between atoms: O_5  and  C_21 
REMARK    5  A    between atoms: O_5  and  C_27 
REMARK    6  A    between atoms: O_7  and  C_23 
REMARK    7  A    between atoms: C_16  and  C_17 
ROOT
HETATM    1  N   UNK N   1      36.937  14.458  12.829  0.00  0.00    -0.333 N 
HETATM    2  N   UNK N   1      35.500  13.045  11.797  0.00  0.00    -0.333 N 
ATOM      3  HN  UNK N   1      34.977  12.559  11.069  1.00  0.00     0.168 HD
HETATM    4  C   UNK N   1      36.288  13.724  13.741  0.00  0.00     0.063 A 
HETATM    5  C   UNK N   1      36.439  14.013  11.645  0.00  0.00     0.176 A 
HETATM    6  C   UNK N   1      35.422  12.878  13.123  0.00  0.00     0.061 A 
HETATM    7  C   UNK N   1      36.386  13.791  15.131  0.00  0.00     0.068 A 
HETATM    8  C   UNK N   1      34.569  12.039  13.821  0.00  0.00     0.035 A 
HETATM    9  C   UNK N   1      35.530  12.952  15.882  0.00  0.00     0.077 A 
HETATM   10  C   UNK N   1      34.622  12.090  15.225  0.00  0.00     0.039 A 
HETATM   11  H   UNK N   1      37.615  15.156  12.980  0.00  0.00     0.168 HD
ENDROOT
BRANCH   5  12
HETATM   12  S   UNK N   1      36.763  14.840  10.091  0.00  0.00     0.090 S 
HETATM   13  O   UNK N   1      36.458  16.162  10.811  0.00  0.00    -0.249 OA
BRANCH  12  14
HETATM   14  C   UNK N   1      35.057  14.669   9.434  0.00  0.00     0.177 C 
BRANCH  14  15
HETATM   15  C   UNK N   1      34.370  15.793   8.676  0.00  0.00     0.057 A 
HETATM   16  N   UNK N   1      33.461  16.511   9.388  0.00  0.00    -0.366 N 
HETATM   17  C   UNK N   1      32.795  17.571   8.872  0.00  0.00     0.091 A 
ATOM     18  HN  UNK N   1      33.274  16.240  10.353  1.00  0.00     0.165 HD
HETATM   19  C   UNK N   1      33.010  17.955   7.557  0.00  0.00     0.056 A 
HETATM   20  C   UNK N   1      33.906  17.252   6.755  0.00  0.00     0.104 A 
HETATM   21  C   UNK N   1      34.630  16.153   7.319  0.00  0.00     0.125 A 
BRANCH  20  22
HETATM   22  O   UNK N   1      34.005  17.658   5.462  0.00  0.00    -0.353 OA
HETATM   23  C   UNK N   1      32.999  17.586   4.527  0.00  0.00     0.210 C 
ENDBRANCH  20  22
BRANCH  21  24
HETATM   24  O   UNK N   1      35.552  15.460   6.609  0.00  0.00    -0.351 OA
HETATM   25  C   UNK N   1      35.223  14.462   5.716  0.00  0.00     0.210 C 
ENDBRANCH  21  24
ENDBRANCH  14  15
ENDBRANCH  12  14
ENDBRANCH   5  12
BRANCH   9  26
HETATM   26  O   UNK N   1      35.563  12.955  17.227  0.00  0.00    -0.290 OA
BRANCH  26  27
HETATM   27  C   UNK N   1      35.145  14.047  17.942  0.00  0.00     0.505 C 
HETATM   28  F   UNK N   1      36.177  14.966  17.978  0.00  0.00    -0.184 F 
HETATM   29  F   UNK N   1      34.801  13.684  19.228  0.00  0.00    -0.184 F 
ENDBRANCH  26  27
ENDBRANCH   9  26
TORSDOF 7
ENDMDL
MODEL 2
REMARK VINA RESULT:      -6.9      3.228      4.590
REMARK  7 active torsions:
REMARK  status: ('A' for Active; 'I' for Inactive)
REMARK    1  A    between atoms: S_1  and  C_14 
REMARK    2  A    between atoms: S_1  and  C_16 
REMARK    3  A    between atoms: O_4  and  C_20 
REMARK    4  A    between atoms: O_5  and  C_21 
REMARK    5  A    between atoms: O_5  and  C_27 
REMARK    6  A    between atoms: O_7  and  C_23 
REMARK    7  A    between atoms: C_16  and  C_17 
ROOT
HETATM    1  N   UNK N   1      34.626  17.029   9.844  0.00  0.00    -0.333 N 
HETATM    2  N   UNK N   1      35.242  15.328   8.482  0.00  0.00    -0.333 N 
ATOM      3  HN  UNK N   1      35.369  14.753   7.649  1.00  0.00     0.168 HD
HETATM    4  C   UNK N   1      35.266  16.090  10.551  0.00  0.00     0.063 A 
HETATM    5  C   UNK N   1      34.634  16.538   8.576  0.00  0.00     0.176 A 
HETATM    6  C   UNK N   1      35.633  15.066   9.735  0.00  0.00     0.061 A 
HETATM    7  C   UNK N   1      35.514  16.063  11.923  0.00  0.00     0.068 A 
HETATM    8  C   UNK N   1      36.259  13.923  10.205  0.00  0.00     0.035 A 
HETATM    9  C   UNK N   1      36.149  14.911  12.444  0.00  0.00     0.077 A 
HETATM   10  C   UNK N   1      36.508  13.846  11.586  0.00  0.00     0.039 A 
HETATM   11  H   UNK N   1      34.241  17.876  10.166  0.00  0.00     0.168 HD
ENDROOT
BRANCH   5  12
HETATM   12  S   UNK N   1      33.672  17.266   7.254  0.00  0.00     0.090 S 
HETATM   13  O   UNK N   1      33.407  18.451   8.193  0.00  0.00    -0.249 OA
BRANCH  12  14
HETATM   14  C   UNK N   1      32.100  16.423   7.687  0.00  0.00     0.177 C 
BRANCH  14  15
HETATM   15  C   UNK N   1      30.816  17.194   7.942  0.00  0.00     0.057 A 
HETATM   16  N   UNK N   1      30.702  17.752   9.178  0.00  0.00    -0.366 N 
HETATM   17  C   UNK N   1      29.641  18.506   9.548  0.00  0.00     0.091 A 
ATOM     18  HN  UNK N   1      31.450  17.596   9.854  1.00  0.00     0.165 HD
HETATM   19  C   UNK N   1      28.597  18.722   8.662  0.00  0.00     0.056 A 
HETATM   20  C   UNK N   1      28.627  18.162   7.386  0.00  0.00     0.104 A 
HETATM   21  C   UNK N   1      29.769  17.393   6.992  0.00  0.00     0.125 A 
BRANCH  20  22
HETATM   22  O   UNK N   1      27.533  18.373   6.608  0.00  0.00    -0.353 OA
HETATM   23  C   UNK N   1      27.247  19.540   5.939  0.00  0.00     0.210 C 
ENDBRANCH  20  22
BRANCH  21  24
HETATM   24  O   UNK N   1      29.885  16.863   5.751  0.00  0.00    -0.351 OA
HETATM   25  C   UNK N   1      30.376  17.568   4.673  0.00  0.00     0.210 C 
ENDBRANCH  21  24
ENDBRANCH  14  15
ENDBRANCH  12  14
ENDBRANCH   5  12
BRANCH   9  26
HETATM   26  O   UNK N   1      36.426  14.807  13.757  0.00  0.00    -0.290 OA
BRANCH  26  27
HETATM   27  C   UNK N   1      36.376  13.594  14.395  0.00  0.00     0.505 C 
HETATM   28  F   UNK N   1      35.110  13.434  14.928  0.00  0.00    -0.184 F 
HETATM   29  F   UNK N   1      37.316  13.537  15.405  0.00  0.00    -0.184 F 
ENDBRANCH  26  27
ENDBRANCH   9  26
TORSDOF 7
ENDMDL
MODEL 3
REMARK VINA RESULT:      -6.9      1.814      2.341
REMARK  7 active torsions:
REMARK  status: ('A' for Active; 'I' for Inactive)
REMARK    1  A    between atoms: S_1  and  C_14 
REMARK    2  A    between atoms: S_1  and  C_16 
REMARK    3  A    between atoms: O_4  and  C_20 
REMARK    4  A    between atoms: O_5  and  C_21 
REMARK    5  A    between atoms: O_5  and  C_27 
REMARK    6  A    between atoms: O_7  and  C_23 
REMARK    7  A    between atoms: C_16  and  C_17 
ROOT
HETATM    1  N   UNK N   1      34.935  13.615  11.967  0.00  0.00    -0.333 N 
HETATM    2  N   UNK N   1      36.390  14.843  13.193  0.00  0.00    -0.333 N 
ATOM      3  HN  UNK N   1      37.046  15.574  13.470  1.00  0.00     0.168 HD
HETATM    4  C   UNK N   1      35.102  13.053  13.170  0.00  0.00     0.063 A 
HETATM    5  C   UNK N   1      35.731  14.716  12.014  0.00  0.00     0.176 A 
HETATM    6  C   UNK N   1      35.979  13.787  13.906  0.00  0.00     0.061 A 
HETATM    7  C   UNK N   1      34.544  11.871  13.655  0.00  0.00     0.068 A 
HETATM    8  C   UNK N   1      36.391  13.410  15.174  0.00  0.00     0.035 A 
HETATM    9  C   UNK N   1      34.942  11.448  14.945  0.00  0.00     0.077 A 
HETATM   10  C   UNK N   1      35.867  12.213  15.691  0.00  0.00     0.039 A 
HETATM   11  H   UNK N   1      34.369  13.304  11.224  0.00  0.00     0.168 HD
ENDROOT
BRANCH   5  12
HETATM   12  S   UNK N   1      36.101  15.700  10.564  0.00  0.00     0.090 S 
HETATM   13  O   UNK N   1      35.283  16.829  11.208  0.00  0.00    -0.249 OA
BRANCH  12  14
HETATM   14  C   UNK N   1      34.688  15.089   9.564  0.00  0.00     0.177 C 
BRANCH  14  15
HETATM   15  C   UNK N   1      33.886  16.008   8.658  0.00  0.00     0.057 A 
HETATM   16  N   UNK N   1      32.728  16.488   9.186  0.00  0.00    -0.366 N 
HETATM   17  C   UNK N   1      31.921  17.352   8.524  0.00  0.00     0.091 A 
ATOM     18  HN  UNK N   1      32.456  16.185  10.120  1.00  0.00     0.165 HD
HETATM   19  C   UNK N   1      32.250  17.769   7.244  0.00  0.00     0.056 A 
HETATM   20  C   UNK N   1      33.407  17.301   6.624  0.00  0.00     0.104 A 
HETATM   21  C   UNK N   1      34.270  16.413   7.344  0.00  0.00     0.125 A 
BRANCH  20  22
HETATM   22  O   UNK N   1      33.616  17.712   5.346  0.00  0.00    -0.353 OA
HETATM   23  C   UNK N   1      32.727  17.561   4.307  0.00  0.00     0.210 C 
ENDBRANCH  20  22
BRANCH  21  24
HETATM   24  O   UNK N   1      35.434  15.961   6.819  0.00  0.00    -0.351 OA
HETATM   25  C   UNK N   1      35.506  14.893   5.950  0.00  0.00     0.210 C 
ENDBRANCH  21  24
ENDBRANCH  14  15
ENDBRANCH  12  14
ENDBRANCH   5  12
BRANCH   9  26
HETATM   26  O   UNK N   1      34.447  10.319  15.487  0.00  0.00    -0.290 OA
BRANCH  26  27
HETATM   27  C   UNK N   1      35.072   9.712  16.546  0.00  0.00     0.505 C 
HETATM   28  F   UNK N   1      35.273   8.381  16.228  0.00  0.00    -0.184 F 
HETATM   29  F   UNK N   1      34.299   9.806  17.685  0.00  0.00    -0.184 F 
ENDBRANCH  26  27
ENDBRANCH   9  26
TORSDOF 7
ENDMDL
MODEL 4
REMARK VINA RESULT:      -6.8     12.044     15.743
REMARK  7 active torsions:
REMARK  status: ('A' for Active; 'I' for Inactive)
REMARK    1  A    between atoms: S_1  and  C_14 
REMARK    2  A    between atoms: S_1  and  C_16 
REMARK    3  A    between atoms: O_4  and  C_20 
REMARK    4  A    between atoms: O_5  and  C_21 
REMARK    5  A    between atoms: O_5  and  C_27 
REMARK    6  A    between atoms: O_7  and  C_23 
REMARK    7  A    between atoms: C_16  and  C_17 
ROOT
HETATM    1  N   UNK N   1      22.757  18.959   3.857  0.00  0.00    -0.333 N 
HETATM    2  N   UNK N   1      23.394  20.774   2.663  0.00  0.00    -0.333 N 
ATOM      3  HN  UNK N   1      23.359  21.604   2.071  1.00  0.00     0.168 HD
HETATM    4  C   UNK N   1      24.086  19.101   3.923  0.00  0.00     0.063 A 
HETATM    5  C   UNK N   1      22.359  20.004   3.084  0.00  0.00     0.176 A 
HETATM    6  C   UNK N   1      24.471  20.188   3.203  0.00  0.00     0.061 A 
HETATM    7  C   UNK N   1      25.011  18.278   4.564  0.00  0.00     0.068 A 
HETATM    8  C   UNK N   1      25.799  20.546   3.040  0.00  0.00     0.035 A 
HETATM    9  C   UNK N   1      26.379  18.607   4.420  0.00  0.00     0.077 A 
HETATM   10  C   UNK N   1      26.765  19.730   3.653  0.00  0.00     0.039 A 
HETATM   11  H   UNK N   1      22.198  18.261   4.271  0.00  0.00     0.168 HD
ENDROOT
BRANCH   5  12
HETATM   12  S   UNK N   1      20.693  20.152   2.445  0.00  0.00     0.090 S 
HETATM   13  O   UNK N   1      20.325  20.854   3.759  0.00  0.00    -0.249 OA
BRANCH  12  14
HETATM   14  C   UNK N   1      20.127  18.506   3.029  0.00  0.00     0.177 C 
BRANCH  14  15
HETATM   15  C   UNK N   1      20.125  17.287   2.123  0.00  0.00     0.057 A 
HETATM   16  N   UNK N   1      19.208  17.304   1.118  0.00  0.00    -0.366 N 
HETATM   17  C   UNK N   1      19.106  16.314   0.200  0.00  0.00     0.091 A 
ATOM     18  HN  UNK N   1      18.570  18.097   1.054  1.00  0.00     0.165 HD
HETATM   19  C   UNK N   1      19.944  15.212   0.269  0.00  0.00     0.056 A 
HETATM   20  C   UNK N   1      20.892  15.108   1.285  0.00  0.00     0.104 A 
HETATM   21  C   UNK N   1      21.014  16.175   2.233  0.00  0.00     0.125 A 
BRANCH  20  22
HETATM   22  O   UNK N   1      21.625  13.965   1.313  0.00  0.00    -0.353 OA
HETATM   23  C   UNK N   1      22.836  13.781   0.687  0.00  0.00     0.210 C 
ENDBRANCH  20  22
BRANCH  21  24
HETATM   24  O   UNK N   1      21.947  16.161   3.214  0.00  0.00    -0.351 OA
HETATM   25  C   UNK N   1      21.782  15.483   4.403  0.00  0.00     0.210 C 
ENDBRANCH  21  24
ENDBRANCH  14  15
ENDBRANCH  12  14
ENDBRANCH   5  12
BRANCH   9  26
HETATM   26  O   UNK N   1      27.335  17.864   5.009  0.00  0.00    -0.290 OA
BRANCH  26  27
HETATM   27  C   UNK N   1      28.415  18.455   5.614  0.00  0.00     0.505 C 
HETATM   28  F   UNK N   1      29.277  17.458   6.035  0.00  0.00    -0.184 F 
HETATM   29  F   UNK N   1      28.013  19.210   6.697  0.00  0.00    -0.184 F 
ENDBRANCH  26  27
ENDBRANCH   9  26
TORSDOF 7
ENDMDL
MODEL 5
REMARK VINA RESULT:      -6.8     17.492     20.598
REMARK  7 active torsions:
REMARK  status: ('A' for Active; 'I' for Inactive)
REMARK    1  A    between atoms: S_1  and  C_14 
REMARK    2  A    between atoms: S_1  and  C_16 
REMARK    3  A    between atoms: O_4  and  C_20 
REMARK    4  A    between atoms: O_5  and  C_21 
REMARK    5  A    between atoms: O_5  and  C_27 
REMARK    6  A    between atoms: O_7  and  C_23 
REMARK    7  A    between atoms: C_16  and  C_17 
ROOT
HETATM    1  N   UNK N   1      27.021  24.336  -4.001  0.00  0.00    -0.333 N 
HETATM    2  N   UNK N   1      28.036  26.192  -4.809  0.00  0.00    -0.333 N 
ATOM      3  HN  UNK N   1      28.189  27.083  -5.279  1.00  0.00     0.168 HD
HETATM    4  C   UNK N   1      28.321  24.314  -3.687  0.00  0.00     0.063 A 
HETATM    5  C   UNK N   1      26.874  25.504  -4.681  0.00  0.00     0.176 A 
HETATM    6  C   UNK N   1      28.934  25.426  -4.175  0.00  0.00     0.061 A 
HETATM    7  C   UNK N   1      29.030  23.320  -3.013  0.00  0.00     0.068 A 
HETATM    8  C   UNK N   1      30.296  25.643  -4.055  0.00  0.00     0.035 A 
HETATM    9  C   UNK N   1      30.426  23.502  -2.872  0.00  0.00     0.077 A 
HETATM   10  C   UNK N   1      31.051  24.654  -3.400  0.00  0.00     0.039 A 
HETATM   11  H   UNK N   1      26.332  23.664  -3.788  0.00  0.00     0.168 HD
ENDROOT
BRANCH   5  12
HETATM   12  S   UNK N   1      25.378  25.917  -5.574  0.00  0.00     0.090 S 
HETATM   13  O   UNK N   1      24.834  24.543  -5.160  0.00  0.00    -0.249 OA
BRANCH  12  14
HETATM   14  C   UNK N   1      25.969  25.321  -7.206  0.00  0.00     0.177 C 
BRANCH  14  15
HETATM   15  C   UNK N   1      26.121  23.842  -7.516  0.00  0.00     0.057 A 
HETATM   16  N   UNK N   1      24.989  23.209  -7.927  0.00  0.00    -0.366 N 
HETATM   17  C   UNK N   1      24.966  21.902  -8.283  0.00  0.00     0.091 A 
ATOM     18  HN  UNK N   1      24.121  23.741  -7.969  1.00  0.00     0.165 HD
HETATM   19  C   UNK N   1      26.124  21.143  -8.218  0.00  0.00     0.056 A 
HETATM   20  C   UNK N   1      27.318  21.713  -7.782  0.00  0.00     0.104 A 
HETATM   21  C   UNK N   1      27.340  23.103  -7.438  0.00  0.00     0.125 A 
BRANCH  20  22
HETATM   22  O   UNK N   1      28.387  20.879  -7.689  0.00  0.00    -0.353 OA
HETATM   23  C   UNK N   1      29.062  20.330  -8.754  0.00  0.00     0.210 C 
ENDBRANCH  20  22
BRANCH  21  24
HETATM   24  O   UNK N   1      28.478  23.730  -7.056  0.00  0.00    -0.351 OA
HETATM   25  C   UNK N   1      29.394  24.242  -7.949  0.00  0.00     0.210 C 
ENDBRANCH  21  24
ENDBRANCH  14  15
ENDBRANCH  12  14
ENDBRANCH   5  12
BRANCH   9  26
HETATM   26  O   UNK N   1      31.182  22.590  -2.232  0.00  0.00    -0.290 OA
BRANCH  26  27
HETATM   27  C   UNK N   1      31.943  21.689  -2.931  0.00  0.00     0.505 C 
HETATM   28  F   UNK N   1      31.136  20.629  -3.300  0.00  0.00    -0.184 F 
HETATM   29  F   UNK N   1      32.988  21.230  -2.155  0.00  0.00    -0.184 F 
ENDBRANCH  26  27
ENDBRANCH   9  26
TORSDOF 7
ENDMDL
MODEL 6
REMARK VINA RESULT:      -6.7      8.892     12.972
REMARK  7 active torsions:
REMARK  status: ('A' for Active; 'I' for Inactive)
REMARK    1  A    between atoms: S_1  and  C_14 
REMARK    2  A    between atoms: S_1  and  C_16 
REMARK    3  A    between atoms: O_4  and  C_20 
REMARK    4  A    between atoms: O_5  and  C_21 
REMARK    5  A    between atoms: O_5  and  C_27 
REMARK    6  A    between atoms: O_7  and  C_23 
REMARK    7  A    between atoms: C_16  and  C_17 
ROOT
HETATM    1  N   UNK N   1      25.578  17.818   5.370  0.00  0.00    -0.333 N 
HETATM    2  N   UNK N   1      27.436  18.809   4.537  0.00  0.00    -0.333 N 
ATOM      3  HN  UNK N   1      28.414  19.043   4.368  1.00  0.00     0.168 HD
HETATM    4  C   UNK N   1      25.231  18.762   4.487  0.00  0.00     0.063 A 
HETATM    5  C   UNK N   1      26.937  17.864   5.373  0.00  0.00     0.176 A 
HETATM    6  C   UNK N   1      26.346  19.361   3.989  0.00  0.00     0.061 A 
HETATM    7  C   UNK N   1      23.950  19.169   4.117  0.00  0.00     0.068 A 
HETATM    8  C   UNK N   1      26.291  20.420   3.098  0.00  0.00     0.035 A 
HETATM    9  C   UNK N   1      23.850  20.250   3.210  0.00  0.00     0.077 A 
HETATM   10  C   UNK N   1      25.017  20.874   2.715  0.00  0.00     0.039 A 
HETATM   11  H   UNK N   1      24.987  17.229   5.894  0.00  0.00     0.168 HD
ENDROOT
BRANCH   5  12
HETATM   12  S   UNK N   1      27.928  16.991   6.582  0.00  0.00     0.090 S 
HETATM   13  O   UNK N   1      28.194  18.350   7.243  0.00  0.00    -0.249 OA
BRANCH  12  14
HETATM   14  C   UNK N   1      29.482  17.030   5.606  0.00  0.00     0.177 C 
BRANCH  14  15
HETATM   15  C   UNK N   1      30.847  17.111   6.269  0.00  0.00     0.057 A 
HETATM   16  N   UNK N   1      30.846  17.529   7.564  0.00  0.00    -0.366 N 
HETATM   17  C   UNK N   1      31.974  17.614   8.309  0.00  0.00     0.091 A 
ATOM     18  HN  UNK N   1      29.959  17.790   7.992  1.00  0.00     0.165 HD
HETATM   19  C   UNK N   1      33.201  17.287   7.753  0.00  0.00     0.056 A 
HETATM   20  C   UNK N   1      33.287  16.875   6.425  0.00  0.00     0.104 A 
HETATM   21  C   UNK N   1      32.086  16.758   5.654  0.00  0.00     0.125 A 
BRANCH  20  22
HETATM   22  O   UNK N   1      34.537  16.638   5.946  0.00  0.00    -0.353 OA
HETATM   23  C   UNK N   1      35.134  15.402   5.861  0.00  0.00     0.210 C 
ENDBRANCH  20  22
BRANCH  21  24
HETATM   24  O   UNK N   1      32.094  16.316   4.374  0.00  0.00    -0.351 OA
HETATM   25  C   UNK N   1      32.343  17.136   3.294  0.00  0.00     0.210 C 
ENDBRANCH  21  24
ENDBRANCH  14  15
ENDBRANCH  12  14
ENDBRANCH   5  12
BRANCH   9  26
HETATM   26  O   UNK N   1      22.650  20.702   2.801  0.00  0.00    -0.290 OA
BRANCH  26  27
HETATM   27  C   UNK N   1      21.537  19.903   2.859  0.00  0.00     0.505 C 
HETATM   28  F   UNK N   1      20.783  20.122   1.721  0.00  0.00    -0.184 F 
HETATM   29  F   UNK N   1      20.785  20.196   3.979  0.00  0.00    -0.184 F 
ENDBRANCH  26  27
ENDBRANCH   9  26
TORSDOF 7
ENDMDL
MODEL 7
REMARK VINA RESULT:      -6.5      5.563      8.562
REMARK  7 active torsions:
REMARK  status: ('A' for Active; 'I' for Inactive)
REMARK    1  A    between atoms: S_1  and  C_14 
REMARK    2  A    between atoms: S_1  and  C_16 
REMARK    3  A    between atoms: O_4  and  C_20 
REMARK    4  A    between atoms: O_5  and  C_21 
REMARK    5  A    between atoms: O_5  and  C_27 
REMARK    6  A    between atoms: O_7  and  C_23 
REMARK    7  A    between atoms: C_16  and  C_17 
ROOT
HETATM    1  N   UNK N   1      34.930  16.881   8.440  0.00  0.00    -0.333 N 
HETATM    2  N   UNK N   1      32.907  16.604   9.418  0.00  0.00    -0.333 N 
ATOM      3  HN  UNK N   1      32.187  16.427  10.119  1.00  0.00     0.168 HD
HETATM    4  C   UNK N   1      33.961  17.042   7.531  0.00  0.00     0.063 A 
HETATM    5  C   UNK N   1      34.253  16.622   9.590  0.00  0.00     0.176 A 
HETATM    6  C   UNK N   1      32.745  16.872   8.116  0.00  0.00     0.061 A 
HETATM    7  C   UNK N   1      34.092  17.294   6.166  0.00  0.00     0.068 A 
HETATM    8  C   UNK N   1      31.559  16.920   7.403  0.00  0.00     0.035 A 
HETATM    9  C   UNK N   1      32.903  17.347   5.400  0.00  0.00     0.077 A 
HETATM   10  C   UNK N   1      31.648  17.151   6.020  0.00  0.00     0.039 A 
HETATM   11  H   UNK N   1      35.905  16.937   8.306  0.00  0.00     0.168 HD
ENDROOT
BRANCH   5  12
HETATM   12  S   UNK N   1      35.067  16.058  11.081  0.00  0.00     0.090 S 
HETATM   13  O   UNK N   1      36.375  16.603  10.491  0.00  0.00    -0.249 OA
BRANCH  12  14
HETATM   14  C   UNK N   1      35.374  14.349  10.486  0.00  0.00     0.177 C 
BRANCH  14  15
HETATM   15  C   UNK N   1      36.682  13.950   9.824  0.00  0.00     0.057 A 
HETATM   16  N   UNK N   1      37.693  13.620  10.672  0.00  0.00    -0.366 N 
HETATM   17  C   UNK N   1      38.907  13.202  10.241  0.00  0.00     0.091 A 
ATOM     18  HN  UNK N   1      37.530  13.691  11.676  1.00  0.00     0.165 HD
HETATM   19  C   UNK N   1      39.170  13.114   8.883  0.00  0.00     0.056 A 
HETATM   20  C   UNK N   1      38.194  13.459   7.951  0.00  0.00     0.104 A 
HETATM   21  C   UNK N   1      36.903  13.870   8.416  0.00  0.00     0.125 A 
BRANCH  20  22
HETATM   22  O   UNK N   1      38.561  13.404   6.644  0.00  0.00    -0.353 OA
HETATM   23  C   UNK N   1      39.644  14.049   6.094  0.00  0.00     0.210 C 
ENDBRANCH  20  22
BRANCH  21  24
HETATM   24  O   UNK N   1      35.895  14.171   7.563  0.00  0.00    -0.351 OA
HETATM   25  C   UNK N   1      35.060  13.219   7.016  0.00  0.00     0.210 C 
ENDBRANCH  21  24
ENDBRANCH  14  15
ENDBRANCH  12  14
ENDBRANCH   5  12
BRANCH   9  26
HETATM   26  O   UNK N   1      32.942  17.588   4.076  0.00  0.00    -0.290 OA
BRANCH  26  27
HETATM   27  C   UNK N   1      32.608  16.614   3.171  0.00  0.00     0.505 C 
HETATM   28  F   UNK N   1      33.763  16.192   2.538  0.00  0.00    -0.184 F 
HETATM   29  F   UNK N   1      31.718  17.103   2.237  0.00  0.00    -0.184 F 
ENDBRANCH  26  27
ENDBRANCH   9  26
TORSDOF 7
ENDMDL
MODEL 8
REMARK VINA RESULT:      -6.3      4.799      9.168
REMARK  7 active torsions:
REMARK  status: ('A' for Active; 'I' for Inactive)
REMARK    1  A    between atoms: S_1  and  C_14 
REMARK    2  A    between atoms: S_1  and  C_16 
REMARK    3  A    between atoms: O_4  and  C_20 
REMARK    4  A    between atoms: O_5  and  C_21 
REMARK    5  A    between atoms: O_5  and  C_27 
REMARK    6  A    between atoms: O_7  and  C_23 
REMARK    7  A    between atoms: C_16  and  C_17 
ROOT
HETATM    1  N   UNK N   1      34.707  17.204   7.970  0.00  0.00    -0.333 N 
HETATM    2  N   UNK N   1      32.928  16.755   9.298  0.00  0.00    -0.333 N 
ATOM      3  HN  UNK N   1      32.366  16.530  10.118  1.00  0.00     0.168 HD
HETATM    4  C   UNK N   1      33.582  17.229   7.245  0.00  0.00     0.063 A 
HETATM    5  C   UNK N   1      34.273  16.920   9.227  0.00  0.00     0.176 A 
HETATM    6  C   UNK N   1      32.513  16.955   8.040  0.00  0.00     0.061 A 
HETATM    7  C   UNK N   1      33.444  17.441   5.874  0.00  0.00     0.068 A 
HETATM    8  C   UNK N   1      31.223  16.851   7.548  0.00  0.00     0.035 A 
HETATM    9  C   UNK N   1      32.141  17.340   5.331  0.00  0.00     0.077 A 
HETATM   10  C   UNK N   1      31.043  17.038   6.167  0.00  0.00     0.039 A 
HETATM   11  H   UNK N   1      35.631  17.357   7.665  0.00  0.00     0.168 HD
ENDROOT
BRANCH   5  12
HETATM   12  S   UNK N   1      35.392  16.501  10.561  0.00  0.00     0.090 S 
HETATM   13  O   UNK N   1      36.148  15.619   9.556  0.00  0.00    -0.249 OA
BRANCH  12  14
HETATM   14  C   UNK N   1      34.390  15.106  11.208  0.00  0.00     0.177 C 
BRANCH  14  15
HETATM   15  C   UNK N   1      34.863  13.665  11.119  0.00  0.00     0.057 A 
HETATM   16  N   UNK N   1      34.228  12.894  10.195  0.00  0.00    -0.366 N 
HETATM   17  C   UNK N   1      34.561  11.603   9.961  0.00  0.00     0.091 A 
ATOM     18  HN  UNK N   1      33.469  13.308   9.654  1.00  0.00     0.165 HD
HETATM   19  C   UNK N   1      35.575  11.002  10.692  0.00  0.00     0.056 A 
HETATM   20  C   UNK N   1      36.255  11.718  11.676  0.00  0.00     0.104 A 
HETATM   21  C   UNK N   1      35.917  13.093  11.893  0.00  0.00     0.125 A 
BRANCH  20  22
HETATM   22  O   UNK N   1      37.187  11.031  12.386  0.00  0.00    -0.353 OA
HETATM   23  C   UNK N   1      36.929  10.242  13.482  0.00  0.00     0.210 C 
ENDBRANCH  20  22
BRANCH  21  24
HETATM   24  O   UNK N   1      36.573  13.859  12.798  0.00  0.00    -0.351 OA
HETATM   25  C   UNK N   1      36.226  13.915  14.131  0.00  0.00     0.210 C 
ENDBRANCH  21  24
ENDBRANCH  14  15
ENDBRANCH  12  14
ENDBRANCH   5  12
BRANCH   9  26
HETATM   26  O   UNK N   1      31.922  17.533   4.017  0.00  0.00    -0.290 OA
BRANCH  26  27
HETATM   27  C   UNK N   1      32.179  16.542   3.105  0.00  0.00     0.505 C 
HETATM   28  F   UNK N   1      31.972  15.320   3.720  0.00  0.00    -0.184 F 
HETATM   29  F   UNK N   1      33.482  16.620   2.656  0.00  0.00    -0.184 F 
ENDBRANCH  26  27
ENDBRANCH   9  26
TORSDOF 7
ENDMDL
MODEL 9
REMARK VINA RESULT:      -6.3      8.122     11.128
REMARK  7 active torsions:
REMARK  status: ('A' for Active; 'I' for Inactive)
REMARK    1  A    between atoms: S_1  and  C_14 
REMARK    2  A    between atoms: S_1  and  C_16 
REMARK    3  A    between atoms: O_4  and  C_20 
REMARK    4  A    between atoms: O_5  and  C_21 
REMARK    5  A    between atoms: O_5  and  C_27 
REMARK    6  A    between atoms: O_7  and  C_23 
REMARK    7  A    between atoms: C_16  and  C_17 
ROOT
HETATM    1  N   UNK N   1      28.048  18.952   7.922  0.00  0.00    -0.333 N 
HETATM    2  N   UNK N   1      29.051  17.377   6.641  0.00  0.00    -0.333 N 
ATOM      3  HN  UNK N   1      29.648  16.604   6.349  1.00  0.00     0.168 HD
HETATM    4  C   UNK N   1      27.600  19.038   6.664  0.00  0.00     0.063 A 
HETATM    5  C   UNK N   1      28.931  17.919   7.879  0.00  0.00     0.176 A 
HETATM    6  C   UNK N   1      28.205  18.096   5.892  0.00  0.00     0.061 A 
HETATM    7  C   UNK N   1      26.695  19.956   6.132  0.00  0.00     0.068 A 
HETATM    8  C   UNK N   1      27.981  17.990   4.529  0.00  0.00     0.035 A 
HETATM    9  C   UNK N   1      26.441  19.883   4.742  0.00  0.00     0.077 A 
HETATM   10  C   UNK N   1      27.091  18.910   3.949  0.00  0.00     0.039 A 
HETATM   11  H   UNK N   1      27.797  19.507   8.697  0.00  0.00     0.168 HD
ENDROOT
BRANCH   5  12
HETATM   12  S   UNK N   1      30.033  17.535   9.237  0.00  0.00     0.090 S 
HETATM   13  O   UNK N   1      29.886  18.998   9.678  0.00  0.00    -0.249 OA
BRANCH  12  14
HETATM   14  C   UNK N   1      31.584  17.850   8.307  0.00  0.00     0.177 C 
BRANCH  14  15
HETATM   15  C   UNK N   1      32.402  16.723   7.701  0.00  0.00     0.057 A 
HETATM   16  N   UNK N   1      31.799  15.503   7.683  0.00  0.00    -0.366 N 
HETATM   17  C   UNK N   1      32.376  14.406   7.139  0.00  0.00     0.091 A 
ATOM     18  HN  UNK N   1      30.871  15.412   8.097  1.00  0.00     0.165 HD
HETATM   19  C   UNK N   1      33.645  14.489   6.586  0.00  0.00     0.056 A 
HETATM   20  C   UNK N   1      34.339  15.697   6.590  0.00  0.00     0.104 A 
HETATM   21  C   UNK N   1      33.707  16.860   7.138  0.00  0.00     0.125 A 
BRANCH  20  22
HETATM   22  O   UNK N   1      35.600  15.670   6.085  0.00  0.00    -0.353 OA
HETATM   23  C   UNK N   1      36.257  14.544   5.646  0.00  0.00     0.210 C 
ENDBRANCH  20  22
BRANCH  21  24
HETATM   24  O   UNK N   1      34.306  18.074   7.128  0.00  0.00    -0.351 OA
HETATM   25  C   UNK N   1      34.836  18.664   8.256  0.00  0.00     0.210 C 
ENDBRANCH  21  24
ENDBRANCH  14  15
ENDBRANCH  12  14
ENDBRANCH   5  12
BRANCH   9  26
HETATM   26  O   UNK N   1      25.579  20.731   4.150  0.00  0.00    -0.290 OA
BRANCH  26  27
HETATM   27  C   UNK N   1      24.832  20.339   3.069  0.00  0.00     0.505 C 
HETATM   28  F   UNK N   1      25.488  20.737   1.919  0.00  0.00    -0.184 F 
HETATM   29  F   UNK N   1      23.578  20.912   3.111  0.00  0.00    -0.184 F 
ENDBRANCH  26  27
ENDBRANCH   9  26
TORSDOF 7
ENDMDL
