MODEL 1
REMARK VINA RESULT:      -7.4      0.000      0.000
REMARK  5 active torsions:
REMARK  status: ('A' for Active; 'I' for Inactive)
REMARK    1  A    between atoms: S_1  and  N_7 
REMARK    2  A    between atoms: S_1  and  C_11 
REMARK    3  A    between atoms: N_5  and  C_10 
REMARK       I    between atoms: N_5  and  C_16 
REMARK    4  A    between atoms: N_6  and  C_12 
REMARK    5  A    between atoms: N_6  and  C_13 
REMARK       I    between atoms: N_7  and  C_16 
ROOT
HETATM    1  N   UNK N   1      36.104  13.655   6.805  0.00  0.00    -0.374 N 
ATOM      2  HN  UNK N   1      36.627  12.800   6.620  1.00  0.00     0.164 HD
HETATM    3  C   UNK N   1      35.390  15.345   8.339  0.00  0.00     0.121 A 
HETATM    4  C   UNK N   1      34.687  15.976   7.300  0.00  0.00     0.058 A 
HETATM    5  C   UNK N   1      36.099  14.173   8.064  0.00  0.00     0.115 A 
HETATM    6  C   UNK N   1      34.709  15.429   6.013  0.00  0.00     0.048 A 
HETATM    7  C   UNK N   1      35.427  14.252   5.785  0.00  0.00     0.090 A 
ENDROOT
BRANCH   3   8
HETATM    8  S   UNK N   1      35.346  15.998  10.025  0.00  0.00     0.270 S 
HETATM    9  O   UNK N   1      35.448  17.529  10.095  0.00  0.00    -0.200 OA
HETATM   10  O   UNK N   1      33.948  15.803  10.626  0.00  0.00    -0.200 OA
BRANCH   8  11
HETATM   11  N   UNK N   1      36.422  15.469  11.307  0.00  0.00    -0.232 N 
HETATM   12  C   UNK N   1      36.000  14.670  12.311  0.00  0.00     0.330 C 
HETATM   13  O   UNK N   1      34.904  14.134  12.252  0.00  0.00    -0.246 OA
HETATM   14  N   UNK N   1      36.769  14.547  13.423  0.00  0.00    -0.338 N 
HETATM   15  H   UNK N   1      37.657  14.974  13.427  0.00  0.00     0.164 HD
HETATM   16  H   UNK N   1      37.361  15.764  11.295  0.00  0.00     0.183 HD
BRANCH  14  17
HETATM   17  C   UNK N   1      36.347  13.822  14.600  0.00  0.00     0.078 C 
HETATM   18  C   UNK N   1      36.943  12.430  14.554  0.00  0.00     0.032 C 
HETATM   19  C   UNK N   1      36.853  14.503  15.863  0.00  0.00     0.032 C 
ENDBRANCH  14  17
ENDBRANCH   8  11
ENDBRANCH   3   8
BRANCH   4  20
HETATM   20  N   UNK N   1      33.973  17.163   7.575  0.00  0.00    -0.355 N 
HETATM   21  H   UNK N   1      34.474  17.973   7.827  0.00  0.00     0.166 HD
BRANCH  20  22
HETATM   22  C   UNK N   1      32.562  17.231   7.500  0.00  0.00     0.033 A 
HETATM   23  C   UNK N   1      31.865  17.771   8.584  0.00  0.00     0.036 A 
HETATM   24  C   UNK N   1      30.488  17.974   8.507  0.00  0.00    -0.060 A 
HETATM   25  C   UNK N   1      29.795  17.615   7.348  0.00  0.00     0.007 A 
HETATM   26  C   UNK N   1      29.771  18.612   9.641  0.00  0.00     0.048 C 
HETATM   27  C   UNK N   1      30.484  17.061   6.263  0.00  0.00     0.003 A 
HETATM   28  C   UNK N   1      31.871  16.890   6.329  0.00  0.00     0.029 A 
ENDBRANCH  20  22
ENDBRANCH   4  20
TORSDOF 5
ENDMDL
MODEL 2
REMARK VINA RESULT:      -7.4     11.281     14.267
REMARK  5 active torsions:
REMARK  status: ('A' for Active; 'I' for Inactive)
REMARK    1  A    between atoms: S_1  and  N_7 
REMARK    2  A    between atoms: S_1  and  C_11 
REMARK    3  A    between atoms: N_5  and  C_10 
REMARK       I    between atoms: N_5  and  C_16 
REMARK    4  A    between atoms: N_6  and  C_12 
REMARK    5  A    between atoms: N_6  and  C_13 
REMARK       I    between atoms: N_7  and  C_16 
ROOT
HETATM    1  N   UNK N   1      19.765  15.855   1.956  0.00  0.00    -0.374 N 
ATOM      2  HN  UNK N   1      19.295  15.628   1.080  1.00  0.00     0.164 HD
HETATM    3  C   UNK N   1      20.762  17.479   3.401  0.00  0.00     0.121 A 
HETATM    4  C   UNK N   1      21.036  16.465   4.333  0.00  0.00     0.058 A 
HETATM    5  C   UNK N   1      20.119  17.145   2.206  0.00  0.00     0.115 A 
HETATM    6  C   UNK N   1      20.661  15.146   4.058  0.00  0.00     0.048 A 
HETATM    7  C   UNK N   1      20.024  14.858   2.848  0.00  0.00     0.090 A 
ENDROOT
BRANCH   3   8
HETATM    8  S   UNK N   1      21.274  19.186   3.704  0.00  0.00     0.270 S 
HETATM    9  O   UNK N   1      20.376  20.230   3.023  0.00  0.00    -0.200 OA
HETATM   10  O   UNK N   1      21.030  19.553   5.174  0.00  0.00    -0.200 OA
BRANCH   8  11
HETATM   11  N   UNK N   1      22.893  19.792   3.395  0.00  0.00    -0.232 N 
HETATM   12  C   UNK N   1      23.962  19.373   4.105  0.00  0.00     0.330 C 
HETATM   13  O   UNK N   1      23.864  18.415   4.857  0.00  0.00    -0.246 OA
HETATM   14  N   UNK N   1      25.115  20.085   4.041  0.00  0.00    -0.338 N 
HETATM   15  H   UNK N   1      25.166  20.837   3.408  0.00  0.00     0.164 HD
HETATM   16  H   UNK N   1      23.025  20.458   2.682  0.00  0.00     0.183 HD
BRANCH  14  17
HETATM   17  C   UNK N   1      26.271  19.794   4.860  0.00  0.00     0.078 C 
HETATM   18  C   UNK N   1      27.457  19.539   3.954  0.00  0.00     0.032 C 
HETATM   19  C   UNK N   1      26.613  20.980   5.751  0.00  0.00     0.032 C 
ENDBRANCH  14  17
ENDBRANCH   8  11
ENDBRANCH   3   8
BRANCH   4  20
HETATM   20  N   UNK N   1      21.683  16.800   5.544  0.00  0.00    -0.355 N 
HETATM   21  H   UNK N   1      22.456  17.410   5.518  0.00  0.00     0.166 HD
BRANCH  20  22
HETATM   22  C   UNK N   1      21.258  16.292   6.793  0.00  0.00     0.033 A 
HETATM   23  C   UNK N   1      20.110  16.836   7.375  0.00  0.00     0.036 A 
HETATM   24  C   UNK N   1      19.582  16.285   8.542  0.00  0.00    -0.060 A 
HETATM   25  C   UNK N   1      20.216  15.197   9.148  0.00  0.00     0.007 A 
HETATM   26  C   UNK N   1      18.323  16.830   9.112  0.00  0.00     0.048 C 
HETATM   27  C   UNK N   1      21.375  14.657   8.579  0.00  0.00     0.003 A 
HETATM   28  C   UNK N   1      21.883  15.188   7.389  0.00  0.00     0.029 A 
ENDBRANCH  20  22
ENDBRANCH   4  20
TORSDOF 5
ENDMDL
MODEL 3
REMARK VINA RESULT:      -7.4      1.686      2.349
REMARK  5 active torsions:
REMARK  status: ('A' for Active; 'I' for Inactive)
REMARK    1  A    between atoms: S_1  and  N_7 
REMARK    2  A    between atoms: S_1  and  C_11 
REMARK    3  A    between atoms: N_5  and  C_10 
REMARK       I    between atoms: N_5  and  C_16 
REMARK    4  A    between atoms: N_6  and  C_12 
REMARK    5  A    between atoms: N_6  and  C_13 
REMARK       I    between atoms: N_7  and  C_16 
ROOT
HETATM    1  N   UNK N   1      36.182  11.918   8.539  0.00  0.00    -0.374 N 
ATOM      2  HN  UNK N   1      36.486  10.949   8.628  1.00  0.00     0.164 HD
HETATM    3  C   UNK N   1      35.825  14.066   9.528  0.00  0.00     0.121 A 
HETATM    4  C   UNK N   1      35.361  14.545   8.292  0.00  0.00     0.058 A 
HETATM    5  C   UNK N   1      36.234  12.734   9.627  0.00  0.00     0.115 A 
HETATM    6  C   UNK N   1      35.319  13.691   7.185  0.00  0.00     0.048 A 
HETATM    7  C   UNK N   1      35.734  12.365   7.333  0.00  0.00     0.090 A 
ENDROOT
BRANCH   3   8
HETATM    8  S   UNK N   1      35.849  15.129  10.990  0.00  0.00     0.270 S 
HETATM    9  O   UNK N   1      36.589  16.458  10.774  0.00  0.00    -0.200 OA
HETATM   10  O   UNK N   1      34.438  15.662  11.273  0.00  0.00    -0.200 OA
BRANCH   8  11
HETATM   11  N   UNK N   1      36.416  14.610  12.568  0.00  0.00    -0.232 N 
HETATM   12  C   UNK N   1      35.726  13.728  13.322  0.00  0.00     0.330 C 
HETATM   13  O   UNK N   1      34.780  13.118  12.845  0.00  0.00    -0.246 OA
HETATM   14  N   UNK N   1      36.036  13.601  14.637  0.00  0.00    -0.338 N 
HETATM   15  H   UNK N   1      36.818  14.091  14.983  0.00  0.00     0.164 HD
HETATM   16  H   UNK N   1      37.263  14.974  12.915  0.00  0.00     0.183 HD
BRANCH  14  17
HETATM   17  C   UNK N   1      35.275  12.782  15.554  0.00  0.00     0.078 C 
HETATM   18  C   UNK N   1      36.045  11.506  15.821  0.00  0.00     0.032 C 
HETATM   19  C   UNK N   1      35.084  13.497  16.884  0.00  0.00     0.032 C 
ENDBRANCH  14  17
ENDBRANCH   8  11
ENDBRANCH   3   8
BRANCH   4  20
HETATM   20  N   UNK N   1      34.949  15.893   8.187  0.00  0.00    -0.355 N 
HETATM   21  H   UNK N   1      35.531  16.598   8.554  0.00  0.00     0.166 HD
BRANCH  20  22
HETATM   22  C   UNK N   1      33.731  16.266   7.573  0.00  0.00     0.033 A 
HETATM   23  C   UNK N   1      33.780  16.865   6.312  0.00  0.00     0.036 A 
HETATM   24  C   UNK N   1      32.605  17.136   5.613  0.00  0.00    -0.060 A 
HETATM   25  C   UNK N   1      31.368  16.827   6.185  0.00  0.00     0.007 A 
HETATM   26  C   UNK N   1      32.674  17.710   4.245  0.00  0.00     0.048 C 
HETATM   27  C   UNK N   1      31.310  16.240   7.454  0.00  0.00     0.003 A 
HETATM   28  C   UNK N   1      32.492  15.937   8.139  0.00  0.00     0.029 A 
ENDBRANCH  20  22
ENDBRANCH   4  20
TORSDOF 5
ENDMDL
MODEL 4
REMARK VINA RESULT:      -7.3     15.435     18.781
REMARK  5 active torsions:
REMARK  status: ('A' for Active; 'I' for Inactive)
REMARK    1  A    between atoms: S_1  and  N_7 
REMARK    2  A    between atoms: S_1  and  C_11 
REMARK    3  A    between atoms: N_5  and  C_10 
REMARK       I    between atoms: N_5  and  C_16 
REMARK    4  A    between atoms: N_6  and  C_12 
REMARK    5  A    between atoms: N_6  and  C_13 
REMARK       I    between atoms: N_7  and  C_16 
ROOT
HETATM    1  N   UNK N   1      30.211  27.481  -4.507  0.00  0.00    -0.374 N 
ATOM      2  HN  UNK N   1      30.400  28.444  -4.784  1.00  0.00     0.164 HD
HETATM    3  C   UNK N   1      28.642  25.772  -3.929  0.00  0.00     0.121 A 
HETATM    4  C   UNK N   1      29.704  24.869  -3.762  0.00  0.00     0.058 A 
HETATM    5  C   UNK N   1      28.924  27.087  -4.306  0.00  0.00     0.115 A 
HETATM    6  C   UNK N   1      31.019  25.293  -3.977  0.00  0.00     0.048 A 
HETATM    7  C   UNK N   1      31.254  26.619  -4.349  0.00  0.00     0.090 A 
ENDROOT
BRANCH   3   8
HETATM    8  S   UNK N   1      26.933  25.270  -3.613  0.00  0.00     0.270 S 
HETATM    9  O   UNK N   1      26.801  24.165  -2.554  0.00  0.00    -0.200 OA
HETATM   10  O   UNK N   1      26.177  26.401  -2.905  0.00  0.00    -0.200 OA
BRANCH   8  11
HETATM   11  N   UNK N   1      25.818  24.754  -4.868  0.00  0.00    -0.232 N 
HETATM   12  C   UNK N   1      26.187  23.903  -5.849  0.00  0.00     0.330 C 
HETATM   13  O   UNK N   1      27.256  23.315  -5.783  0.00  0.00    -0.246 OA
HETATM   14  N   UNK N   1      25.401  23.784  -6.948  0.00  0.00    -0.338 N 
HETATM   15  H   UNK N   1      24.536  24.255  -6.958  0.00  0.00     0.164 HD
HETATM   16  H   UNK N   1      24.895  25.098  -4.856  0.00  0.00     0.183 HD
BRANCH  14  17
HETATM   17  C   UNK N   1      25.772  23.000  -8.105  0.00  0.00     0.078 C 
HETATM   18  C   UNK N   1      24.907  21.758  -8.149  0.00  0.00     0.032 C 
HETATM   19  C   UNK N   1      25.528  23.783  -9.387  0.00  0.00     0.032 C 
ENDBRANCH  14  17
ENDBRANCH   8  11
ENDBRANCH   3   8
BRANCH   4  20
HETATM   20  N   UNK N   1      29.421  23.537  -3.383  0.00  0.00    -0.355 N 
HETATM   21  H   UNK N   1      28.573  23.343  -2.922  0.00  0.00     0.166 HD
BRANCH  20  22
HETATM   22  C   UNK N   1      30.313  22.471  -3.646  0.00  0.00     0.033 A 
HETATM   23  C   UNK N   1      30.137  21.733  -4.819  0.00  0.00     0.036 A 
HETATM   24  C   UNK N   1      31.063  20.756  -5.182  0.00  0.00    -0.060 A 
HETATM   25  C   UNK N   1      32.162  20.496  -4.359  0.00  0.00     0.007 A 
HETATM   26  C   UNK N   1      30.901  20.026  -6.466  0.00  0.00     0.048 C 
HETATM   27  C   UNK N   1      32.337  21.222  -3.176  0.00  0.00     0.003 A 
HETATM   28  C   UNK N   1      31.426  22.226  -2.830  0.00  0.00     0.029 A 
ENDBRANCH  20  22
ENDBRANCH   4  20
TORSDOF 5
ENDMDL
MODEL 5
REMARK VINA RESULT:      -7.2      2.977      8.304
REMARK  5 active torsions:
REMARK  status: ('A' for Active; 'I' for Inactive)
REMARK    1  A    between atoms: S_1  and  N_7 
REMARK    2  A    between atoms: S_1  and  C_11 
REMARK    3  A    between atoms: N_5  and  C_10 
REMARK       I    between atoms: N_5  and  C_16 
REMARK    4  A    between atoms: N_6  and  C_12 
REMARK    5  A    between atoms: N_6  and  C_13 
REMARK       I    between atoms: N_7  and  C_16 
ROOT
HETATM    1  N   UNK N   1      33.601  10.756  10.833  0.00  0.00    -0.374 N 
ATOM      2  HN  UNK N   1      32.953  10.559  10.071  1.00  0.00     0.164 HD
HETATM    3  C   UNK N   1      35.322  12.123  11.775  0.00  0.00     0.121 A 
HETATM    4  C   UNK N   1      35.352  11.288  12.904  0.00  0.00     0.058 A 
HETATM    5  C   UNK N   1      34.428  11.833  10.742  0.00  0.00     0.115 A 
HETATM    6  C   UNK N   1      34.492  10.189  12.980  0.00  0.00     0.048 A 
HETATM    7  C   UNK N   1      33.617   9.934  11.919  0.00  0.00     0.090 A 
ENDROOT
BRANCH   3   8
HETATM    8  S   UNK N   1      36.453  13.526  11.624  0.00  0.00     0.270 S 
HETATM    9  O   UNK N   1      36.621  14.326  12.924  0.00  0.00    -0.200 OA
HETATM   10  O   UNK N   1      37.891  13.022  11.442  0.00  0.00    -0.200 OA
BRANCH   8  11
HETATM   11  N   UNK N   1      36.300  14.778  10.403  0.00  0.00    -0.232 N 
HETATM   12  C   UNK N   1      35.171  15.504  10.259  0.00  0.00     0.330 C 
HETATM   13  O   UNK N   1      34.288  15.442  11.102  0.00  0.00    -0.246 OA
HETATM   14  N   UNK N   1      34.992  16.226   9.124  0.00  0.00    -0.338 N 
HETATM   15  H   UNK N   1      35.733  16.272   8.477  0.00  0.00     0.164 HD
HETATM   16  H   UNK N   1      37.061  14.956   9.804  0.00  0.00     0.183 HD
BRANCH  14  17
HETATM   17  C   UNK N   1      33.766  16.930   8.820  0.00  0.00     0.078 C 
HETATM   18  C   UNK N   1      34.095  18.126   7.951  0.00  0.00     0.032 C 
HETATM   19  C   UNK N   1      32.812  16.037   8.040  0.00  0.00     0.032 C 
ENDBRANCH  14  17
ENDBRANCH   8  11
ENDBRANCH   3   8
BRANCH   4  20
HETATM   20  N   UNK N   1      36.253  11.581  13.953  0.00  0.00    -0.355 N 
HETATM   21  H   UNK N   1      37.215  11.648  13.749  0.00  0.00     0.166 HD
BRANCH  20  22
HETATM   22  C   UNK N   1      35.823  11.782  15.284  0.00  0.00     0.033 A 
HETATM   23  C   UNK N   1      36.149  10.817  16.240  0.00  0.00     0.036 A 
HETATM   24  C   UNK N   1      35.857  11.030  17.587  0.00  0.00    -0.060 A 
HETATM   25  C   UNK N   1      35.214  12.205  17.982  0.00  0.00     0.007 A 
HETATM   26  C   UNK N   1      36.270  10.025  18.600  0.00  0.00     0.048 C 
HETATM   27  C   UNK N   1      34.871  13.171  17.029  0.00  0.00     0.003 A 
HETATM   28  C   UNK N   1      35.197  12.971  15.683  0.00  0.00     0.029 A 
ENDBRANCH  20  22
ENDBRANCH   4  20
TORSDOF 5
ENDMDL
MODEL 6
REMARK VINA RESULT:      -7.2     10.605     13.873
REMARK  5 active torsions:
REMARK  status: ('A' for Active; 'I' for Inactive)
REMARK    1  A    between atoms: S_1  and  N_7 
REMARK    2  A    between atoms: S_1  and  C_11 
REMARK    3  A    between atoms: N_5  and  C_10 
REMARK       I    between atoms: N_5  and  C_16 
REMARK    4  A    between atoms: N_6  and  C_12 
REMARK    5  A    between atoms: N_6  and  C_13 
REMARK       I    between atoms: N_7  and  C_16 
ROOT
HETATM    1  N   UNK N   1      19.364  15.711   3.350  0.00  0.00    -0.374 N 
ATOM      2  HN  UNK N   1      18.779  15.767   2.517  1.00  0.00     0.164 HD
HETATM    3  C   UNK N   1      20.700  16.799   5.008  0.00  0.00     0.121 A 
HETATM    4  C   UNK N   1      20.947  15.554   5.610  0.00  0.00     0.058 A 
HETATM    5  C   UNK N   1      19.898  16.852   3.866  0.00  0.00     0.115 A 
HETATM    6  C   UNK N   1      20.387  14.395   5.066  0.00  0.00     0.048 A 
HETATM    7  C   UNK N   1      19.594  14.495   3.920  0.00  0.00     0.090 A 
ENDROOT
BRANCH   3   8
HETATM    8  S   UNK N   1      21.447  18.312   5.658  0.00  0.00     0.270 S 
HETATM    9  O   UNK N   1      20.990  19.586   4.932  0.00  0.00    -0.200 OA
HETATM   10  O   UNK N   1      20.901  18.604   7.063  0.00  0.00    -0.200 OA
BRANCH   8  11
HETATM   11  N   UNK N   1      23.177  18.553   5.833  0.00  0.00    -0.232 N 
HETATM   12  C   UNK N   1      24.044  18.260   4.841  0.00  0.00     0.330 C 
HETATM   13  O   UNK N   1      23.632  17.999   3.720  0.00  0.00    -0.246 OA
HETATM   14  N   UNK N   1      25.367  18.168   5.128  0.00  0.00    -0.338 N 
HETATM   15  H   UNK N   1      25.667  18.407   6.035  0.00  0.00     0.164 HD
HETATM   16  H   UNK N   1      23.526  18.911   6.681  0.00  0.00     0.183 HD
BRANCH  14  17
HETATM   17  C   UNK N   1      26.357  17.735   4.167  0.00  0.00     0.078 C 
HETATM   18  C   UNK N   1      27.309  18.883   3.897  0.00  0.00     0.032 C 
HETATM   19  C   UNK N   1      27.173  16.575   4.718  0.00  0.00     0.032 C 
ENDBRANCH  14  17
ENDBRANCH   8  11
ENDBRANCH   3   8
BRANCH   4  20
HETATM   20  N   UNK N   1      21.756  15.498   6.768  0.00  0.00    -0.355 N 
HETATM   21  H   UNK N   1      22.562  16.063   6.813  0.00  0.00     0.166 HD
BRANCH  20  22
HETATM   22  C   UNK N   1      21.449  14.661   7.864  0.00  0.00     0.033 A 
HETATM   23  C   UNK N   1      22.278  13.563   8.113  0.00  0.00     0.036 A 
HETATM   24  C   UNK N   1      22.090  12.782   9.253  0.00  0.00    -0.060 A 
HETATM   25  C   UNK N   1      21.055  13.083  10.141  0.00  0.00     0.007 A 
HETATM   26  C   UNK N   1      23.021  11.660   9.540  0.00  0.00     0.048 C 
HETATM   27  C   UNK N   1      20.212  14.172   9.892  0.00  0.00     0.003 A 
HETATM   28  C   UNK N   1      20.423  14.975   8.766  0.00  0.00     0.029 A 
ENDBRANCH  20  22
ENDBRANCH   4  20
TORSDOF 5
ENDMDL
MODEL 7
REMARK VINA RESULT:      -7.1     14.703     17.265
REMARK  5 active torsions:
REMARK  status: ('A' for Active; 'I' for Inactive)
REMARK    1  A    between atoms: S_1  and  N_7 
REMARK    2  A    between atoms: S_1  and  C_11 
REMARK    3  A    between atoms: N_5  and  C_10 
REMARK       I    between atoms: N_5  and  C_16 
REMARK    4  A    between atoms: N_6  and  C_12 
REMARK    5  A    between atoms: N_6  and  C_13 
REMARK       I    between atoms: N_7  and  C_16 
ROOT
HETATM    1  N   UNK N   1      28.526  22.192  -6.706  0.00  0.00    -0.374 N 
ATOM      2  HN  UNK N   1      28.758  21.519  -7.436  1.00  0.00     0.164 HD
HETATM    3  C   UNK N   1      29.001  23.168  -4.575  0.00  0.00     0.121 A 
HETATM    4  C   UNK N   1      27.896  24.020  -4.731  0.00  0.00     0.058 A 
HETATM    5  C   UNK N   1      29.299  22.252  -5.587  0.00  0.00     0.115 A 
HETATM    6  C   UNK N   1      27.117  23.944  -5.890  0.00  0.00     0.048 A 
HETATM    7  C   UNK N   1      27.450  23.009  -6.874  0.00  0.00     0.090 A 
ENDROOT
BRANCH   3   8
HETATM    8  S   UNK N   1      30.002  23.206  -3.069  0.00  0.00     0.270 S 
HETATM    9  O   UNK N   1      30.677  24.562  -2.812  0.00  0.00    -0.200 OA
HETATM   10  O   UNK N   1      29.093  23.131  -1.835  0.00  0.00    -0.200 OA
BRANCH   8  11
HETATM   11  N   UNK N   1      31.276  22.052  -2.711  0.00  0.00    -0.232 N 
HETATM   12  C   UNK N   1      32.298  21.828  -3.564  0.00  0.00     0.330 C 
HETATM   13  O   UNK N   1      32.471  22.562  -4.525  0.00  0.00    -0.246 OA
HETATM   14  N   UNK N   1      33.070  20.725  -3.391  0.00  0.00    -0.338 N 
HETATM   15  H   UNK N   1      32.917  20.168  -2.593  0.00  0.00     0.164 HD
HETATM   16  H   UNK N   1      31.243  21.553  -1.863  0.00  0.00     0.183 HD
BRANCH  14  17
HETATM   17  C   UNK N   1      34.103  20.329  -4.321  0.00  0.00     0.078 C 
HETATM   18  C   UNK N   1      35.395  21.022  -3.938  0.00  0.00     0.032 C 
HETATM   19  C   UNK N   1      34.343  18.828  -4.253  0.00  0.00     0.032 C 
ENDBRANCH  14  17
ENDBRANCH   8  11
ENDBRANCH   3   8
BRANCH   4  20
HETATM   20  N   UNK N   1      27.594  24.949  -3.711  0.00  0.00    -0.355 N 
HETATM   21  H   UNK N   1      27.634  24.655  -2.771  0.00  0.00     0.166 HD
BRANCH  20  22
HETATM   22  C   UNK N   1      27.239  26.289  -3.989  0.00  0.00     0.033 A 
HETATM   23  C   UNK N   1      27.870  26.935  -5.056  0.00  0.00     0.036 A 
HETATM   24  C   UNK N   1      27.465  28.210  -5.448  0.00  0.00    -0.060 A 
HETATM   25  C   UNK N   1      26.437  28.858  -4.758  0.00  0.00     0.007 A 
HETATM   26  C   UNK N   1      28.099  28.857  -6.626  0.00  0.00     0.048 C 
HETATM   27  C   UNK N   1      25.810  28.223  -3.680  0.00  0.00     0.003 A 
HETATM   28  C   UNK N   1      26.194  26.930  -3.310  0.00  0.00     0.029 A 
ENDBRANCH  20  22
ENDBRANCH   4  20
TORSDOF 5
ENDMDL
MODEL 8
REMARK VINA RESULT:      -6.9      3.896      6.712
REMARK  5 active torsions:
REMARK  status: ('A' for Active; 'I' for Inactive)
REMARK    1  A    between atoms: S_1  and  N_7 
REMARK    2  A    between atoms: S_1  and  C_11 
REMARK    3  A    between atoms: N_5  and  C_10 
REMARK       I    between atoms: N_5  and  C_16 
REMARK    4  A    between atoms: N_6  and  C_12 
REMARK    5  A    between atoms: N_6  and  C_13 
REMARK       I    between atoms: N_7  and  C_16 
ROOT
HETATM    1  N   UNK N   1      27.485  20.020   5.991  0.00  0.00    -0.374 N 
ATOM      2  HN  UNK N   1      26.876  20.834   5.920  1.00  0.00     0.164 HD
HETATM    3  C   UNK N   1      28.655  18.432   7.344  0.00  0.00     0.121 A 
HETATM    4  C   UNK N   1      29.135  17.810   6.179  0.00  0.00     0.058 A 
HETATM    5  C   UNK N   1      27.823  19.548   7.222  0.00  0.00     0.115 A 
HETATM    6  C   UNK N   1      28.773  18.309   4.924  0.00  0.00     0.048 A 
HETATM    7  C   UNK N   1      27.942  19.431   4.851  0.00  0.00     0.090 A 
ENDROOT
BRANCH   3   8
HETATM    8  S   UNK N   1      29.141  17.842   8.982  0.00  0.00     0.270 S 
HETATM    9  O   UNK N   1      29.328  18.965  10.012  0.00  0.00    -0.200 OA
HETATM   10  O   UNK N   1      27.975  17.085   9.633  0.00  0.00    -0.200 OA
BRANCH   8  11
HETATM   11  N   UNK N   1      30.522  16.798   9.277  0.00  0.00    -0.232 N 
HETATM   12  C   UNK N   1      31.772  17.142   8.902  0.00  0.00     0.330 C 
HETATM   13  O   UNK N   1      32.009  18.278   8.518  0.00  0.00    -0.246 OA
HETATM   14  N   UNK N   1      32.736  16.188   8.868  0.00  0.00    -0.338 N 
HETATM   15  H   UNK N   1      32.517  15.289   9.206  0.00  0.00     0.164 HD
HETATM   16  H   UNK N   1      30.380  15.934   9.728  0.00  0.00     0.183 HD
BRANCH  14  17
HETATM   17  C   UNK N   1      34.068  16.427   8.360  0.00  0.00     0.078 C 
HETATM   18  C   UNK N   1      35.056  16.290   9.500  0.00  0.00     0.032 C 
HETATM   19  C   UNK N   1      34.434  15.397   7.301  0.00  0.00     0.032 C 
ENDBRANCH  14  17
ENDBRANCH   8  11
ENDBRANCH   3   8
BRANCH   4  20
HETATM   20  N   UNK N   1      29.974  16.680   6.299  0.00  0.00    -0.355 N 
HETATM   21  H   UNK N   1      29.810  16.041   7.030  0.00  0.00     0.166 HD
BRANCH  20  22
HETATM   22  C   UNK N   1      31.040  16.432   5.404  0.00  0.00     0.033 A 
HETATM   23  C   UNK N   1      31.015  15.255   4.651  0.00  0.00     0.036 A 
HETATM   24  C   UNK N   1      31.976  15.026   3.667  0.00  0.00    -0.060 A 
HETATM   25  C   UNK N   1      32.985  15.967   3.447  0.00  0.00     0.007 A 
HETATM   26  C   UNK N   1      31.897  13.803   2.828  0.00  0.00     0.048 C 
HETATM   27  C   UNK N   1      33.026  17.142   4.207  0.00  0.00     0.003 A 
HETATM   28  C   UNK N   1      32.040  17.386   5.169  0.00  0.00     0.029 A 
ENDBRANCH  20  22
ENDBRANCH   4  20
TORSDOF 5
ENDMDL
MODEL 9
REMARK VINA RESULT:      -6.9      4.547      9.432
REMARK  5 active torsions:
REMARK  status: ('A' for Active; 'I' for Inactive)
REMARK    1  A    between atoms: S_1  and  N_7 
REMARK    2  A    between atoms: S_1  and  C_11 
REMARK    3  A    between atoms: N_5  and  C_10 
REMARK       I    between atoms: N_5  and  C_16 
REMARK    4  A    between atoms: N_6  and  C_12 
REMARK    5  A    between atoms: N_6  and  C_13 
REMARK       I    between atoms: N_7  and  C_16 
ROOT
HETATM    1  N   UNK N   1      38.566   9.780  14.123  0.00  0.00    -0.374 N 
ATOM      2  HN  UNK N   1      39.404   9.402  13.682  1.00  0.00     0.164 HD
HETATM    3  C   UNK N   1      36.993  11.565  14.369  0.00  0.00     0.121 A 
HETATM    4  C   UNK N   1      36.293  10.802  15.317  0.00  0.00     0.058 A 
HETATM    5  C   UNK N   1      38.140  11.027  13.780  0.00  0.00     0.115 A 
HETATM    6  C   UNK N   1      36.746   9.523  15.653  0.00  0.00     0.048 A 
HETATM    7  C   UNK N   1      37.900   9.027  15.041  0.00  0.00     0.090 A 
ENDROOT
BRANCH   3   8
HETATM    8  S   UNK N   1      36.462  13.241  13.945  0.00  0.00     0.270 S 
HETATM    9  O   UNK N   1      34.937  13.423  13.942  0.00  0.00    -0.200 OA
HETATM   10  O   UNK N   1      36.837  14.210  15.075  0.00  0.00    -0.200 OA
BRANCH   8  11
HETATM   11  N   UNK N   1      36.967  14.089  12.493  0.00  0.00    -0.232 N 
HETATM   12  C   UNK N   1      36.911  13.516  11.272  0.00  0.00     0.330 C 
HETATM   13  O   UNK N   1      36.325  12.454  11.118  0.00  0.00    -0.246 OA
HETATM   14  N   UNK N   1      37.590  14.084  10.245  0.00  0.00    -0.338 N 
HETATM   15  H   UNK N   1      38.033  14.950  10.399  0.00  0.00     0.164 HD
HETATM   16  H   UNK N   1      37.303  15.012  12.571  0.00  0.00     0.183 HD
BRANCH  14  17
HETATM   17  C   UNK N   1      37.698  13.479   8.936  0.00  0.00     0.078 C 
HETATM   18  C   UNK N   1      36.618  14.055   8.044  0.00  0.00     0.032 C 
HETATM   19  C   UNK N   1      39.044  13.798   8.303  0.00  0.00     0.032 C 
ENDBRANCH  14  17
ENDBRANCH   8  11
ENDBRANCH   3   8
BRANCH   4  20
HETATM   20  N   UNK N   1      35.131  11.343  15.912  0.00  0.00    -0.355 N 
HETATM   21  H   UNK N   1      34.307  11.406  15.376  0.00  0.00     0.166 HD
BRANCH  20  22
HETATM   22  C   UNK N   1      35.109  11.796  17.251  0.00  0.00     0.033 A 
HETATM   23  C   UNK N   1      35.302  10.861  18.272  0.00  0.00     0.036 A 
HETATM   24  C   UNK N   1      35.413  11.277  19.598  0.00  0.00    -0.060 A 
HETATM   25  C   UNK N   1      35.309  12.634  19.914  0.00  0.00     0.007 A 
HETATM   26  C   UNK N   1      35.686  10.279  20.664  0.00  0.00     0.048 C 
HETATM   27  C   UNK N   1      35.101  13.575  18.899  0.00  0.00     0.003 A 
HETATM   28  C   UNK N   1      35.025  13.160  17.565  0.00  0.00     0.029 A 
ENDBRANCH  20  22
ENDBRANCH   4  20
TORSDOF 5
ENDMDL
