MODEL 1
REMARK VINA RESULT:      -6.7      0.000      0.000
REMARK  5 active torsions:
REMARK  status: ('A' for Active; 'I' for Inactive)
REMARK    1  A    between atoms: N_3  and  C_12 
REMARK    2  A    between atoms: C_5  and  C_6 
REMARK    3  A    between atoms: C_5  and  C_10 
REMARK    4  A    between atoms: C_6  and  C_9 
REMARK    5  A    between atoms: C_9  and  C_12 
ROOT
HETATM    1  O   UNK N   1      29.140  16.520   7.064  0.00  0.00    -0.366 OA
HETATM    2  N   UNK N   1      35.370  18.936   8.724  0.00  0.00    -0.191 NA
HETATM    3  C   UNK N   1      29.925  16.420   5.849  0.00  0.00     0.116 C 
HETATM    4  C   UNK N   1      31.288  16.628   6.340  0.00  0.00    -0.011 A 
HETATM    5  C   UNK N   1      31.187  17.225   7.553  0.00  0.00    -0.023 A 
HETATM    6  C   UNK N   1      29.870  17.127   8.094  0.00  0.00     0.209 C 
HETATM    7  C   UNK N   1      32.458  16.746   5.601  0.00  0.00     0.012 A 
HETATM    8  C   UNK N   1      32.195  17.957   8.106  0.00  0.00     0.032 A 
HETATM    9  C   UNK N   1      33.529  17.458   6.144  0.00  0.00     0.023 A 
HETATM   10  C   UNK N   1      33.375  18.062   7.399  0.00  0.00     0.045 A 
HETATM   11  C   UNK N   1      34.489  18.535   8.103  0.00  0.00     0.099 C 
ENDROOT
BRANCH   3  12
HETATM   12  C   UNK N   1      29.851  17.688   4.926  0.00  0.00     0.050 C 
BRANCH  12  13
HETATM   13  C   UNK N   1      28.568  18.638   4.875  0.00  0.00     0.034 C 
BRANCH  13  14
HETATM   14  C   UNK N   1      27.835  19.424   6.032  0.00  0.00     0.271 C 
BRANCH  14  15
HETATM   15  N   UNK N   1      26.687  20.270   5.649  0.00  0.00     0.080 N 
HETATM   16  C   UNK N   1      26.844  21.599   6.223  0.00  0.00     0.309 C 
HETATM   17  C   UNK N   1      26.594  20.439   4.209  0.00  0.00     0.309 C 
ENDBRANCH  14  15
ENDBRANCH  13  14
ENDBRANCH  12  13
ENDBRANCH   3  12
BRANCH   3  18
HETATM   18  C   UNK N   1      29.110  15.480   5.032  0.00  0.00    -0.019 A 
HETATM   19  C   UNK N   1      29.252  15.343   3.649  0.00  0.00     0.013 A 
HETATM   20  C   UNK N   1      28.126  15.017   2.878  0.00  0.00     0.043 A 
HETATM   21  C   UNK N   1      26.864  14.882   3.485  0.00  0.00     0.116 A 
HETATM   22  F   UNK N   1      25.771  14.588   2.761  0.00  0.00    -0.206 F 
HETATM   23  C   UNK N   1      26.725  15.008   4.848  0.00  0.00     0.043 A 
HETATM   24  C   UNK N   1      27.823  15.312   5.595  0.00  0.00     0.013 A 
ENDBRANCH   3  18
TORSDOF 5
ENDMDL
MODEL 2
REMARK VINA RESULT:      -6.5      3.784      6.288
REMARK  5 active torsions:
REMARK  status: ('A' for Active; 'I' for Inactive)
REMARK    1  A    between atoms: N_3  and  C_12 
REMARK    2  A    between atoms: C_5  and  C_6 
REMARK    3  A    between atoms: C_5  and  C_10 
REMARK    4  A    between atoms: C_6  and  C_9 
REMARK    5  A    between atoms: C_9  and  C_12 
ROOT
HETATM    1  O   UNK N   1      31.927  15.521   7.308  0.00  0.00    -0.366 OA
HETATM    2  N   UNK N   1      34.684  13.786   1.242  0.00  0.00    -0.191 NA
HETATM    3  C   UNK N   1      31.892  16.732   6.512  0.00  0.00     0.116 C 
HETATM    4  C   UNK N   1      32.173  16.230   5.166  0.00  0.00    -0.011 A 
HETATM    5  C   UNK N   1      32.745  15.009   5.309  0.00  0.00    -0.023 A 
HETATM    6  C   UNK N   1      32.562  14.478   6.622  0.00  0.00     0.209 C 
HETATM    7  C   UNK N   1      32.371  16.959   4.001  0.00  0.00     0.012 A 
HETATM    8  C   UNK N   1      33.528  14.439   4.350  0.00  0.00     0.032 A 
HETATM    9  C   UNK N   1      33.138  16.400   2.978  0.00  0.00     0.023 A 
HETATM   10  C   UNK N   1      33.713  15.137   3.174  0.00  0.00     0.045 A 
HETATM   11  C   UNK N   1      34.241  14.419   2.094  0.00  0.00     0.099 C 
ENDROOT
BRANCH   3  12
HETATM   12  C   UNK N   1      33.167  17.638   6.656  0.00  0.00     0.050 C 
BRANCH  12  13
HETATM   13  C   UNK N   1      34.395  17.248   7.601  0.00  0.00     0.034 C 
BRANCH  13  14
HETATM   14  C   UNK N   1      34.474  17.136   9.174  0.00  0.00     0.271 C 
BRANCH  14  15
HETATM   15  N   UNK N   1      34.967  15.861   9.734  0.00  0.00     0.080 N 
HETATM   16  C   UNK N   1      35.842  16.128  10.866  0.00  0.00     0.309 C 
HETATM   17  C   UNK N   1      33.881  15.030  10.225  0.00  0.00     0.309 C 
ENDBRANCH  14  15
ENDBRANCH  13  14
ENDBRANCH  12  13
ENDBRANCH   3  12
BRANCH   3  18
HETATM   18  C   UNK N   1      30.917  17.568   7.265  0.00  0.00    -0.019 A 
HETATM   19  C   UNK N   1      31.038  17.850   8.628  0.00  0.00     0.013 A 
HETATM   20  C   UNK N   1      29.876  18.023   9.393  0.00  0.00     0.043 A 
HETATM   21  C   UNK N   1      28.608  17.862   8.806  0.00  0.00     0.116 A 
HETATM   22  F   UNK N   1      27.483  18.004   9.527  0.00  0.00    -0.206 F 
HETATM   23  C   UNK N   1      28.487  17.591   7.462  0.00  0.00     0.043 A 
HETATM   24  C   UNK N   1      29.619  17.438   6.719  0.00  0.00     0.013 A 
ENDBRANCH   3  18
TORSDOF 5
ENDMDL
MODEL 3
REMARK VINA RESULT:      -6.5      2.654      4.633
REMARK  5 active torsions:
REMARK  status: ('A' for Active; 'I' for Inactive)
REMARK    1  A    between atoms: N_3  and  C_12 
REMARK    2  A    between atoms: C_5  and  C_6 
REMARK    3  A    between atoms: C_5  and  C_10 
REMARK    4  A    between atoms: C_6  and  C_9 
REMARK    5  A    between atoms: C_9  and  C_12 
ROOT
HETATM    1  O   UNK N   1      31.326  16.269   4.050  0.00  0.00    -0.366 OA
HETATM    2  N   UNK N   1      35.464  19.210   8.701  0.00  0.00    -0.191 NA
HETATM    3  C   UNK N   1      30.611  16.180   5.307  0.00  0.00     0.116 C 
HETATM    4  C   UNK N   1      31.371  17.092   6.164  0.00  0.00    -0.011 A 
HETATM    5  C   UNK N   1      32.584  17.264   5.584  0.00  0.00    -0.023 A 
HETATM    6  C   UNK N   1      32.599  16.828   4.225  0.00  0.00     0.209 C 
HETATM    7  C   UNK N   1      31.209  17.330   7.523  0.00  0.00     0.012 A 
HETATM    8  C   UNK N   1      33.688  17.665   6.277  0.00  0.00     0.032 A 
HETATM    9  C   UNK N   1      32.304  17.776   8.264  0.00  0.00     0.023 A 
HETATM   10  C   UNK N   1      33.539  17.933   7.622  0.00  0.00     0.045 A 
HETATM   11  C   UNK N   1      34.580  18.637   8.240  0.00  0.00     0.099 C 
ENDROOT
BRANCH   3  12
HETATM   12  C   UNK N   1      30.891  14.866   6.120  0.00  0.00     0.050 C 
BRANCH  12  13
HETATM   13  C   UNK N   1      32.122  13.901   5.791  0.00  0.00     0.034 C 
BRANCH  13  14
HETATM   14  C   UNK N   1      33.547  13.803   6.463  0.00  0.00     0.271 C 
BRANCH  14  15
HETATM   15  N   UNK N   1      33.681  14.324   7.838  0.00  0.00     0.080 N 
HETATM   16  C   UNK N   1      33.164  13.348   8.786  0.00  0.00     0.309 C 
HETATM   17  C   UNK N   1      35.069  14.566   8.194  0.00  0.00     0.309 C 
ENDBRANCH  14  15
ENDBRANCH  13  14
ENDBRANCH  12  13
ENDBRANCH   3  12
BRANCH   3  18
HETATM   18  C   UNK N   1      29.223  15.891   4.854  0.00  0.00    -0.019 A 
HETATM   19  C   UNK N   1      28.855  14.704   4.215  0.00  0.00     0.013 A 
HETATM   20  C   UNK N   1      27.824  14.734   3.265  0.00  0.00     0.043 A 
HETATM   21  C   UNK N   1      27.207  15.951   2.924  0.00  0.00     0.116 A 
HETATM   22  F   UNK N   1      26.230  16.003   2.002  0.00  0.00    -0.206 F 
HETATM   23  C   UNK N   1      27.563  17.120   3.558  0.00  0.00     0.043 A 
HETATM   24  C   UNK N   1      28.556  17.084   4.490  0.00  0.00     0.013 A 
ENDBRANCH   3  18
TORSDOF 5
ENDMDL
MODEL 4
REMARK VINA RESULT:      -6.4      3.490      6.635
REMARK  5 active torsions:
REMARK  status: ('A' for Active; 'I' for Inactive)
REMARK    1  A    between atoms: N_3  and  C_12 
REMARK    2  A    between atoms: C_5  and  C_6 
REMARK    3  A    between atoms: C_5  and  C_10 
REMARK    4  A    between atoms: C_6  and  C_9 
REMARK    5  A    between atoms: C_9  and  C_12 
ROOT
HETATM    1  O   UNK N   1      27.540  16.359   6.242  0.00  0.00    -0.366 OA
HETATM    2  N   UNK N   1      24.170  20.890   2.303  0.00  0.00    -0.191 NA
HETATM    3  C   UNK N   1      28.531  17.345   5.861  0.00  0.00     0.116 C 
HETATM    4  C   UNK N   1      27.704  18.426   5.321  0.00  0.00    -0.011 A 
HETATM    5  C   UNK N   1      26.496  17.890   5.020  0.00  0.00    -0.023 A 
HETATM    6  C   UNK N   1      26.305  16.614   5.631  0.00  0.00     0.209 C 
HETATM    7  C   UNK N   1      28.120  19.598   4.702  0.00  0.00     0.012 A 
HETATM    8  C   UNK N   1      25.641  18.448   4.117  0.00  0.00     0.032 A 
HETATM    9  C   UNK N   1      27.262  20.222   3.796  0.00  0.00     0.023 A 
HETATM   10  C   UNK N   1      26.025  19.627   3.513  0.00  0.00     0.045 A 
HETATM   11  C   UNK N   1      25.025  20.345   2.844  0.00  0.00     0.099 C 
ENDROOT
BRANCH   3  12
HETATM   12  C   UNK N   1      29.306  17.007   4.538  0.00  0.00     0.050 C 
BRANCH  12  13
HETATM   13  C   UNK N   1      29.017  15.684   3.689  0.00  0.00     0.034 C 
BRANCH  13  14
HETATM   14  C   UNK N   1      28.077  15.460   2.441  0.00  0.00     0.271 C 
BRANCH  14  15
HETATM   15  N   UNK N   1      26.822  14.715   2.669  0.00  0.00     0.080 N 
HETATM   16  C   UNK N   1      25.747  15.314   1.891  0.00  0.00     0.309 C 
HETATM   17  C   UNK N   1      26.930  13.329   2.244  0.00  0.00     0.309 C 
ENDBRANCH  14  15
ENDBRANCH  13  14
ENDBRANCH  12  13
ENDBRANCH   3  12
BRANCH   3  18
HETATM   18  C   UNK N   1      29.617  17.089   6.847  0.00  0.00    -0.019 A 
HETATM   19  C   UNK N   1      29.599  17.579   8.155  0.00  0.00     0.013 A 
HETATM   20  C   UNK N   1      30.814  17.896   8.780  0.00  0.00     0.043 A 
HETATM   21  C   UNK N   1      32.027  17.771   8.079  0.00  0.00     0.116 A 
HETATM   22  F   UNK N   1      33.200  18.087   8.655  0.00  0.00    -0.206 F 
HETATM   23  C   UNK N   1      32.047  17.280   6.794  0.00  0.00     0.043 A 
HETATM   24  C   UNK N   1      30.865  16.961   6.195  0.00  0.00     0.013 A 
ENDBRANCH   3  18
TORSDOF 5
ENDMDL
MODEL 5
REMARK VINA RESULT:      -6.4      2.956      4.602
REMARK  5 active torsions:
REMARK  status: ('A' for Active; 'I' for Inactive)
REMARK    1  A    between atoms: N_3  and  C_12 
REMARK    2  A    between atoms: C_5  and  C_6 
REMARK    3  A    between atoms: C_5  and  C_10 
REMARK    4  A    between atoms: C_6  and  C_9 
REMARK    5  A    between atoms: C_9  and  C_12 
ROOT
HETATM    1  O   UNK N   1      31.385  16.305   3.668  0.00  0.00    -0.366 OA
HETATM    2  N   UNK N   1      35.284  19.092   8.611  0.00  0.00    -0.191 NA
HETATM    3  C   UNK N   1      30.635  16.121   4.894  0.00  0.00     0.116 C 
HETATM    4  C   UNK N   1      31.339  17.004   5.826  0.00  0.00    -0.011 A 
HETATM    5  C   UNK N   1      32.564  17.246   5.296  0.00  0.00    -0.023 A 
HETATM    6  C   UNK N   1      32.633  16.890   3.915  0.00  0.00     0.209 C 
HETATM    7  C   UNK N   1      31.129  17.157   7.190  0.00  0.00     0.012 A 
HETATM    8  C   UNK N   1      33.632  17.639   6.046  0.00  0.00     0.032 A 
HETATM    9  C   UNK N   1      32.186  17.591   7.991  0.00  0.00     0.023 A 
HETATM   10  C   UNK N   1      33.435  17.823   7.399  0.00  0.00     0.045 A 
HETATM   11  C   UNK N   1      34.433  18.521   8.090  0.00  0.00     0.099 C 
ENDROOT
BRANCH   3  12
HETATM   12  C   UNK N   1      30.932  14.771   5.638  0.00  0.00     0.050 C 
BRANCH  12  13
HETATM   13  C   UNK N   1      31.637  13.531   4.916  0.00  0.00     0.034 C 
BRANCH  13  14
HETATM   14  C   UNK N   1      31.160  12.661   3.689  0.00  0.00     0.271 C 
BRANCH  14  15
HETATM   15  N   UNK N   1      31.540  13.130   2.342  0.00  0.00     0.080 N 
HETATM   16  C   UNK N   1      32.965  13.428   2.309  0.00  0.00     0.309 C 
HETATM   17  C   UNK N   1      31.294  12.120   1.326  0.00  0.00     0.309 C 
ENDBRANCH  14  15
ENDBRANCH  13  14
ENDBRANCH  12  13
ENDBRANCH   3  12
BRANCH   3  18
HETATM   18  C   UNK N   1      29.271  15.818   4.381  0.00  0.00    -0.019 A 
HETATM   19  C   UNK N   1      28.359  15.004   5.058  0.00  0.00     0.013 A 
HETATM   20  C   UNK N   1      27.450  14.236   4.315  0.00  0.00     0.043 A 
HETATM   21  C   UNK N   1      27.495  14.245   2.909  0.00  0.00     0.116 A 
HETATM   22  F   UNK N   1      26.646  13.501   2.180  0.00  0.00    -0.206 F 
HETATM   23  C   UNK N   1      28.388  15.052   2.241  0.00  0.00     0.043 A 
HETATM   24  C   UNK N   1      29.260  15.807   2.966  0.00  0.00     0.013 A 
ENDBRANCH   3  18
TORSDOF 5
ENDMDL
MODEL 6
REMARK VINA RESULT:      -6.4      7.328     10.624
REMARK  5 active torsions:
REMARK  status: ('A' for Active; 'I' for Inactive)
REMARK    1  A    between atoms: N_3  and  C_12 
REMARK    2  A    between atoms: C_5  and  C_6 
REMARK    3  A    between atoms: C_5  and  C_10 
REMARK    4  A    between atoms: C_6  and  C_9 
REMARK    5  A    between atoms: C_9  and  C_12 
ROOT
HETATM    1  O   UNK N   1      34.880  12.303  11.092  0.00  0.00    -0.366 OA
HETATM    2  N   UNK N   1      34.309  18.067   7.371  0.00  0.00    -0.191 NA
HETATM    3  C   UNK N   1      35.474  13.344  11.908  0.00  0.00     0.116 C 
HETATM    4  C   UNK N   1      35.034  14.563  11.227  0.00  0.00    -0.011 A 
HETATM    5  C   UNK N   1      34.667  14.206   9.971  0.00  0.00    -0.023 A 
HETATM    6  C   UNK N   1      34.485  12.797   9.843  0.00  0.00     0.209 C 
HETATM    7  C   UNK N   1      35.391  15.877  11.501  0.00  0.00     0.012 A 
HETATM    8  C   UNK N   1      34.628  15.087   8.931  0.00  0.00     0.032 A 
HETATM    9  C   UNK N   1      35.333  16.820  10.474  0.00  0.00     0.023 A 
HETATM   10  C   UNK N   1      34.953  16.402   9.191  0.00  0.00     0.045 A 
HETATM   11  C   UNK N   1      34.607  17.340   8.210  0.00  0.00     0.099 C 
ENDROOT
BRANCH   3  12
HETATM   12  C   UNK N   1      37.017  13.539  11.685  0.00  0.00     0.050 C 
BRANCH  12  13
HETATM   13  C   UNK N   1      37.928  12.432  10.979  0.00  0.00     0.034 C 
BRANCH  13  14
HETATM   14  C   UNK N   1      38.137  12.110   9.448  0.00  0.00     0.271 C 
BRANCH  14  15
HETATM   15  N   UNK N   1      38.002  13.233   8.499  0.00  0.00     0.080 N 
HETATM   16  C   UNK N   1      39.314  13.601   7.984  0.00  0.00     0.309 C 
HETATM   17  C   UNK N   1      37.182  12.879   7.352  0.00  0.00     0.309 C 
ENDBRANCH  14  15
ENDBRANCH  13  14
ENDBRANCH  12  13
ENDBRANCH   3  12
BRANCH   3  18
HETATM   18  C   UNK N   1      35.505  12.705  13.252  0.00  0.00    -0.019 A 
HETATM   19  C   UNK N   1      34.491  11.870  13.728  0.00  0.00     0.013 A 
HETATM   20  C   UNK N   1      34.217  11.848  15.104  0.00  0.00     0.043 A 
HETATM   21  C   UNK N   1      34.918  12.696  15.981  0.00  0.00     0.116 A 
HETATM   22  F   UNK N   1      34.657  12.704  17.299  0.00  0.00    -0.206 F 
HETATM   23  C   UNK N   1      35.922  13.514  15.514  0.00  0.00     0.043 A 
HETATM   24  C   UNK N   1      36.194  13.521  14.179  0.00  0.00     0.013 A 
ENDBRANCH   3  18
TORSDOF 5
ENDMDL
MODEL 7
REMARK VINA RESULT:      -6.3      2.527      4.342
REMARK  5 active torsions:
REMARK  status: ('A' for Active; 'I' for Inactive)
REMARK    1  A    between atoms: N_3  and  C_12 
REMARK    2  A    between atoms: C_5  and  C_6 
REMARK    3  A    between atoms: C_5  and  C_10 
REMARK    4  A    between atoms: C_6  and  C_9 
REMARK    5  A    between atoms: C_9  and  C_12 
ROOT
HETATM    1  O   UNK N   1      30.275  17.559   4.625  0.00  0.00    -0.366 OA
HETATM    2  N   UNK N   1      35.268  15.082   8.667  0.00  0.00    -0.191 NA
HETATM    3  C   UNK N   1      29.693  17.487   5.950  0.00  0.00     0.116 C 
HETATM    4  C   UNK N   1      30.869  17.278   6.797  0.00  0.00    -0.011 A 
HETATM    5  C   UNK N   1      31.862  16.827   5.993  0.00  0.00    -0.023 A 
HETATM    6  C   UNK N   1      31.577  17.042   4.611  0.00  0.00     0.209 C 
HETATM    7  C   UNK N   1      30.910  17.027   8.162  0.00  0.00     0.012 A 
HETATM    8  C   UNK N   1      32.930  16.120   6.458  0.00  0.00     0.032 A 
HETATM    9  C   UNK N   1      32.002  16.336   8.688  0.00  0.00     0.023 A 
HETATM   10  C   UNK N   1      33.003  15.885   7.816  0.00  0.00     0.045 A 
HETATM   11  C   UNK N   1      34.236  15.447   8.312  0.00  0.00     0.099 C 
ENDROOT
BRANCH   3  12
HETATM   12  C   UNK N   1      28.975  16.128   6.268  0.00  0.00     0.050 C 
BRANCH  12  13
HETATM   13  C   UNK N   1      28.367  15.191   5.126  0.00  0.00     0.034 C 
BRANCH  13  14
HETATM   14  C   UNK N   1      27.096  15.394   4.211  0.00  0.00     0.271 C 
BRANCH  14  15
HETATM   15  N   UNK N   1      27.331  15.825   2.818  0.00  0.00     0.080 N 
HETATM   16  C   UNK N   1      28.613  15.312   2.355  0.00  0.00     0.309 C 
HETATM   17  C   UNK N   1      26.318  15.311   1.913  0.00  0.00     0.309 C 
ENDBRANCH  14  15
ENDBRANCH  13  14
ENDBRANCH  12  13
ENDBRANCH   3  12
BRANCH   3  18
HETATM   18  C   UNK N   1      28.497  18.363   5.810  0.00  0.00    -0.019 A 
HETATM   19  C   UNK N   1      28.172  19.037   4.630  0.00  0.00     0.013 A 
HETATM   20  C   UNK N   1      27.519  20.276   4.712  0.00  0.00     0.043 A 
HETATM   21  C   UNK N   1      27.245  20.853   5.965  0.00  0.00     0.116 A 
HETATM   22  F   UNK N   1      26.638  22.048   6.063  0.00  0.00    -0.206 F 
HETATM   23  C   UNK N   1      27.558  20.187   7.128  0.00  0.00     0.043 A 
HETATM   24  C   UNK N   1      28.179  18.978   7.044  0.00  0.00     0.013 A 
ENDBRANCH   3  18
TORSDOF 5
ENDMDL
MODEL 8
REMARK VINA RESULT:      -6.3      2.767      4.332
REMARK  5 active torsions:
REMARK  status: ('A' for Active; 'I' for Inactive)
REMARK    1  A    between atoms: N_3  and  C_12 
REMARK    2  A    between atoms: C_5  and  C_6 
REMARK    3  A    between atoms: C_5  and  C_10 
REMARK    4  A    between atoms: C_6  and  C_9 
REMARK    5  A    between atoms: C_9  and  C_12 
ROOT
HETATM    1  O   UNK N   1      31.021  16.445   3.829  0.00  0.00    -0.366 OA
HETATM    2  N   UNK N   1      35.296  19.034   8.564  0.00  0.00    -0.191 NA
HETATM    3  C   UNK N   1      30.327  16.295   5.093  0.00  0.00     0.116 C 
HETATM    4  C   UNK N   1      31.119  17.142   5.987  0.00  0.00    -0.011 A 
HETATM    5  C   UNK N   1      32.325  17.326   5.394  0.00  0.00    -0.023 A 
HETATM    6  C   UNK N   1      32.306  16.970   4.012  0.00  0.00     0.209 C 
HETATM    7  C   UNK N   1      30.986  17.302   7.360  0.00  0.00     0.012 A 
HETATM    8  C   UNK N   1      33.448  17.666   6.088  0.00  0.00     0.032 A 
HETATM    9  C   UNK N   1      32.103  17.684   8.105  0.00  0.00     0.023 A 
HETATM   10  C   UNK N   1      33.329  17.857   7.449  0.00  0.00     0.045 A 
HETATM   11  C   UNK N   1      34.393  18.505   8.087  0.00  0.00     0.099 C 
ENDROOT
BRANCH   3  12
HETATM   12  C   UNK N   1      30.597  14.931   5.821  0.00  0.00     0.050 C 
BRANCH  12  13
HETATM   13  C   UNK N   1      31.239  13.672   5.074  0.00  0.00     0.034 C 
BRANCH  13  14
HETATM   14  C   UNK N   1      30.556  12.551   4.198  0.00  0.00     0.271 C 
BRANCH  14  15
HETATM   15  N   UNK N   1      30.832  12.569   2.747  0.00  0.00     0.080 N 
HETATM   16  C   UNK N   1      29.725  13.204   2.044  0.00  0.00     0.309 C 
HETATM   17  C   UNK N   1      32.027  13.334   2.432  0.00  0.00     0.309 C 
ENDBRANCH  14  15
ENDBRANCH  13  14
ENDBRANCH  12  13
ENDBRANCH   3  12
BRANCH   3  18
HETATM   18  C   UNK N   1      28.925  16.058   4.650  0.00  0.00    -0.019 A 
HETATM   19  C   UNK N   1      28.346  16.704   3.555  0.00  0.00     0.013 A 
HETATM   20  C   UNK N   1      26.970  16.976   3.575  0.00  0.00     0.043 A 
HETATM   21  C   UNK N   1      26.198  16.651   4.705  0.00  0.00     0.116 A 
HETATM   22  F   UNK N   1      24.882  16.921   4.752  0.00  0.00    -0.206 F 
HETATM   23  C   UNK N   1      26.766  16.008   5.782  0.00  0.00     0.043 A 
HETATM   24  C   UNK N   1      28.100  15.732   5.752  0.00  0.00     0.013 A 
ENDBRANCH   3  18
TORSDOF 5
ENDMDL
MODEL 9
REMARK VINA RESULT:      -6.3      9.904     12.435
REMARK  5 active torsions:
REMARK  status: ('A' for Active; 'I' for Inactive)
REMARK    1  A    between atoms: N_3  and  C_12 
REMARK    2  A    between atoms: C_5  and  C_6 
REMARK    3  A    between atoms: C_5  and  C_10 
REMARK    4  A    between atoms: C_6  and  C_9 
REMARK    5  A    between atoms: C_9  and  C_12 
ROOT
HETATM    1  O   UNK N   1      36.953  11.223  13.906  0.00  0.00    -0.366 OA
HETATM    2  N   UNK N   1      35.443  10.563  20.591  0.00  0.00    -0.191 NA
HETATM    3  C   UNK N   1      36.122  12.367  14.224  0.00  0.00     0.116 C 
HETATM    4  C   UNK N   1      36.114  12.349  15.688  0.00  0.00    -0.011 A 
HETATM    5  C   UNK N   1      36.486  11.103  16.072  0.00  0.00    -0.023 A 
HETATM    6  C   UNK N   1      37.088  10.368  15.007  0.00  0.00     0.209 C 
HETATM    7  C   UNK N   1      35.385  13.155  16.553  0.00  0.00     0.012 A 
HETATM    8  C   UNK N   1      36.176  10.579  17.292  0.00  0.00     0.032 A 
HETATM    9  C   UNK N   1      35.075  12.673  17.825  0.00  0.00     0.023 A 
HETATM   10  C   UNK N   1      35.477  11.376  18.175  0.00  0.00     0.045 A 
HETATM   11  C   UNK N   1      35.445  10.956  19.510  0.00  0.00     0.099 C 
ENDROOT
BRANCH   3  12
HETATM   12  C   UNK N   1      34.585  12.129  14.014  0.00  0.00     0.050 C 
BRANCH  12  13
HETATM   13  C   UNK N   1      33.989  10.714  13.570  0.00  0.00     0.034 C 
BRANCH  13  14
HETATM   14  C   UNK N   1      33.868  10.063  12.137  0.00  0.00     0.271 C 
BRANCH  14  15
HETATM   15  N   UNK N   1      34.679  10.660  11.056  0.00  0.00     0.080 N 
HETATM   16  C   UNK N   1      35.632   9.678  10.558  0.00  0.00     0.309 C 
HETATM   17  C   UNK N   1      33.860  11.066   9.926  0.00  0.00     0.309 C 
ENDBRANCH  14  15
ENDBRANCH  13  14
ENDBRANCH  12  13
ENDBRANCH   3  12
BRANCH   3  18
HETATM   18  C   UNK N   1      36.386  13.270  13.071  0.00  0.00    -0.019 A 
HETATM   19  C   UNK N   1      35.418  14.114  12.520  0.00  0.00     0.013 A 
HETATM   20  C   UNK N   1      35.466  14.400  11.147  0.00  0.00     0.043 A 
HETATM   21  C   UNK N   1      36.443  13.802  10.331  0.00  0.00     0.116 A 
HETATM   22  F   UNK N   1      36.494  14.049   9.011  0.00  0.00    -0.206 F 
HETATM   23  C   UNK N   1      37.402  12.977  10.874  0.00  0.00     0.043 A 
HETATM   24  C   UNK N   1      37.360  12.713  12.210  0.00  0.00     0.013 A 
ENDBRANCH   3  18
TORSDOF 5
ENDMDL
