REMARK  5 active torsions:
REMARK  status: ('A' for Active; 'I' for Inactive)
REMARK    1  A    between atoms: O_2  and  C_21 
REMARK    2  A    between atoms: O_4  and  C_28 
REMARK    3  A    between atoms: N_6  and  C_19 
REMARK    4  A    between atoms: N_8  and  C_14 
REMARK    5  A    between atoms: C_26  and  C_28 
ROOT
HETATM    1  F   UNK N   1       3.433   2.431   0.168  0.00  0.00    -0.204 F 
HETATM    2  O   UNK N   1       8.203   3.567   0.044  0.00  0.00    -0.286 OA
HETATM    3  N   UNK N   1       8.197  -0.437  -0.298  0.00  0.00    -0.348 N 
HETATM    4  C   UNK N   1       4.507   0.297  -0.124  0.00  0.00     0.105 A 
HETATM    5  C   UNK N   1       6.981   0.234  -0.211  0.00  0.00     0.085 A 
HETATM    6  C   UNK N   1       5.721  -0.441  -0.274  0.00  0.00     0.125 A 
HETATM    7  C   UNK N   1       6.986   1.648  -0.080  0.00  0.00     0.048 A 
HETATM    8  C   UNK N   1       4.561   1.696   0.003  0.00  0.00     0.146 A 
HETATM    9  C   UNK N   1       9.367   0.263  -0.316  0.00  0.00     0.114 A 
HETATM   10  C   UNK N   1       5.782   2.352   0.019  0.00  0.00     0.062 A 
HETATM   11  C   UNK N   1       9.409   1.649  -0.205  0.00  0.00     0.104 A 
HETATM   12  C   UNK N   1       8.201   2.351  -0.068  0.00  0.00     0.202 A 
ENDROOT
BRANCH   4  13
HETATM   13  N   UNK N   1       3.254  -0.387  -0.033  0.00  0.00    -0.374 N 
HETATM   14  C   UNK N   1       1.986   0.210  -0.375  0.00  0.00     0.130 C 
HETATM   15  C   UNK N   1       1.026  -0.478   0.579  0.00  0.00     0.028 C 
HETATM   16  C   UNK N   1       1.657  -1.864   0.794  0.00  0.00     0.100 C 
HETATM   17  C   UNK N   1      -0.423  -0.555   0.093  0.00  0.00     0.010 C 
HETATM   18  N   UNK N   1       1.435  -2.741  -0.362  0.00  0.00    -0.415 N 
HETATM   19  C   UNK N   1       3.130  -1.537   0.834  0.00  0.00     0.148 C 
HETATM   20  C   UNK N   1       0.003  -2.900  -0.599  0.00  0.00     0.114 C 
HETATM   21  H   UNK N   1       2.172  -3.175  -0.917  0.00  0.00     0.153 HD
HETATM   22  C   UNK N   1      -0.583  -1.565  -1.039  0.00  0.00     0.020 C 
ENDBRANCH   4  13
BRANCH   6  23
HETATM   23  O   UNK N   1       5.692  -1.774  -0.527  0.00  0.00    -0.351 OA
HETATM   24  C   UNK N   1       4.793  -2.376  -1.382  0.00  0.00     0.210 C 
ENDBRANCH   6  23
BRANCH   3  25
HETATM   25  C   UNK N   1       8.321  -1.903  -0.381  0.00  0.00     0.090 A 
HETATM   26  C   UNK N   1       7.843  -2.554   0.920  0.00  0.00     0.028 A 
HETATM   27  C   UNK N   1       9.315  -2.441   0.650  0.00  0.00     0.028 A 
ENDBRANCH   3  25
BRANCH  11  28
HETATM   28  C   UNK N   1      10.733   2.322  -0.241  0.00  0.00     0.181 C 
HETATM   29  O   UNK N   1      10.824   3.536  -0.144  0.00  0.00    -0.646 OA
BRANCH  28  30
HETATM   30  O   UNK N   1      11.855   1.590  -0.399  0.00  0.00    -0.772 OA
HETATM   31  H   UNK N   1      11.803   0.660  -0.508  0.00  0.00     0.167 HD
ENDBRANCH  28  30
ENDBRANCH  11  28
TORSDOF 5
