MODEL 1
REMARK VINA RESULT:      -7.5      0.000      0.000
REMARK  5 active torsions:
REMARK  status: ('A' for Active; 'I' for Inactive)
REMARK    1  A    between atoms: O_2  and  C_21 
REMARK    2  A    between atoms: O_4  and  C_28 
REMARK    3  A    between atoms: N_6  and  C_19 
REMARK    4  A    between atoms: N_8  and  C_14 
REMARK    5  A    between atoms: C_26  and  C_28 
ROOT
HETATM    1  F   UNK N   1      27.972  20.188   3.804  0.00  0.00    -0.204 F 
HETATM    2  O   UNK N   1      23.265  21.261   2.937  0.00  0.00    -0.286 OA
HETATM    3  N   UNK N   1      23.155  17.375   3.953  0.00  0.00    -0.348 N 
HETATM    4  C   UNK N   1      26.833  18.121   4.273  0.00  0.00     0.105 A 
HETATM    5  C   UNK N   1      24.378  18.038   3.957  0.00  0.00     0.085 A 
HETATM    6  C   UNK N   1      25.600  17.402   4.343  0.00  0.00     0.125 A 
HETATM    7  C   UNK N   1      24.416  19.409   3.587  0.00  0.00     0.048 A 
HETATM    8  C   UNK N   1      26.821  19.476   3.902  0.00  0.00     0.146 A 
HETATM    9  C   UNK N   1      22.009  18.051   3.656  0.00  0.00     0.114 A 
HETATM   10  C   UNK N   1      25.630  20.103   3.571  0.00  0.00     0.062 A 
HETATM   11  C   UNK N   1      22.006  19.397   3.305  0.00  0.00     0.104 A 
HETATM   12  C   UNK N   1      23.230  20.082   3.253  0.00  0.00     0.202 A 
ENDROOT
BRANCH   4  13
HETATM   13  N   UNK N   1      28.073  17.449   4.510  0.00  0.00    -0.374 N 
HETATM   14  C   UNK N   1      28.952  17.750   5.614  0.00  0.00     0.130 C 
HETATM   15  C   UNK N   1      30.325  17.461   5.035  0.00  0.00     0.028 C 
HETATM   16  C   UNK N   1      30.061  16.347   4.008  0.00  0.00     0.100 C 
HETATM   17  C   UNK N   1      31.393  17.079   6.063  0.00  0.00     0.010 C 
HETATM   18  N   UNK N   1      29.856  15.050   4.664  0.00  0.00    -0.415 N 
HETATM   19  C   UNK N   1      28.736  16.768   3.421  0.00  0.00     0.148 C 
HETATM   20  C   UNK N   1      31.033  14.700   5.455  0.00  0.00     0.114 C 
HETATM   21  H   UNK N   1      29.017  14.477   4.579  0.00  0.00     0.153 HD
HETATM   22  C   UNK N   1      31.163  15.677   6.617  0.00  0.00     0.020 C 
ENDBRANCH   4  13
BRANCH   6  23
HETATM   23  O   UNK N   1      25.567  16.132   4.821  0.00  0.00    -0.351 OA
HETATM   24  C   UNK N   1      25.804  15.799   6.138  0.00  0.00     0.210 C 
ENDBRANCH   6  23
BRANCH   3  25
HETATM   25  C   UNK N   1      22.998  15.943   4.263  0.00  0.00     0.090 A 
HETATM   26  C   UNK N   1      22.844  15.131   2.974  0.00  0.00     0.028 A 
HETATM   27  C   UNK N   1      21.633  15.418   3.813  0.00  0.00     0.028 A 
ENDBRANCH   3  25
BRANCH  11  28
HETATM   28  C   UNK N   1      20.705  20.047   3.005  0.00  0.00     0.181 C 
HETATM   29  O   UNK N   1      19.845  19.466   2.360  0.00  0.00    -0.646 OA
BRANCH  28  30
HETATM   30  O   UNK N   1      20.467  21.304   3.433  0.00  0.00    -0.772 OA
HETATM   31  H   UNK N   1      20.796  21.593   4.262  0.00  0.00     0.167 HD
ENDBRANCH  28  30
ENDBRANCH  11  28
TORSDOF 5
ENDMDL
MODEL 2
REMARK VINA RESULT:      -6.7     10.579     13.602
REMARK  5 active torsions:
REMARK  status: ('A' for Active; 'I' for Inactive)
REMARK    1  A    between atoms: O_2  and  C_21 
REMARK    2  A    between atoms: O_4  and  C_28 
REMARK    3  A    between atoms: N_6  and  C_19 
REMARK    4  A    between atoms: N_8  and  C_14 
REMARK    5  A    between atoms: C_26  and  C_28 
ROOT
HETATM    1  F   UNK N   1      36.504  14.880  14.127  0.00  0.00    -0.204 F 
HETATM    2  O   UNK N   1      35.382  17.541  10.162  0.00  0.00    -0.286 OA
HETATM    3  N   UNK N   1      34.887  13.756   8.906  0.00  0.00    -0.348 N 
HETATM    4  C   UNK N   1      35.897  13.219  12.494  0.00  0.00     0.105 A 
HETATM    5  C   UNK N   1      35.266  13.984  10.225  0.00  0.00     0.085 A 
HETATM    6  C   UNK N   1      35.454  12.925  11.168  0.00  0.00     0.125 A 
HETATM    7  C   UNK N   1      35.450  15.322  10.664  0.00  0.00     0.048 A 
HETATM    8  C   UNK N   1      36.066  14.559  12.884  0.00  0.00     0.146 A 
HETATM    9  C   UNK N   1      34.641  14.806   8.071  0.00  0.00     0.114 A 
HETATM   10  C   UNK N   1      35.840  15.586  11.981  0.00  0.00     0.062 A 
HETATM   11  C   UNK N   1      34.796  16.129   8.471  0.00  0.00     0.104 A 
HETATM   12  C   UNK N   1      35.224  16.391   9.782  0.00  0.00     0.202 A 
ENDROOT
BRANCH   4  13
HETATM   13  N   UNK N   1      36.234  12.159  13.394  0.00  0.00    -0.374 N 
HETATM   14  C   UNK N   1      35.547  11.914  14.639  0.00  0.00     0.130 C 
HETATM   15  C   UNK N   1      36.647  11.351  15.521  0.00  0.00     0.028 C 
HETATM   16  C   UNK N   1      37.580  10.637  14.528  0.00  0.00     0.100 C 
HETATM   17  C   UNK N   1      36.166  10.433  16.647  0.00  0.00     0.010 C 
HETATM   18  N   UNK N   1      37.016   9.355  14.087  0.00  0.00    -0.415 N 
HETATM   19  C   UNK N   1      37.553  11.571  13.342  0.00  0.00     0.148 C 
HETATM   20  C   UNK N   1      36.792   8.487  15.240  0.00  0.00     0.114 C 
HETATM   21  H   UNK N   1      36.812   9.107  13.120  0.00  0.00     0.153 HD
HETATM   22  C   UNK N   1      35.695   9.085  16.111  0.00  0.00     0.020 C 
ENDBRANCH   4  13
BRANCH   6  23
HETATM   23  O   UNK N   1      35.160  11.651  10.806  0.00  0.00    -0.351 OA
HETATM   24  C   UNK N   1      34.166  10.894  11.389  0.00  0.00     0.210 C 
ENDBRANCH   6  23
BRANCH   3  25
HETATM   25  C   UNK N   1      34.720  12.414   8.321  0.00  0.00     0.090 A 
HETATM   26  C   UNK N   1      35.942  12.043   7.476  0.00  0.00     0.028 A 
HETATM   27  C   UNK N   1      34.676  12.469   6.793  0.00  0.00     0.028 A 
ENDBRANCH   3  25
BRANCH  11  28
HETATM   28  C   UNK N   1      34.498  17.204   7.490  0.00  0.00     0.181 C 
HETATM   29  O   UNK N   1      34.562  16.995   6.289  0.00  0.00    -0.646 OA
BRANCH  28  30
HETATM   30  O   UNK N   1      34.165  18.437   7.925  0.00  0.00    -0.772 OA
HETATM   31  H   UNK N   1      33.265  18.669   8.050  0.00  0.00     0.167 HD
ENDBRANCH  28  30
ENDBRANCH  11  28
TORSDOF 5
ENDMDL
MODEL 3
REMARK VINA RESULT:      -6.7     10.630     13.310
REMARK  5 active torsions:
REMARK  status: ('A' for Active; 'I' for Inactive)
REMARK    1  A    between atoms: O_2  and  C_21 
REMARK    2  A    between atoms: O_4  and  C_28 
REMARK    3  A    between atoms: N_6  and  C_19 
REMARK    4  A    between atoms: N_8  and  C_14 
REMARK    5  A    between atoms: C_26  and  C_28 
ROOT
HETATM    1  F   UNK N   1      29.213  24.286  -1.825  0.00  0.00    -0.204 F 
HETATM    2  O   UNK N   1      32.814  20.973  -2.164  0.00  0.00    -0.286 OA
HETATM    3  N   UNK N   1      31.246  21.016  -5.863  0.00  0.00    -0.348 N 
HETATM    4  C   UNK N   1      29.128  23.604  -4.131  0.00  0.00     0.105 A 
HETATM    5  C   UNK N   1      30.720  21.869  -4.898  0.00  0.00     0.085 A 
HETATM    6  C   UNK N   1      29.663  22.792  -5.178  0.00  0.00     0.125 A 
HETATM    7  C   UNK N   1      31.270  21.845  -3.589  0.00  0.00     0.048 A 
HETATM    8  C   UNK N   1      29.704  23.546  -2.850  0.00  0.00     0.146 A 
HETATM    9  C   UNK N   1      32.309  20.215  -5.565  0.00  0.00     0.114 A 
HETATM   10  C   UNK N   1      30.758  22.684  -2.594  0.00  0.00     0.062 A 
HETATM   11  C   UNK N   1      32.882  20.177  -4.298  0.00  0.00     0.104 A 
HETATM   12  C   UNK N   1      32.343  20.992  -3.290  0.00  0.00     0.202 A 
ENDROOT
BRANCH   4  13
HETATM   13  N   UNK N   1      27.974  24.415  -4.367  0.00  0.00    -0.374 N 
HETATM   14  C   UNK N   1      27.937  25.842  -4.156  0.00  0.00     0.130 C 
HETATM   15  C   UNK N   1      26.496  26.081  -3.742  0.00  0.00     0.028 C 
HETATM   16  C   UNK N   1      25.718  24.977  -4.479  0.00  0.00     0.100 C 
HETATM   17  C   UNK N   1      25.963  27.483  -4.041  0.00  0.00     0.010 C 
HETATM   18  N   UNK N   1      25.560  25.291  -5.904  0.00  0.00    -0.415 N 
HETATM   19  C   UNK N   1      26.663  23.805  -4.379  0.00  0.00     0.148 C 
HETATM   20  C   UNK N   1      24.852  26.559  -6.059  0.00  0.00     0.114 C 
HETATM   21  H   UNK N   1      25.894  24.710  -6.672  0.00  0.00     0.153 HD
HETATM   22  C   UNK N   1      25.729  27.689  -5.534  0.00  0.00     0.020 C 
ENDBRANCH   4  13
BRANCH   6  23
HETATM   23  O   UNK N   1      29.212  22.921  -6.451  0.00  0.00    -0.351 OA
HETATM   24  C   UNK N   1      29.372  24.060  -7.213  0.00  0.00     0.210 C 
ENDBRANCH   6  23
BRANCH   3  25
HETATM   25  C   UNK N   1      30.725  20.911  -7.238  0.00  0.00     0.090 A 
HETATM   26  C   UNK N   1      29.775  19.716  -7.359  0.00  0.00     0.028 A 
HETATM   27  C   UNK N   1      31.168  19.609  -7.907  0.00  0.00     0.028 A 
ENDBRANCH   3  25
BRANCH  11  28
HETATM   28  C   UNK N   1      34.042  19.276  -4.073  0.00  0.00     0.181 C 
HETATM   29  O   UNK N   1      35.184  19.661  -4.268  0.00  0.00    -0.646 OA
BRANCH  28  30
HETATM   30  O   UNK N   1      33.838  18.007  -3.663  0.00  0.00    -0.772 OA
HETATM   31  H   UNK N   1      34.537  17.515  -3.279  0.00  0.00     0.167 HD
ENDBRANCH  28  30
ENDBRANCH  11  28
TORSDOF 5
ENDMDL
MODEL 4
REMARK VINA RESULT:      -6.6      8.648     13.066
REMARK  5 active torsions:
REMARK  status: ('A' for Active; 'I' for Inactive)
REMARK    1  A    between atoms: O_2  and  C_21 
REMARK    2  A    between atoms: O_4  and  C_28 
REMARK    3  A    between atoms: N_6  and  C_19 
REMARK    4  A    between atoms: N_8  and  C_14 
REMARK    5  A    between atoms: C_26  and  C_28 
ROOT
HETATM    1  F   UNK N   1      34.593  17.531   9.832  0.00  0.00    -0.204 F 
HETATM    2  O   UNK N   1      36.435  15.056  13.645  0.00  0.00    -0.286 OA
HETATM    3  N   UNK N   1      35.238  12.146  11.145  0.00  0.00    -0.348 N 
HETATM    4  C   UNK N   1      34.347  15.229   9.174  0.00  0.00     0.105 A 
HETATM    5  C   UNK N   1      35.079  13.474  10.760  0.00  0.00     0.085 A 
HETATM    6  C   UNK N   1      34.537  13.849   9.490  0.00  0.00     0.125 A 
HETATM    7  C   UNK N   1      35.493  14.500  11.649  0.00  0.00     0.048 A 
HETATM    8  C   UNK N   1      34.773  16.211  10.085  0.00  0.00     0.146 A 
HETATM    9  C   UNK N   1      35.836  11.843  12.332  0.00  0.00     0.114 A 
HETATM   10  C   UNK N   1      35.339  15.845  11.297  0.00  0.00     0.062 A 
HETATM   11  C   UNK N   1      36.268  12.822  13.221  0.00  0.00     0.104 A 
HETATM   12  C   UNK N   1      36.079  14.171  12.882  0.00  0.00     0.202 A 
ENDROOT
BRANCH   4  13
HETATM   13  N   UNK N   1      33.667  15.608   7.973  0.00  0.00    -0.374 N 
HETATM   14  C   UNK N   1      34.293  16.320   6.886  0.00  0.00     0.130 C 
HETATM   15  C   UNK N   1      33.149  17.148   6.328  0.00  0.00     0.028 C 
HETATM   16  C   UNK N   1      31.905  16.290   6.615  0.00  0.00     0.100 C 
HETATM   17  C   UNK N   1      33.283  17.522   4.850  0.00  0.00     0.010 C 
HETATM   18  N   UNK N   1      31.799  15.166   5.677  0.00  0.00    -0.415 N 
HETATM   19  C   UNK N   1      32.226  15.714   7.973  0.00  0.00     0.148 C 
HETATM   20  C   UNK N   1      31.729  15.665   4.307  0.00  0.00     0.114 C 
HETATM   21  H   UNK N   1      31.778  14.182   5.943  0.00  0.00     0.153 HD
HETATM   22  C   UNK N   1      33.056  16.317   3.943  0.00  0.00     0.020 C 
ENDBRANCH   4  13
BRANCH   6  23
HETATM   23  O   UNK N   1      34.254  12.886   8.576  0.00  0.00    -0.351 OA
HETATM   24  C   UNK N   1      34.997  12.666   7.435  0.00  0.00     0.210 C 
ENDBRANCH   6  23
BRANCH   3  25
HETATM   25  C   UNK N   1      34.796  10.998  10.333  0.00  0.00     0.090 A 
HETATM   26  C   UNK N   1      33.599  10.307  10.992  0.00  0.00     0.028 A 
HETATM   27  C   UNK N   1      34.958   9.680  11.092  0.00  0.00     0.028 A 
ENDBRANCH   3  25
BRANCH  11  28
HETATM   28  C   UNK N   1      36.915  12.392  14.488  0.00  0.00     0.181 C 
HETATM   29  O   UNK N   1      36.641  11.318  15.000  0.00  0.00    -0.646 OA
BRANCH  28  30
HETATM   30  O   UNK N   1      37.806  13.202  15.096  0.00  0.00    -0.772 OA
HETATM   31  H   UNK N   1      38.482  13.621  14.598  0.00  0.00     0.167 HD
ENDBRANCH  28  30
ENDBRANCH  11  28
TORSDOF 5
ENDMDL
MODEL 5
REMARK VINA RESULT:      -6.6      5.687     11.005
REMARK  5 active torsions:
REMARK  status: ('A' for Active; 'I' for Inactive)
REMARK    1  A    between atoms: O_2  and  C_21 
REMARK    2  A    between atoms: O_4  and  C_28 
REMARK    3  A    between atoms: N_6  and  C_19 
REMARK    4  A    between atoms: N_8  and  C_14 
REMARK    5  A    between atoms: C_26  and  C_28 
ROOT
HETATM    1  F   UNK N   1      31.942  18.803   8.326  0.00  0.00    -0.204 F 
HETATM    2  O   UNK N   1      35.944  16.758  10.290  0.00  0.00    -0.286 OA
HETATM    3  N   UNK N   1      34.114  13.666   8.492  0.00  0.00    -0.348 N 
HETATM    4  C   UNK N   1      31.783  16.500   7.644  0.00  0.00     0.105 A 
HETATM    5  C   UNK N   1      33.545  14.932   8.399  0.00  0.00     0.085 A 
HETATM    6  C   UNK N   1      32.348  15.188   7.657  0.00  0.00     0.125 A 
HETATM    7  C   UNK N   1      34.188  16.022   9.044  0.00  0.00     0.048 A 
HETATM    8  C   UNK N   1      32.455  17.548   8.297  0.00  0.00     0.146 A 
HETATM    9  C   UNK N   1      35.300  13.492   9.142  0.00  0.00     0.114 A 
HETATM   10  C   UNK N   1      33.638  17.306   8.978  0.00  0.00     0.062 A 
HETATM   11  C   UNK N   1      35.965  14.539   9.772  0.00  0.00     0.104 A 
HETATM   12  C   UNK N   1      35.392  15.820   9.737  0.00  0.00     0.202 A 
ENDROOT
BRANCH   4  13
HETATM   13  N   UNK N   1      30.510  16.730   7.034  0.00  0.00    -0.374 N 
HETATM   14  C   UNK N   1      30.341  17.221   5.688  0.00  0.00     0.130 C 
HETATM   15  C   UNK N   1      29.057  18.026   5.785  0.00  0.00     0.028 C 
HETATM   16  C   UNK N   1      28.260  17.307   6.887  0.00  0.00     0.100 C 
HETATM   17  C   UNK N   1      28.275  18.155   4.476  0.00  0.00     0.010 C 
HETATM   18  N   UNK N   1      27.664  16.060   6.393  0.00  0.00    -0.415 N 
HETATM   19  C   UNK N   1      29.345  16.930   7.867  0.00  0.00     0.148 C 
HETATM   20  C   UNK N   1      26.776  16.343   5.269  0.00  0.00     0.114 C 
HETATM   21  H   UNK N   1      27.843  15.133   6.779  0.00  0.00     0.153 HD
HETATM   22  C   UNK N   1      27.603  16.841   4.091  0.00  0.00     0.020 C 
ENDBRANCH   4  13
BRANCH   6  23
HETATM   23  O   UNK N   1      31.790  14.188   6.930  0.00  0.00    -0.351 OA
HETATM   24  C   UNK N   1      31.961  14.038   5.569  0.00  0.00     0.210 C 
ENDBRANCH   6  23
BRANCH   3  25
HETATM   25  C   UNK N   1      33.512  12.451   7.913  0.00  0.00     0.090 A 
HETATM   26  C   UNK N   1      33.096  11.481   9.022  0.00  0.00     0.028 A 
HETATM   27  C   UNK N   1      34.342  11.207   8.233  0.00  0.00     0.028 A 
ENDBRANCH   3  25
BRANCH  11  28
HETATM   28  C   UNK N   1      37.255  14.251  10.450  0.00  0.00     0.181 C 
HETATM   29  O   UNK N   1      37.334  13.390  11.313  0.00  0.00    -0.646 OA
BRANCH  28  30
HETATM   30  O   UNK N   1      38.358  14.957  10.125  0.00  0.00    -0.772 OA
HETATM   31  H   UNK N   1      38.320  15.614   9.456  0.00  0.00     0.167 HD
ENDBRANCH  28  30
ENDBRANCH  11  28
TORSDOF 5
ENDMDL
MODEL 6
REMARK VINA RESULT:      -6.6      3.941      6.293
REMARK  5 active torsions:
REMARK  status: ('A' for Active; 'I' for Inactive)
REMARK    1  A    between atoms: O_2  and  C_21 
REMARK    2  A    between atoms: O_4  and  C_28 
REMARK    3  A    between atoms: N_6  and  C_19 
REMARK    4  A    between atoms: N_8  and  C_14 
REMARK    5  A    between atoms: C_26  and  C_28 
ROOT
HETATM    1  F   UNK N   1      20.068  16.028   7.562  0.00  0.00    -0.204 F 
HETATM    2  O   UNK N   1      21.100  19.678   4.452  0.00  0.00    -0.286 OA
HETATM    3  N   UNK N   1      24.500  17.536   4.525  0.00  0.00    -0.348 N 
HETATM    4  C   UNK N   1      22.317  15.540   6.856  0.00  0.00     0.105 A 
HETATM    5  C   UNK N   1      23.414  17.104   5.280  0.00  0.00     0.085 A 
HETATM    6  C   UNK N   1      23.445  15.903   6.058  0.00  0.00     0.125 A 
HETATM    7  C   UNK N   1      22.217  17.867   5.261  0.00  0.00     0.048 A 
HETATM    8  C   UNK N   1      21.153  16.327   6.805  0.00  0.00     0.146 A 
HETATM    9  C   UNK N   1      24.389  18.643   3.736  0.00  0.00     0.114 A 
HETATM   10  C   UNK N   1      21.111  17.465   6.015  0.00  0.00     0.062 A 
HETATM   11  C   UNK N   1      23.227  19.407   3.681  0.00  0.00     0.104 A 
HETATM   12  C   UNK N   1      22.130  19.023   4.468  0.00  0.00     0.202 A 
ENDROOT
BRANCH   4  13
HETATM   13  N   UNK N   1      22.396  14.427   7.752  0.00  0.00    -0.374 N 
HETATM   14  C   UNK N   1      23.539  14.147   8.586  0.00  0.00     0.130 C 
HETATM   15  C   UNK N   1      23.526  12.631   8.669  0.00  0.00     0.028 C 
HETATM   16  C   UNK N   1      22.035  12.272   8.552  0.00  0.00     0.100 C 
HETATM   17  C   UNK N   1      24.180  12.048   9.924  0.00  0.00     0.010 C 
HETATM   18  N   UNK N   1      21.318  12.536   9.806  0.00  0.00    -0.415 N 
HETATM   19  C   UNK N   1      21.548  13.276   7.536  0.00  0.00     0.148 C 
HETATM   20  C   UNK N   1      21.912  11.760  10.892  0.00  0.00     0.114 C 
HETATM   21  H   UNK N   1      20.524  13.167   9.904  0.00  0.00     0.153 HD
HETATM   22  C   UNK N   1      23.319  12.275  11.163  0.00  0.00     0.020 C 
ENDBRANCH   4  13
BRANCH   6  23
HETATM   23  O   UNK N   1      24.532  15.093   5.989  0.00  0.00    -0.351 OA
HETATM   24  C   UNK N   1      24.596  13.955   5.213  0.00  0.00     0.210 C 
ENDBRANCH   6  23
BRANCH   3  25
HETATM   25  C   UNK N   1      25.809  16.860   4.508  0.00  0.00     0.090 A 
HETATM   26  C   UNK N   1      26.807  17.606   5.398  0.00  0.00     0.028 A 
HETATM   27  C   UNK N   1      26.894  17.756   3.907  0.00  0.00     0.028 A 
ENDBRANCH   3  25
BRANCH  11  28
HETATM   28  C   UNK N   1      23.202  20.592   2.786  0.00  0.00     0.181 C 
HETATM   29  O   UNK N   1      24.155  20.861   2.071  0.00  0.00    -0.646 OA
BRANCH  28  30
HETATM   30  O   UNK N   1      22.121  21.399   2.770  0.00  0.00    -0.772 OA
HETATM   31  H   UNK N   1      21.258  21.035   2.722  0.00  0.00     0.167 HD
ENDBRANCH  28  30
ENDBRANCH  11  28
TORSDOF 5
ENDMDL
MODEL 7
REMARK VINA RESULT:      -6.5      4.643      8.843
REMARK  5 active torsions:
REMARK  status: ('A' for Active; 'I' for Inactive)
REMARK    1  A    between atoms: O_2  and  C_21 
REMARK    2  A    between atoms: O_4  and  C_28 
REMARK    3  A    between atoms: N_6  and  C_19 
REMARK    4  A    between atoms: N_8  and  C_14 
REMARK    5  A    between atoms: C_26  and  C_28 
ROOT
HETATM    1  F   UNK N   1      27.279  17.001   7.153  0.00  0.00    -0.204 F 
HETATM    2  O   UNK N   1      31.656  18.272   8.966  0.00  0.00    -0.286 OA
HETATM    3  N   UNK N   1      32.594  16.185   5.663  0.00  0.00    -0.348 N 
HETATM    4  C   UNK N   1      28.831  16.089   5.555  0.00  0.00     0.105 A 
HETATM    5  C   UNK N   1      31.253  16.383   5.977  0.00  0.00     0.085 A 
HETATM    6  C   UNK N   1      30.188  15.902   5.151  0.00  0.00     0.125 A 
HETATM    7  C   UNK N   1      30.924  17.112   7.150  0.00  0.00     0.048 A 
HETATM    8  C   UNK N   1      28.553  16.818   6.724  0.00  0.00     0.146 A 
HETATM    9  C   UNK N   1      33.569  16.735   6.441  0.00  0.00     0.114 A 
HETATM   10  C   UNK N   1      29.586  17.321   7.500  0.00  0.00     0.062 A 
HETATM   11  C   UNK N   1      33.284  17.468   7.588  0.00  0.00     0.104 A 
HETATM   12  C   UNK N   1      31.941  17.645   7.958  0.00  0.00     0.202 A 
ENDROOT
BRANCH   4  13
HETATM   13  N   UNK N   1      27.768  15.481   4.815  0.00  0.00    -0.374 N 
HETATM   14  C   UNK N   1      26.827  16.218   4.007  0.00  0.00     0.130 C 
HETATM   15  C   UNK N   1      25.562  15.387   4.128  0.00  0.00     0.028 C 
HETATM   16  C   UNK N   1      26.085  13.953   4.317  0.00  0.00     0.100 C 
HETATM   17  C   UNK N   1      24.592  15.514   2.952  0.00  0.00     0.010 C 
HETATM   18  N   UNK N   1      26.564  13.384   3.051  0.00  0.00    -0.415 N 
HETATM   19  C   UNK N   1      27.292  14.171   5.197  0.00  0.00     0.148 C 
HETATM   20  C   UNK N   1      25.483  13.373   2.069  0.00  0.00     0.114 C 
HETATM   21  H   UNK N   1      27.511  13.047   2.883  0.00  0.00     0.153 HD
HETATM   22  C   UNK N   1      25.120  14.807   1.708  0.00  0.00     0.020 C 
ENDBRANCH   4  13
BRANCH   6  23
HETATM   23  O   UNK N   1      30.480  15.316   3.963  0.00  0.00    -0.351 OA
HETATM   24  C   UNK N   1      30.246  15.902   2.737  0.00  0.00     0.210 C 
ENDBRANCH   6  23
BRANCH   3  25
HETATM   25  C   UNK N   1      33.059  15.400   4.506  0.00  0.00     0.090 A 
HETATM   26  C   UNK N   1      33.367  13.960   4.926  0.00  0.00     0.028 A 
HETATM   27  C   UNK N   1      34.498  14.918   4.696  0.00  0.00     0.028 A 
ENDBRANCH   3  25
BRANCH  11  28
HETATM   28  C   UNK N   1      34.416  18.033   8.367  0.00  0.00     0.181 C 
HETATM   29  O   UNK N   1      35.087  18.952   7.924  0.00  0.00    -0.646 OA
BRANCH  28  30
HETATM   30  O   UNK N   1      34.723  17.519   9.576  0.00  0.00    -0.772 OA
HETATM   31  H   UNK N   1      35.003  16.627   9.655  0.00  0.00     0.167 HD
ENDBRANCH  28  30
ENDBRANCH  11  28
TORSDOF 5
ENDMDL
MODEL 8
REMARK VINA RESULT:      -6.5      4.027      6.336
REMARK  5 active torsions:
REMARK  status: ('A' for Active; 'I' for Inactive)
REMARK    1  A    between atoms: O_2  and  C_21 
REMARK    2  A    between atoms: O_4  and  C_28 
REMARK    3  A    between atoms: N_6  and  C_19 
REMARK    4  A    between atoms: N_8  and  C_14 
REMARK    5  A    between atoms: C_26  and  C_28 
ROOT
HETATM    1  F   UNK N   1      19.307  14.582   5.418  0.00  0.00    -0.204 F 
HETATM    2  O   UNK N   1      19.242  18.379   2.314  0.00  0.00    -0.286 OA
HETATM    3  N   UNK N   1      22.887  18.617   3.989  0.00  0.00    -0.348 N 
HETATM    4  C   UNK N   1      21.496  15.549   5.675  0.00  0.00     0.105 A 
HETATM    5  C   UNK N   1      22.041  17.576   4.361  0.00  0.00     0.085 A 
HETATM    6  C   UNK N   1      22.428  16.562   5.292  0.00  0.00     0.125 A 
HETATM    7  C   UNK N   1      20.749  17.500   3.775  0.00  0.00     0.048 A 
HETATM    8  C   UNK N   1      20.228  15.514   5.068  0.00  0.00     0.146 A 
HETATM    9  C   UNK N   1      22.498  19.510   3.035  0.00  0.00     0.114 A 
HETATM   10  C   UNK N   1      19.871  16.472   4.132  0.00  0.00     0.062 A 
HETATM   11  C   UNK N   1      21.247  19.457   2.429  0.00  0.00     0.104 A 
HETATM   12  C   UNK N   1      20.353  18.446   2.817  0.00  0.00     0.202 A 
ENDROOT
BRANCH   4  13
HETATM   13  N   UNK N   1      21.822  14.625   6.716  0.00  0.00    -0.374 N 
HETATM   14  C   UNK N   1      22.352  13.303   6.480  0.00  0.00     0.130 C 
HETATM   15  C   UNK N   1      21.784  12.505   7.640  0.00  0.00     0.028 C 
HETATM   16  C   UNK N   1      21.660  13.542   8.770  0.00  0.00     0.100 C 
HETATM   17  C   UNK N   1      22.607  11.281   8.047  0.00  0.00     0.010 C 
HETATM   18  N   UNK N   1      22.966  13.842   9.369  0.00  0.00    -0.415 N 
HETATM   19  C   UNK N   1      21.216  14.774   8.020  0.00  0.00     0.148 C 
HETATM   20  C   UNK N   1      23.561  12.621   9.905  0.00  0.00     0.114 C 
HETATM   21  H   UNK N   1      23.394  14.767   9.406  0.00  0.00     0.153 HD
HETATM   22  C   UNK N   1      23.897  11.682   8.755  0.00  0.00     0.020 C 
ENDBRANCH   4  13
BRANCH   6  23
HETATM   23  O   UNK N   1      23.700  16.543   5.765  0.00  0.00    -0.351 OA
HETATM   24  C   UNK N   1      24.667  15.657   5.339  0.00  0.00     0.210 C 
ENDBRANCH   6  23
BRANCH   3  25
HETATM   25  C   UNK N   1      24.225  18.832   4.567  0.00  0.00     0.090 A 
HETATM   26  C   UNK N   1      24.868  20.088   3.972  0.00  0.00     0.028 A 
HETATM   27  C   UNK N   1      25.318  18.735   3.502  0.00  0.00     0.028 A 
ENDBRANCH   3  25
BRANCH  11  28
HETATM   28  C   UNK N   1      20.918  20.472   1.395  0.00  0.00     0.181 C 
HETATM   29  O   UNK N   1      20.899  21.662   1.667  0.00  0.00    -0.646 OA
BRANCH  28  30
HETATM   30  O   UNK N   1      20.618  20.080   0.140  0.00  0.00    -0.772 OA
HETATM   31  H   UNK N   1      20.200  20.672  -0.455  0.00  0.00     0.167 HD
ENDBRANCH  28  30
ENDBRANCH  11  28
TORSDOF 5
ENDMDL
MODEL 9
REMARK VINA RESULT:      -6.5      8.535     11.041
REMARK  5 active torsions:
REMARK  status: ('A' for Active; 'I' for Inactive)
REMARK    1  A    between atoms: O_2  and  C_21 
REMARK    2  A    between atoms: O_4  and  C_28 
REMARK    3  A    between atoms: N_6  and  C_19 
REMARK    4  A    between atoms: N_8  and  C_14 
REMARK    5  A    between atoms: C_26  and  C_28 
ROOT
HETATM    1  F   UNK N   1      35.445  16.950  10.279  0.00  0.00    -0.204 F 
HETATM    2  O   UNK N   1      33.905  17.954   5.731  0.00  0.00    -0.286 OA
HETATM    3  N   UNK N   1      33.822  13.939   5.869  0.00  0.00    -0.348 N 
HETATM    4  C   UNK N   1      34.990  14.776   9.351  0.00  0.00     0.105 A 
HETATM    5  C   UNK N   1      34.209  14.645   7.005  0.00  0.00     0.085 A 
HETATM    6  C   UNK N   1      34.547  14.000   8.236  0.00  0.00     0.125 A 
HETATM    7  C   UNK N   1      34.247  16.063   6.950  0.00  0.00     0.048 A 
HETATM    8  C   UNK N   1      35.012  16.178   9.251  0.00  0.00     0.146 A 
HETATM    9  C   UNK N   1      33.430  14.607   4.747  0.00  0.00     0.114 A 
HETATM   10  C   UNK N   1      34.641  16.802   8.070  0.00  0.00     0.062 A 
HETATM   11  C   UNK N   1      33.441  15.995   4.663  0.00  0.00     0.104 A 
HETATM   12  C   UNK N   1      33.872  16.734   5.776  0.00  0.00     0.202 A 
ENDROOT
BRANCH   4  13
HETATM   13  N   UNK N   1      35.474  14.130  10.532  0.00  0.00    -0.374 N 
HETATM   14  C   UNK N   1      34.835  14.229  11.821  0.00  0.00     0.130 C 
HETATM   15  C   UNK N   1      36.007  14.139  12.782  0.00  0.00     0.028 C 
HETATM   16  C   UNK N   1      37.024  13.260  12.035  0.00  0.00     0.100 C 
HETATM   17  C   UNK N   1      35.663  13.598  14.171  0.00  0.00     0.010 C 
HETATM   18  N   UNK N   1      36.640  11.844  12.072  0.00  0.00    -0.415 N 
HETATM   19  C   UNK N   1      36.862  13.732  10.610  0.00  0.00     0.148 C 
HETATM   20  C   UNK N   1      36.543  11.390  13.457  0.00  0.00     0.114 C 
HETATM   21  H   UNK N   1      36.467  11.263  11.253  0.00  0.00     0.153 HD
HETATM   22  C   UNK N   1      35.379  12.099  14.136  0.00  0.00     0.020 C 
ENDBRANCH   4  13
BRANCH   6  23
HETATM   23  O   UNK N   1      34.394  12.656   8.348  0.00  0.00    -0.351 OA
HETATM   24  C   UNK N   1      33.395  12.053   9.082  0.00  0.00     0.210 C 
ENDBRANCH   6  23
BRANCH   3  25
HETATM   25  C   UNK N   1      33.796  12.468   5.787  0.00  0.00     0.090 A 
HETATM   26  C   UNK N   1      35.040  11.952   5.058  0.00  0.00     0.028 A 
HETATM   27  C   UNK N   1      33.725  11.989   4.336  0.00  0.00     0.028 A 
ENDBRANCH   3  25
BRANCH  11  28
HETATM   28  C   UNK N   1      32.990  16.631   3.398  0.00  0.00     0.181 C 
HETATM   29  O   UNK N   1      33.411  16.249   2.317  0.00  0.00    -0.646 OA
BRANCH  28  30
HETATM   30  O   UNK N   1      32.115  17.657   3.436  0.00  0.00    -0.772 OA
HETATM   31  H   UNK N   1      31.432  17.721   2.797  0.00  0.00     0.167 HD
ENDBRANCH  28  30
ENDBRANCH  11  28
TORSDOF 5
ENDMDL
