REMARK  10 active torsions:
REMARK  status: ('A' for Active; 'I' for Inactive)
REMARK    1  A    between atoms: O_1  and  C_8 
REMARK    2  A    between atoms: O_2  and  C_14 
REMARK    3  A    between atoms: O_2  and  C_17 
REMARK    4  A    between atoms: N_4  and  C_13 
REMARK    5  A    between atoms: N_4  and  C_15 
REMARK    6  A    between atoms: N_4  and  C_16 
REMARK    7  A    between atoms: C_5  and  C_8 
REMARK    8  A    between atoms: C_8  and  C_12 
REMARK    9  A    between atoms: C_8  and  C_14 
REMARK   10  A    between atoms: C_13  and  C_17 
ROOT
HETATM    1  C   UNK N   1       2.456   0.386   0.424  0.00  0.00     0.176 C 
ENDROOT
BRANCH   1   2
HETATM    2  O   UNK N   1       1.512   0.758   1.393  0.00  0.00    -0.374 OA
HETATM    3  H   UNK N   1       1.409   1.452   2.063  0.00  0.00     0.211 HD
ENDBRANCH   1   2
BRANCH   1   4
HETATM    4  C   UNK N   1       2.259   1.282  -0.855  0.00  0.00     0.035 C 
HETATM    5  C   UNK N   1       0.967   2.114  -0.870  0.00  0.00     0.008 C 
HETATM    6  C   UNK N   1       1.114   3.343   0.034  0.00  0.00     0.001 C 
HETATM    7  C   UNK N   1       2.299   4.198  -0.411  0.00  0.00     0.000 C 
HETATM    8  C   UNK N   1       3.587   3.379  -0.400  0.00  0.00     0.001 C 
HETATM    9  C   UNK N   1       3.441   2.157  -1.304  0.00  0.00     0.008 C 
ENDBRANCH   1   4
BRANCH   1  10
HETATM   10  C   UNK N   1       2.217  -1.084   0.112  0.00  0.00    -0.014 A 
HETATM   11  C   UNK N   1       2.340  -2.041   1.134  0.00  0.00     0.011 A 
HETATM   12  C   UNK N   1       2.149  -3.399   0.862  0.00  0.00     0.001 A 
HETATM   13  C   UNK N   1       1.830  -3.816  -0.432  0.00  0.00     0.000 A 
HETATM   14  C   UNK N   1       1.698  -2.876  -1.456  0.00  0.00     0.001 A 
HETATM   15  C   UNK N   1       1.891  -1.518  -1.188  0.00  0.00     0.011 A 
ENDBRANCH   1  10
BRANCH   1  16
HETATM   16  C   UNK N   1       3.851   0.568   1.031  0.00  0.00     0.298 C 
HETATM   17  O   UNK N   1       3.954   1.082   2.133  0.00  0.00    -0.261 OA
BRANCH  16  18
HETATM   18  O   UNK N   1       4.988   0.185   0.395  0.00  0.00    -0.317 OA
BRANCH  18  19
HETATM   19  C   UNK N   1       5.031  -0.604  -0.729  0.00  0.00     0.206 C 
BRANCH  19  20
HETATM   20  C   UNK N   1       6.443  -1.173  -0.947  0.00  0.00     0.263 C 
BRANCH  20  21
HETATM   21  N   UNK N   1       7.150  -1.607   0.279  0.00  0.00    -0.070 N 
HETATM   22  C   UNK N   1       7.646  -0.437   0.997  0.00  0.00     0.272 C 
BRANCH  21  23
HETATM   23  C   UNK N   1       6.290  -2.354   1.210  0.00  0.00     0.232 C 
HETATM   24  C   UNK N   1       5.708  -3.629   0.606  0.00  0.00     0.035 C 
ENDBRANCH  21  23
BRANCH  21  25
HETATM   25  C   UNK N   1       8.301  -2.454  -0.072  0.00  0.00     0.232 C 
HETATM   26  C   UNK N   1       9.305  -1.770  -1.001  0.00  0.00     0.035 C 
ENDBRANCH  21  25
ENDBRANCH  20  21
ENDBRANCH  19  20
ENDBRANCH  18  19
ENDBRANCH  16  18
ENDBRANCH   1  16
TORSDOF 10
