MODEL 1
REMARK VINA RESULT:      -6.3      0.000      0.000
REMARK  10 active torsions:
REMARK  status: ('A' for Active; 'I' for Inactive)
REMARK    1  A    between atoms: O_1  and  C_8 
REMARK    2  A    between atoms: O_2  and  C_14 
REMARK    3  A    between atoms: O_2  and  C_17 
REMARK    4  A    between atoms: N_4  and  C_13 
REMARK    5  A    between atoms: N_4  and  C_15 
REMARK    6  A    between atoms: N_4  and  C_16 
REMARK    7  A    between atoms: C_5  and  C_8 
REMARK    8  A    between atoms: C_8  and  C_12 
REMARK    9  A    between atoms: C_8  and  C_14 
REMARK   10  A    between atoms: C_13  and  C_17 
ROOT
HETATM    1  C   UNK N   1      26.829  24.566  -4.595  0.00  0.00     0.176 C 
ENDROOT
BRANCH   1   2
HETATM    2  O   UNK N   1      25.482  24.636  -4.208  0.00  0.00    -0.374 OA
HETATM    3  H   UNK N   1      24.957  25.070  -3.517  0.00  0.00     0.211 HD
ENDBRANCH   1   2
BRANCH   1   4
HETATM    4  C   UNK N   1      27.322  26.005  -5.000  0.00  0.00     0.035 C 
HETATM    5  C   UNK N   1      26.497  26.686  -6.102  0.00  0.00     0.008 C 
HETATM    6  C   UNK N   1      25.189  27.239  -5.524  0.00  0.00     0.001 C 
HETATM    7  C   UNK N   1      25.476  28.224  -4.393  0.00  0.00     0.000 C 
HETATM    8  C   UNK N   1      26.297  27.556  -3.293  0.00  0.00     0.001 C 
HETATM    9  C   UNK N   1      27.601  27.009  -3.869  0.00  0.00     0.008 C 
ENDBRANCH   1   4
BRANCH   1  10
HETATM   10  C   UNK N   1      26.903  23.604  -5.772  0.00  0.00    -0.014 A 
HETATM   11  C   UNK N   1      25.729  22.996  -6.249  0.00  0.00     0.011 A 
HETATM   12  C   UNK N   1      25.779  22.091  -7.313  0.00  0.00     0.001 A 
HETATM   13  C   UNK N   1      27.002  21.785  -7.915  0.00  0.00     0.000 A 
HETATM   14  C   UNK N   1      28.176  22.387  -7.457  0.00  0.00     0.001 A 
HETATM   15  C   UNK N   1      28.129  23.290  -6.391  0.00  0.00     0.011 A 
ENDBRANCH   1  10
BRANCH   1  16
HETATM   16  C   UNK N   1      27.630  24.005  -3.416  0.00  0.00     0.298 C 
HETATM   17  O   UNK N   1      27.052  23.774  -2.366  0.00  0.00    -0.261 OA
BRANCH  16  18
HETATM   18  O   UNK N   1      28.963  23.755  -3.481  0.00  0.00    -0.317 OA
BRANCH  18  19
HETATM   19  C   UNK N   1      29.622  22.810  -2.733  0.00  0.00     0.206 C 
BRANCH  19  20
HETATM   20  C   UNK N   1      31.146  22.979  -2.853  0.00  0.00     0.263 C 
BRANCH  20  21
HETATM   21  N   UNK N   1      31.854  21.882  -3.549  0.00  0.00    -0.070 N 
HETATM   22  C   UNK N   1      32.516  22.405  -4.740  0.00  0.00     0.272 C 
BRANCH  21  23
HETATM   23  C   UNK N   1      32.891  21.246  -2.721  0.00  0.00     0.232 C 
HETATM   24  C   UNK N   1      34.020  20.623  -3.538  0.00  0.00     0.035 C 
ENDBRANCH  21  23
BRANCH  21  25
HETATM   25  C   UNK N   1      30.897  20.847  -3.971  0.00  0.00     0.232 C 
HETATM   26  C   UNK N   1      30.843  20.642  -5.485  0.00  0.00     0.035 C 
ENDBRANCH  21  25
ENDBRANCH  20  21
ENDBRANCH  19  20
ENDBRANCH  18  19
ENDBRANCH  16  18
ENDBRANCH   1  16
TORSDOF 10
ENDMDL
MODEL 2
REMARK VINA RESULT:      -5.9     18.567     22.769
REMARK  10 active torsions:
REMARK  status: ('A' for Active; 'I' for Inactive)
REMARK    1  A    between atoms: O_1  and  C_8 
REMARK    2  A    between atoms: O_2  and  C_14 
REMARK    3  A    between atoms: O_2  and  C_17 
REMARK    4  A    between atoms: N_4  and  C_13 
REMARK    5  A    between atoms: N_4  and  C_15 
REMARK    6  A    between atoms: N_4  and  C_16 
REMARK    7  A    between atoms: C_5  and  C_8 
REMARK    8  A    between atoms: C_8  and  C_12 
REMARK    9  A    between atoms: C_8  and  C_14 
REMARK   10  A    between atoms: C_13  and  C_17 
ROOT
HETATM    1  C   UNK N   1      35.688  12.696  14.336  0.00  0.00     0.176 C 
ENDROOT
BRANCH   1   2
HETATM    2  O   UNK N   1      34.359  12.259  14.446  0.00  0.00    -0.374 OA
HETATM    3  H   UNK N   1      33.822  11.513  14.133  0.00  0.00     0.211 HD
ENDBRANCH   1   2
BRANCH   1   4
HETATM    4  C   UNK N   1      36.643  11.445  14.357  0.00  0.00     0.035 C 
HETATM    5  C   UNK N   1      36.894  10.845  15.750  0.00  0.00     0.008 C 
HETATM    6  C   UNK N   1      35.693  10.002  16.192  0.00  0.00     0.001 C 
HETATM    7  C   UNK N   1      35.414   8.892  15.180  0.00  0.00     0.000 C 
HETATM    8  C   UNK N   1      35.164   9.479  13.794  0.00  0.00     0.001 C 
HETATM    9  C   UNK N   1      36.363  10.315  13.352  0.00  0.00     0.008 C 
ENDBRANCH   1   4
BRANCH   1  10
HETATM   10  C   UNK N   1      35.952  13.613  15.521  0.00  0.00    -0.014 A 
HETATM   11  C   UNK N   1      36.989  14.560  15.450  0.00  0.00     0.011 A 
HETATM   12  C   UNK N   1      37.264  15.395  16.537  0.00  0.00     0.001 A 
HETATM   13  C   UNK N   1      36.506  15.297  17.705  0.00  0.00     0.000 A 
HETATM   14  C   UNK N   1      35.468  14.366  17.788  0.00  0.00     0.001 A 
HETATM   15  C   UNK N   1      35.192  13.528  16.704  0.00  0.00     0.011 A 
ENDBRANCH   1  10
BRANCH   1  16
HETATM   16  C   UNK N   1      35.819  13.484  13.029  0.00  0.00     0.298 C 
HETATM   17  O   UNK N   1      36.881  13.461  12.429  0.00  0.00    -0.261 OA
BRANCH  16  18
HETATM   18  O   UNK N   1      34.803  14.216  12.504  0.00  0.00    -0.317 OA
BRANCH  18  19
HETATM   19  C   UNK N   1      34.946  15.166  11.522  0.00  0.00     0.206 C 
BRANCH  19  20
HETATM   20  C   UNK N   1      33.923  14.948  10.394  0.00  0.00     0.263 C 
BRANCH  20  21
HETATM   21  N   UNK N   1      34.241  15.614   9.110  0.00  0.00    -0.070 N 
HETATM   22  C   UNK N   1      33.087  15.534   8.220  0.00  0.00     0.272 C 
BRANCH  21  23
HETATM   23  C   UNK N   1      34.572  17.039   9.263  0.00  0.00     0.232 C 
HETATM   24  C   UNK N   1      33.815  17.944   8.295  0.00  0.00     0.035 C 
ENDBRANCH  21  23
BRANCH  21  25
HETATM   25  C   UNK N   1      35.374  14.940   8.457  0.00  0.00     0.232 C 
HETATM   26  C   UNK N   1      35.208  14.789   6.944  0.00  0.00     0.035 C 
ENDBRANCH  21  25
ENDBRANCH  20  21
ENDBRANCH  19  20
ENDBRANCH  18  19
ENDBRANCH  16  18
ENDBRANCH   1  16
TORSDOF 10
ENDMDL
MODEL 3
REMARK VINA RESULT:      -5.7     10.675     12.852
REMARK  10 active torsions:
REMARK  status: ('A' for Active; 'I' for Inactive)
REMARK    1  A    between atoms: O_1  and  C_8 
REMARK    2  A    between atoms: O_2  and  C_14 
REMARK    3  A    between atoms: O_2  and  C_17 
REMARK    4  A    between atoms: N_4  and  C_13 
REMARK    5  A    between atoms: N_4  and  C_15 
REMARK    6  A    between atoms: N_4  and  C_16 
REMARK    7  A    between atoms: C_5  and  C_8 
REMARK    8  A    between atoms: C_8  and  C_12 
REMARK    9  A    between atoms: C_8  and  C_14 
REMARK   10  A    between atoms: C_13  and  C_17 
ROOT
HETATM    1  C   UNK N   1      28.794  17.349   4.547  0.00  0.00     0.176 C 
ENDROOT
BRANCH   1   2
HETATM    2  O   UNK N   1      28.971  17.614   3.181  0.00  0.00    -0.374 OA
HETATM    3  H   UNK N   1      29.432  17.213   2.428  0.00  0.00     0.211 HD
ENDBRANCH   1   2
BRANCH   1   4
HETATM    4  C   UNK N   1      27.810  16.132   4.711  0.00  0.00     0.035 C 
HETATM    5  C   UNK N   1      26.322  16.474   4.536  0.00  0.00     0.008 C 
HETATM    6  C   UNK N   1      25.980  16.619   3.049  0.00  0.00     0.001 C 
HETATM    7  C   UNK N   1      26.321  15.337   2.292  0.00  0.00     0.000 C 
HETATM    8  C   UNK N   1      27.798  14.989   2.461  0.00  0.00     0.001 C 
HETATM    9  C   UNK N   1      28.136  14.841   3.943  0.00  0.00     0.008 C 
ENDBRANCH   1   4
BRANCH   1  10
HETATM   10  C   UNK N   1      28.221  18.612   5.174  0.00  0.00    -0.014 A 
HETATM   11  C   UNK N   1      28.153  18.725   6.573  0.00  0.00     0.011 A 
HETATM   12  C   UNK N   1      27.607  19.867   7.168  0.00  0.00     0.001 A 
HETATM   13  C   UNK N   1      27.126  20.909   6.372  0.00  0.00     0.000 A 
HETATM   14  C   UNK N   1      27.192  20.813   4.981  0.00  0.00     0.001 A 
HETATM   15  C   UNK N   1      27.735  19.672   4.384  0.00  0.00     0.011 A 
ENDBRANCH   1  10
BRANCH   1  16
HETATM   16  C   UNK N   1      30.170  17.048   5.151  0.00  0.00     0.298 C 
HETATM   17  O   UNK N   1      31.160  17.550   4.645  0.00  0.00    -0.261 OA
BRANCH  16  18
HETATM   18  O   UNK N   1      30.341  16.241   6.229  0.00  0.00    -0.317 OA
BRANCH  18  19
HETATM   19  C   UNK N   1      31.122  16.542   7.319  0.00  0.00     0.206 C 
BRANCH  19  20
HETATM   20  C   UNK N   1      32.358  15.629   7.379  0.00  0.00     0.263 C 
BRANCH  20  21
HETATM   21  N   UNK N   1      33.653  16.293   7.109  0.00  0.00    -0.070 N 
HETATM   22  C   UNK N   1      34.645  15.842   8.079  0.00  0.00     0.272 C 
BRANCH  21  23
HETATM   23  C   UNK N   1      34.188  15.996   5.771  0.00  0.00     0.232 C 
HETATM   24  C   UNK N   1      35.387  15.052   5.795  0.00  0.00     0.035 C 
ENDBRANCH  21  23
BRANCH  21  25
HETATM   25  C   UNK N   1      33.511  17.752   7.239  0.00  0.00     0.232 C 
HETATM   26  C   UNK N   1      34.530  18.384   8.188  0.00  0.00     0.035 C 
ENDBRANCH  21  25
ENDBRANCH  20  21
ENDBRANCH  19  20
ENDBRANCH  18  19
ENDBRANCH  16  18
ENDBRANCH   1  16
TORSDOF 10
ENDMDL
MODEL 4
REMARK VINA RESULT:      -5.7      1.422      3.977
REMARK  10 active torsions:
REMARK  status: ('A' for Active; 'I' for Inactive)
REMARK    1  A    between atoms: O_1  and  C_8 
REMARK    2  A    between atoms: O_2  and  C_14 
REMARK    3  A    between atoms: O_2  and  C_17 
REMARK    4  A    between atoms: N_4  and  C_13 
REMARK    5  A    between atoms: N_4  and  C_15 
REMARK    6  A    between atoms: N_4  and  C_16 
REMARK    7  A    between atoms: C_5  and  C_8 
REMARK    8  A    between atoms: C_8  and  C_12 
REMARK    9  A    between atoms: C_8  and  C_14 
REMARK   10  A    between atoms: C_13  and  C_17 
ROOT
HETATM    1  C   UNK N   1      27.192  25.348  -5.019  0.00  0.00     0.176 C 
ENDROOT
BRANCH   1   2
HETATM    2  O   UNK N   1      28.321  25.188  -5.836  0.00  0.00    -0.374 OA
HETATM    3  H   UNK N   1      28.716  25.626  -6.607  0.00  0.00     0.211 HD
ENDBRANCH   1   2
BRANCH   1   4
HETATM    4  C   UNK N   1      25.941  24.725  -5.744  0.00  0.00     0.035 C 
HETATM    5  C   UNK N   1      25.412  25.537  -6.936  0.00  0.00     0.008 C 
HETATM    6  C   UNK N   1      26.301  25.320  -8.166  0.00  0.00     0.001 C 
HETATM    7  C   UNK N   1      26.367  23.837  -8.525  0.00  0.00     0.000 C 
HETATM    8  C   UNK N   1      26.891  23.021  -7.346  0.00  0.00     0.001 C 
HETATM    9  C   UNK N   1      26.003  23.235  -6.122  0.00  0.00     0.008 C 
ENDBRANCH   1   4
BRANCH   1  10
HETATM   10  C   UNK N   1      27.013  26.842  -4.795  0.00  0.00    -0.014 A 
HETATM   11  C   UNK N   1      27.769  27.754  -5.552  0.00  0.00     0.011 A 
HETATM   12  C   UNK N   1      27.638  29.130  -5.344  0.00  0.00     0.001 A 
HETATM   13  C   UNK N   1      26.749  29.612  -4.381  0.00  0.00     0.000 A 
HETATM   14  C   UNK N   1      25.987  28.718  -3.626  0.00  0.00     0.001 A 
HETATM   15  C   UNK N   1      26.117  27.341  -3.830  0.00  0.00     0.011 A 
ENDBRANCH   1  10
BRANCH   1  16
HETATM   16  C   UNK N   1      27.474  24.653  -3.683  0.00  0.00     0.298 C 
HETATM   17  O   UNK N   1      26.535  24.257  -3.013  0.00  0.00    -0.261 OA
BRANCH  16  18
HETATM   18  O   UNK N   1      28.729  24.458  -3.204  0.00  0.00    -0.317 OA
BRANCH  18  19
HETATM   19  C   UNK N   1      29.249  23.240  -2.836  0.00  0.00     0.206 C 
BRANCH  19  20
HETATM   20  C   UNK N   1      30.779  23.227  -2.992  0.00  0.00     0.263 C 
BRANCH  20  21
HETATM   21  N   UNK N   1      31.295  22.454  -4.144  0.00  0.00    -0.070 N 
HETATM   22  C   UNK N   1      31.182  23.256  -5.359  0.00  0.00     0.272 C 
BRANCH  21  23
HETATM   23  C   UNK N   1      32.710  22.079  -4.003  0.00  0.00     0.232 C 
HETATM   24  C   UNK N   1      32.975  21.150  -2.822  0.00  0.00     0.035 C 
ENDBRANCH  21  23
BRANCH  21  25
HETATM   25  C   UNK N   1      30.504  21.227  -4.327  0.00  0.00     0.232 C 
HETATM   26  C   UNK N   1      30.059  20.994  -5.771  0.00  0.00     0.035 C 
ENDBRANCH  21  25
ENDBRANCH  20  21
ENDBRANCH  19  20
ENDBRANCH  18  19
ENDBRANCH  16  18
ENDBRANCH   1  16
TORSDOF 10
ENDMDL
MODEL 5
REMARK VINA RESULT:      -5.7     15.384     18.764
REMARK  10 active torsions:
REMARK  status: ('A' for Active; 'I' for Inactive)
REMARK    1  A    between atoms: O_1  and  C_8 
REMARK    2  A    between atoms: O_2  and  C_14 
REMARK    3  A    between atoms: O_2  and  C_17 
REMARK    4  A    between atoms: N_4  and  C_13 
REMARK    5  A    between atoms: N_4  and  C_15 
REMARK    6  A    between atoms: N_4  and  C_16 
REMARK    7  A    between atoms: C_5  and  C_8 
REMARK    8  A    between atoms: C_8  and  C_12 
REMARK    9  A    between atoms: C_8  and  C_14 
REMARK   10  A    between atoms: C_13  and  C_17 
ROOT
HETATM    1  C   UNK N   1      34.141  15.929   9.306  0.00  0.00     0.176 C 
ENDROOT
BRANCH   1   2
HETATM    2  O   UNK N   1      32.872  15.693   9.857  0.00  0.00    -0.374 OA
HETATM    3  H   UNK N   1      32.115  15.111   9.688  0.00  0.00     0.211 HD
ENDBRANCH   1   2
BRANCH   1   4
HETATM    4  C   UNK N   1      33.992  16.882   8.063  0.00  0.00     0.035 C 
HETATM    5  C   UNK N   1      33.637  16.177   6.744  0.00  0.00     0.008 C 
HETATM    6  C   UNK N   1      32.148  15.818   6.715  0.00  0.00     0.001 C 
HETATM    7  C   UNK N   1      31.290  17.070   6.892  0.00  0.00     0.000 C 
HETATM    8  C   UNK N   1      31.636  17.778   8.200  0.00  0.00     0.001 C 
HETATM    9  C   UNK N   1      33.120  18.139   8.226  0.00  0.00     0.008 C 
ENDBRANCH   1   4
BRANCH   1  10
HETATM   10  C   UNK N   1      34.707  14.576   8.900  0.00  0.00    -0.014 A 
HETATM   11  C   UNK N   1      33.892  13.433   8.965  0.00  0.00     0.011 A 
HETATM   12  C   UNK N   1      34.401  12.177   8.620  0.00  0.00     0.001 A 
HETATM   13  C   UNK N   1      35.728  12.049   8.205  0.00  0.00     0.000 A 
HETATM   14  C   UNK N   1      36.548  13.177   8.130  0.00  0.00     0.001 A 
HETATM   15  C   UNK N   1      36.043  14.433   8.476  0.00  0.00     0.011 A 
ENDBRANCH   1  10
BRANCH   1  16
HETATM   16  C   UNK N   1      35.019  16.554  10.395  0.00  0.00     0.298 C 
HETATM   17  O   UNK N   1      35.708  17.521  10.116  0.00  0.00    -0.261 OA
BRANCH  16  18
HETATM   18  O   UNK N   1      35.069  16.078  11.666  0.00  0.00    -0.317 OA
BRANCH  18  19
HETATM   19  C   UNK N   1      36.051  15.250  12.155  0.00  0.00     0.206 C 
BRANCH  19  20
HETATM   20  C   UNK N   1      35.515  13.823  12.358  0.00  0.00     0.263 C 
BRANCH  20  21
HETATM   21  N   UNK N   1      35.942  13.155  13.608  0.00  0.00    -0.070 N 
HETATM   22  C   UNK N   1      36.527  14.140  14.513  0.00  0.00     0.272 C 
BRANCH  21  23
HETATM   23  C   UNK N   1      34.833  12.510  14.328  0.00  0.00     0.232 C 
HETATM   24  C   UNK N   1      34.879  12.735  15.837  0.00  0.00     0.035 C 
ENDBRANCH  21  23
BRANCH  21  25
HETATM   25  C   UNK N   1      36.962  12.135  13.316  0.00  0.00     0.232 C 
HETATM   26  C   UNK N   1      36.918  11.618  11.877  0.00  0.00     0.035 C 
ENDBRANCH  21  25
ENDBRANCH  20  21
ENDBRANCH  19  20
ENDBRANCH  18  19
ENDBRANCH  16  18
ENDBRANCH   1  16
TORSDOF 10
ENDMDL
MODEL 6
REMARK VINA RESULT:      -5.7      2.008      3.915
REMARK  10 active torsions:
REMARK  status: ('A' for Active; 'I' for Inactive)
REMARK    1  A    between atoms: O_1  and  C_8 
REMARK    2  A    between atoms: O_2  and  C_14 
REMARK    3  A    between atoms: O_2  and  C_17 
REMARK    4  A    between atoms: N_4  and  C_13 
REMARK    5  A    between atoms: N_4  and  C_15 
REMARK    6  A    between atoms: N_4  and  C_16 
REMARK    7  A    between atoms: C_5  and  C_8 
REMARK    8  A    between atoms: C_8  and  C_12 
REMARK    9  A    between atoms: C_8  and  C_14 
REMARK   10  A    between atoms: C_13  and  C_17 
ROOT
HETATM    1  C   UNK N   1      27.716  24.933  -5.237  0.00  0.00     0.176 C 
ENDROOT
BRANCH   1   2
HETATM    2  O   UNK N   1      28.310  26.089  -5.764  0.00  0.00    -0.374 OA
HETATM    3  H   UNK N   1      28.250  26.619  -6.575  0.00  0.00     0.211 HD
ENDBRANCH   1   2
BRANCH   1   4
HETATM    4  C   UNK N   1      26.346  25.320  -4.565  0.00  0.00     0.035 C 
HETATM    5  C   UNK N   1      26.466  26.200  -3.311  0.00  0.00     0.008 C 
HETATM    6  C   UNK N   1      26.745  27.655  -3.705  0.00  0.00     0.001 C 
HETATM    7  C   UNK N   1      25.643  28.185  -4.620  0.00  0.00     0.000 C 
HETATM    8  C   UNK N   1      25.516  27.316  -5.868  0.00  0.00     0.001 C 
HETATM    9  C   UNK N   1      25.234  25.868  -5.475  0.00  0.00     0.008 C 
ENDBRANCH   1   4
BRANCH   1  10
HETATM   10  C   UNK N   1      28.689  24.359  -4.217  0.00  0.00    -0.014 A 
HETATM   11  C   UNK N   1      30.060  24.651  -4.323  0.00  0.00     0.011 A 
HETATM   12  C   UNK N   1      30.973  24.113  -3.411  0.00  0.00     0.001 A 
HETATM   13  C   UNK N   1      30.528  23.281  -2.382  0.00  0.00     0.000 A 
HETATM   14  C   UNK N   1      29.168  22.988  -2.260  0.00  0.00     0.001 A 
HETATM   15  C   UNK N   1      28.253  23.522  -3.171  0.00  0.00     0.011 A 
ENDBRANCH   1  10
BRANCH   1  16
HETATM   16  C   UNK N   1      27.521  23.938  -6.385  0.00  0.00     0.298 C 
HETATM   17  O   UNK N   1      26.757  22.998  -6.230  0.00  0.00    -0.261 OA
BRANCH  16  18
HETATM   18  O   UNK N   1      28.164  24.050  -7.576  0.00  0.00    -0.317 OA
BRANCH  18  19
HETATM   19  C   UNK N   1      28.791  23.016  -8.229  0.00  0.00     0.206 C 
BRANCH  19  20
HETATM   20  C   UNK N   1      30.083  22.610  -7.500  0.00  0.00     0.263 C 
BRANCH  20  21
HETATM   21  N   UNK N   1      30.108  21.227  -6.974  0.00  0.00    -0.070 N 
HETATM   22  C   UNK N   1      31.365  20.585  -7.348  0.00  0.00     0.272 C 
BRANCH  21  23
HETATM   23  C   UNK N   1      30.008  21.162  -5.508  0.00  0.00     0.232 C 
HETATM   24  C   UNK N   1      31.231  20.533  -4.845  0.00  0.00     0.035 C 
ENDBRANCH  21  23
BRANCH  21  25
HETATM   25  C   UNK N   1      29.003  20.445  -7.550  0.00  0.00     0.232 C 
HETATM   26  C   UNK N   1      29.375  18.995  -7.863  0.00  0.00     0.035 C 
ENDBRANCH  21  25
ENDBRANCH  20  21
ENDBRANCH  19  20
ENDBRANCH  18  19
ENDBRANCH  16  18
ENDBRANCH   1  16
TORSDOF 10
ENDMDL
MODEL 7
REMARK VINA RESULT:      -5.6     18.783     22.581
REMARK  10 active torsions:
REMARK  status: ('A' for Active; 'I' for Inactive)
REMARK    1  A    between atoms: O_1  and  C_8 
REMARK    2  A    between atoms: O_2  and  C_14 
REMARK    3  A    between atoms: O_2  and  C_17 
REMARK    4  A    between atoms: N_4  and  C_13 
REMARK    5  A    between atoms: N_4  and  C_15 
REMARK    6  A    between atoms: N_4  and  C_16 
REMARK    7  A    between atoms: C_5  and  C_8 
REMARK    8  A    between atoms: C_8  and  C_12 
REMARK    9  A    between atoms: C_8  and  C_14 
REMARK   10  A    between atoms: C_13  and  C_17 
ROOT
HETATM    1  C   UNK N   1      35.666  11.966  14.354  0.00  0.00     0.176 C 
ENDROOT
BRANCH   1   2
HETATM    2  O   UNK N   1      36.897  11.630  14.939  0.00  0.00    -0.374 OA
HETATM    3  H   UNK N   1      37.217  11.060  15.655  0.00  0.00     0.211 HD
ENDBRANCH   1   2
BRANCH   1   4
HETATM    4  C   UNK N   1      34.529  11.819  15.433  0.00  0.00     0.035 C 
HETATM    5  C   UNK N   1      34.629  10.562  16.312  0.00  0.00     0.008 C 
HETATM    6  C   UNK N   1      35.701  10.751  17.391  0.00  0.00     0.001 C 
HETATM    7  C   UNK N   1      35.389  11.975  18.250  0.00  0.00     0.000 C 
HETATM    8  C   UNK N   1      35.286  13.228  17.384  0.00  0.00     0.001 C 
HETATM    9  C   UNK N   1      34.215  13.040  16.312  0.00  0.00     0.008 C 
ENDBRANCH   1   4
BRANCH   1  10
HETATM   10  C   UNK N   1      35.452  11.010  13.190  0.00  0.00    -0.014 A 
HETATM   11  C   UNK N   1      34.162  10.519  12.921  0.00  0.00     0.011 A 
HETATM   12  C   UNK N   1      33.949   9.621  11.872  0.00  0.00     0.001 A 
HETATM   13  C   UNK N   1      35.020   9.205  11.077  0.00  0.00     0.000 A 
HETATM   14  C   UNK N   1      36.305   9.689  11.328  0.00  0.00     0.001 A 
HETATM   15  C   UNK N   1      36.522  10.585  12.378  0.00  0.00     0.011 A 
ENDBRANCH   1  10
BRANCH   1  16
HETATM   16  C   UNK N   1      35.768  13.403  13.834  0.00  0.00     0.298 C 
HETATM   17  O   UNK N   1      36.674  14.115  14.237  0.00  0.00    -0.261 OA
BRANCH  16  18
HETATM   18  O   UNK N   1      34.889  13.929  12.943  0.00  0.00    -0.317 OA
BRANCH  18  19
HETATM   19  C   UNK N   1      35.232  14.741  11.888  0.00  0.00     0.206 C 
BRANCH  19  20
HETATM   20  C   UNK N   1      34.101  14.795  10.847  0.00  0.00     0.263 C 
BRANCH  20  21
HETATM   21  N   UNK N   1      34.389  14.122   9.560  0.00  0.00    -0.070 N 
HETATM   22  C   UNK N   1      35.637  14.638   9.007  0.00  0.00     0.272 C 
BRANCH  21  23
HETATM   23  C   UNK N   1      34.543  12.665   9.690  0.00  0.00     0.232 C 
HETATM   24  C   UNK N   1      33.484  11.874   8.926  0.00  0.00     0.035 C 
ENDBRANCH  21  23
BRANCH  21  25
HETATM   25  C   UNK N   1      33.311  14.391   8.595  0.00  0.00     0.232 C 
HETATM   26  C   UNK N   1      32.266  15.385   9.104  0.00  0.00     0.035 C 
ENDBRANCH  21  25
ENDBRANCH  20  21
ENDBRANCH  19  20
ENDBRANCH  18  19
ENDBRANCH  16  18
ENDBRANCH   1  16
TORSDOF 10
ENDMDL
MODEL 8
REMARK VINA RESULT:      -5.5     10.634     12.982
REMARK  10 active torsions:
REMARK  status: ('A' for Active; 'I' for Inactive)
REMARK    1  A    between atoms: O_1  and  C_8 
REMARK    2  A    between atoms: O_2  and  C_14 
REMARK    3  A    between atoms: O_2  and  C_17 
REMARK    4  A    between atoms: N_4  and  C_13 
REMARK    5  A    between atoms: N_4  and  C_15 
REMARK    6  A    between atoms: N_4  and  C_16 
REMARK    7  A    between atoms: C_5  and  C_8 
REMARK    8  A    between atoms: C_8  and  C_12 
REMARK    9  A    between atoms: C_8  and  C_14 
REMARK   10  A    between atoms: C_13  and  C_17 
ROOT
HETATM    1  C   UNK N   1      28.781  17.417   4.695  0.00  0.00     0.176 C 
ENDROOT
BRANCH   1   2
HETATM    2  O   UNK N   1      29.069  17.620   3.337  0.00  0.00    -0.374 OA
HETATM    3  H   UNK N   1      29.604  17.196   2.647  0.00  0.00     0.211 HD
ENDBRANCH   1   2
BRANCH   1   4
HETATM    4  C   UNK N   1      27.819  16.180   4.836  0.00  0.00     0.035 C 
HETATM    5  C   UNK N   1      26.342  16.468   4.522  0.00  0.00     0.008 C 
HETATM    6  C   UNK N   1      26.123  16.534   3.007  0.00  0.00     0.001 C 
HETATM    7  C   UNK N   1      26.559  15.228   2.344  0.00  0.00     0.000 C 
HETATM    8  C   UNK N   1      28.025  14.933   2.652  0.00  0.00     0.001 C 
HETATM    9  C   UNK N   1      28.242  14.864   4.162  0.00  0.00     0.008 C 
ENDBRANCH   1   4
BRANCH   1  10
HETATM   10  C   UNK N   1      28.123  18.691   5.204  0.00  0.00    -0.014 A 
HETATM   11  C   UNK N   1      27.651  19.645   4.286  0.00  0.00     0.011 A 
HETATM   12  C   UNK N   1      27.066  20.833   4.735  0.00  0.00     0.001 A 
HETATM   13  C   UNK N   1      26.943  21.080   6.104  0.00  0.00     0.000 A 
HETATM   14  C   UNK N   1      27.402  20.139   7.027  0.00  0.00     0.001 A 
HETATM   15  C   UNK N   1      27.989  18.951   6.582  0.00  0.00     0.011 A 
ENDBRANCH   1  10
BRANCH   1  16
HETATM   16  C   UNK N   1      30.107  17.188   5.428  0.00  0.00     0.298 C 
HETATM   17  O   UNK N   1      31.143  17.577   4.913  0.00  0.00    -0.261 OA
BRANCH  16  18
HETATM   18  O   UNK N   1      30.185  16.565   6.632  0.00  0.00    -0.317 OA
BRANCH  18  19
HETATM   19  C   UNK N   1      30.876  17.043   7.720  0.00  0.00     0.206 C 
BRANCH  19  20
HETATM   20  C   UNK N   1      31.845  15.980   8.265  0.00  0.00     0.263 C 
BRANCH  20  21
HETATM   21  N   UNK N   1      33.250  16.110   7.815  0.00  0.00    -0.070 N 
HETATM   22  C   UNK N   1      33.531  17.504   7.488  0.00  0.00     0.272 C 
BRANCH  21  23
HETATM   23  C   UNK N   1      34.225  15.699   8.837  0.00  0.00     0.232 C 
HETATM   24  C   UNK N   1      34.812  16.870   9.620  0.00  0.00     0.035 C 
ENDBRANCH  21  23
BRANCH  21  25
HETATM   25  C   UNK N   1      33.472  15.300   6.607  0.00  0.00     0.232 C 
HETATM   26  C   UNK N   1      34.287  16.017   5.529  0.00  0.00     0.035 C 
ENDBRANCH  21  25
ENDBRANCH  20  21
ENDBRANCH  19  20
ENDBRANCH  18  19
ENDBRANCH  16  18
ENDBRANCH   1  16
TORSDOF 10
ENDMDL
MODEL 9
REMARK VINA RESULT:      -5.5     16.778     21.068
REMARK  10 active torsions:
REMARK  status: ('A' for Active; 'I' for Inactive)
REMARK    1  A    between atoms: O_1  and  C_8 
REMARK    2  A    between atoms: O_2  and  C_14 
REMARK    3  A    between atoms: O_2  and  C_17 
REMARK    4  A    between atoms: N_4  and  C_13 
REMARK    5  A    between atoms: N_4  and  C_15 
REMARK    6  A    between atoms: N_4  and  C_16 
REMARK    7  A    between atoms: C_5  and  C_8 
REMARK    8  A    between atoms: C_8  and  C_12 
REMARK    9  A    between atoms: C_8  and  C_14 
REMARK   10  A    between atoms: C_13  and  C_17 
ROOT
HETATM    1  C   UNK N   1      35.623  13.253  12.472  0.00  0.00     0.176 C 
ENDROOT
BRANCH   1   2
HETATM    2  O   UNK N   1      34.639  12.361  12.019  0.00  0.00    -0.374 OA
HETATM    3  H   UNK N   1      33.816  12.402  11.507  0.00  0.00     0.211 HD
ENDBRANCH   1   2
BRANCH   1   4
HETATM    4  C   UNK N   1      37.024  12.794  11.921  0.00  0.00     0.035 C 
HETATM    5  C   UNK N   1      37.530  11.453  12.475  0.00  0.00     0.008 C 
HETATM    6  C   UNK N   1      36.817  10.287  11.783  0.00  0.00     0.001 C 
HETATM    7  C   UNK N   1      37.029  10.348  10.272  0.00  0.00     0.000 C 
HETATM    8  C   UNK N   1      36.530  11.678   9.712  0.00  0.00     0.001 C 
HETATM    9  C   UNK N   1      37.244  12.839  10.400  0.00  0.00     0.008 C 
ENDBRANCH   1   4
BRANCH   1  10
HETATM   10  C   UNK N   1      35.588  13.219  13.992  0.00  0.00    -0.014 A 
HETATM   11  C   UNK N   1      34.638  12.416  14.648  0.00  0.00     0.011 A 
HETATM   12  C   UNK N   1      34.574  12.391  16.045  0.00  0.00     0.001 A 
HETATM   13  C   UNK N   1      35.458  13.163  16.801  0.00  0.00     0.000 A 
HETATM   14  C   UNK N   1      36.411  13.959  16.163  0.00  0.00     0.001 A 
HETATM   15  C   UNK N   1      36.476  13.990  14.768  0.00  0.00     0.011 A 
ENDBRANCH   1  10
BRANCH   1  16
HETATM   16  C   UNK N   1      35.253  14.654  11.975  0.00  0.00     0.298 C 
HETATM   17  O   UNK N   1      36.030  15.575  12.168  0.00  0.00    -0.261 OA
BRANCH  16  18
HETATM   18  O   UNK N   1      34.090  14.925  11.328  0.00  0.00    -0.317 OA
BRANCH  18  19
HETATM   19  C   UNK N   1      33.956  15.031   9.965  0.00  0.00     0.206 C 
BRANCH  19  20
HETATM   20  C   UNK N   1      34.377  16.428   9.479  0.00  0.00     0.263 C 
BRANCH  20  21
HETATM   21  N   UNK N   1      33.706  16.902   8.248  0.00  0.00    -0.070 N 
HETATM   22  C   UNK N   1      33.928  18.337   8.092  0.00  0.00     0.272 C 
BRANCH  21  23
HETATM   23  C   UNK N   1      34.208  16.252   7.027  0.00  0.00     0.232 C 
HETATM   24  C   UNK N   1      33.803  16.974   5.746  0.00  0.00     0.035 C 
ENDBRANCH  21  23
BRANCH  21  25
HETATM   25  C   UNK N   1      32.257  16.667   8.337  0.00  0.00     0.232 C 
HETATM   26  C   UNK N   1      31.440  17.944   8.540  0.00  0.00     0.035 C 
ENDBRANCH  21  25
ENDBRANCH  20  21
ENDBRANCH  19  20
ENDBRANCH  18  19
ENDBRANCH  16  18
ENDBRANCH   1  16
TORSDOF 10
ENDMDL
