MODEL 1
REMARK VINA RESULT:      -7.7      0.000      0.000
REMARK  12 active torsions:
REMARK  status: ('A' for Active; 'I' for Inactive)
REMARK    1  A    between atoms: S_1  and  C_23 
REMARK    2  A    between atoms: S_1  and  C_29 
REMARK    3  A    between atoms: C_20  and  O_3 
REMARK    4  A    between atoms: O_5  and  C_34 
REMARK    5  A    between atoms: N_6  and  C_18 
REMARK       I    between atoms: N_7  and  C_19 
REMARK    6  A    between atoms: N_7  and  C_22 
REMARK    7  A    between atoms: C_21  and  N_8 
REMARK       I    between atoms: N_8  and  C_27 
REMARK    8  A    between atoms: C_15  and  C_19 
REMARK    9  A    between atoms: C_18  and  C_20 
REMARK   10  A    between atoms: C_20  and  C_21 
REMARK   11  A    between atoms: C_21  and  C_23 
REMARK   12  A    between atoms: C_27  and  C_28 
ROOT
HETATM    1  C   UNK N   1      27.848  24.060  -3.198  0.00  0.00     0.170 C 
ENDROOT
BRANCH   1   2
HETATM    2  O   UNK N   1      27.665  23.413  -1.973  0.00  0.00    -0.392 OA
HETATM    3  H   UNK N   1      27.928  22.499  -1.783  0.00  0.00     0.210 HD
ENDBRANCH   1   2
BRANCH   1   4
HETATM    4  C   UNK N   1      26.809  25.164  -3.449  0.00  0.00     0.307 C 
BRANCH   4   5
HETATM    5  N   UNK N   1      26.550  25.511  -4.852  0.00  0.00     0.105 N 
HETATM    6  C   UNK N   1      26.304  24.286  -5.638  0.00  0.00     0.278 C 
HETATM    7  C   UNK N   1      25.588  24.544  -6.965  0.00  0.00     0.018 C 
HETATM    8  C   UNK N   1      26.023  25.916  -7.499  0.00  0.00    -0.006 C 
HETATM    9  C   UNK N   1      25.880  23.393  -7.941  0.00  0.00     0.007 C 
HETATM   10  C   UNK N   1      25.524  27.012  -6.559  0.00  0.00     0.050 C 
HETATM   11  C   UNK N   1      25.485  26.124  -8.910  0.00  0.00     0.005 C 
HETATM   12  C   UNK N   1      25.583  26.609  -5.075  0.00  0.00     0.314 C 
HETATM   13  C   UNK N   1      25.955  25.021  -9.876  0.00  0.00     0.000 C 
HETATM   14  C   UNK N   1      26.654  23.842  -9.183  0.00  0.00     0.000 C 
BRANCH  12  15
HETATM   15  C   UNK N   1      25.935  27.835  -4.283  0.00  0.00     0.252 C 
HETATM   16  O   UNK N   1      25.411  28.007  -3.194  0.00  0.00    -0.271 OA
HETATM   17  N   UNK N   1      26.856  28.711  -4.778  0.00  0.00    -0.351 N 
HETATM   18  H   UNK N   1      27.241  28.482  -5.655  0.00  0.00     0.163 HD
BRANCH  17  19
HETATM   19  C   UNK N   1      27.344  29.943  -4.172  0.00  0.00     0.022 C 
HETATM   20  C   UNK N   1      28.280  29.588  -3.035  0.00  0.00     0.037 C 
HETATM   21  C   UNK N   1      26.260  30.863  -3.631  0.00  0.00     0.037 C 
HETATM   22  C   UNK N   1      28.130  30.709  -5.214  0.00  0.00     0.037 C 
ENDBRANCH  17  19
ENDBRANCH  12  15
ENDBRANCH   4   5
ENDBRANCH   1   4
BRANCH   1  23
HETATM   23  C   UNK N   1      29.309  24.466  -3.355  0.00  0.00     0.124 C 
BRANCH  23  24
HETATM   24  N   UNK N   1      30.096  23.318  -3.766  0.00  0.00    -0.349 N 
HETATM   25  C   UNK N   1      30.802  22.531  -2.910  0.00  0.00     0.252 C 
HETATM   26  O   UNK N   1      30.754  22.707  -1.704  0.00  0.00    -0.268 OA
HETATM   27  H   UNK N   1      30.120  23.095  -4.725  0.00  0.00     0.163 HD
BRANCH  25  28
HETATM   28  C   UNK N   1      31.812  21.619  -3.451  0.00  0.00     0.040 A 
HETATM   29  C   UNK N   1      31.591  20.974  -4.686  0.00  0.00    -0.013 A 
HETATM   30  C   UNK N   1      32.577  20.129  -5.215  0.00  0.00     0.072 A 
HETATM   31  C   UNK N   1      30.325  21.203  -5.454  0.00  0.00     0.052 C 
HETATM   32  C   UNK N   1      33.768  19.923  -4.514  0.00  0.00     0.037 A 
HETATM   33  C   UNK N   1      33.986  20.564  -3.291  0.00  0.00     0.004 A 
HETATM   34  C   UNK N   1      33.014  21.418  -2.764  0.00  0.00     0.018 A 
BRANCH  30  35
HETATM   35  O   UNK N   1      32.389  19.519  -6.398  0.00  0.00    -0.360 OA
HETATM   36  H   UNK N   1      33.076  19.508  -7.036  0.00  0.00     0.217 HD
ENDBRANCH  30  35
ENDBRANCH  25  28
ENDBRANCH  23  24
BRANCH  23  37
HETATM   37  C   UNK N   1      29.580  25.755  -4.141  0.00  0.00     0.107 C 
BRANCH  37  38
HETATM   38  S   UNK N   1      31.168  25.908  -5.013  0.00  0.00    -0.128 SA
BRANCH  38  39
HETATM   39  C   UNK N   1      30.285  26.410  -6.479  0.00  0.00     0.000 A 
HETATM   40  C   UNK N   1      29.709  27.685  -6.541  0.00  0.00     0.018 A 
HETATM   41  C   UNK N   1      29.071  28.109  -7.709  0.00  0.00     0.001 A 
HETATM   42  C   UNK N   1      29.009  27.259  -8.818  0.00  0.00     0.000 A 
HETATM   43  C   UNK N   1      29.582  25.984  -8.755  0.00  0.00     0.001 A 
HETATM   44  C   UNK N   1      30.224  25.561  -7.588  0.00  0.00     0.018 A 
ENDBRANCH  38  39
ENDBRANCH  37  38
ENDBRANCH  23  37
ENDBRANCH   1  23
TORSDOF 12
ENDMDL
MODEL 2
REMARK VINA RESULT:      -7.7     13.563     16.028
REMARK  12 active torsions:
REMARK  status: ('A' for Active; 'I' for Inactive)
REMARK    1  A    between atoms: S_1  and  C_23 
REMARK    2  A    between atoms: S_1  and  C_29 
REMARK    3  A    between atoms: C_20  and  O_3 
REMARK    4  A    between atoms: O_5  and  C_34 
REMARK    5  A    between atoms: N_6  and  C_18 
REMARK       I    between atoms: N_7  and  C_19 
REMARK    6  A    between atoms: N_7  and  C_22 
REMARK    7  A    between atoms: C_21  and  N_8 
REMARK       I    between atoms: N_8  and  C_27 
REMARK    8  A    between atoms: C_15  and  C_19 
REMARK    9  A    between atoms: C_18  and  C_20 
REMARK   10  A    between atoms: C_20  and  C_21 
REMARK   11  A    between atoms: C_21  and  C_23 
REMARK   12  A    between atoms: C_27  and  C_28 
ROOT
HETATM    1  C   UNK N   1      25.010  15.372   5.534  0.00  0.00     0.170 C 
ENDROOT
BRANCH   1   2
HETATM    2  O   UNK N   1      26.239  15.652   6.137  0.00  0.00    -0.392 OA
HETATM    3  H   UNK N   1      26.706  16.500   6.077  0.00  0.00     0.210 HD
ENDBRANCH   1   2
BRANCH   1   4
HETATM    4  C   UNK N   1      24.925  15.887   4.089  0.00  0.00     0.307 C 
BRANCH   4   5
HETATM    5  N   UNK N   1      23.940  16.944   3.828  0.00  0.00     0.105 N 
HETATM    6  C   UNK N   1      22.579  16.372   3.808  0.00  0.00     0.278 C 
HETATM    7  C   UNK N   1      21.475  17.412   4.002  0.00  0.00     0.018 C 
HETATM    8  C   UNK N   1      21.932  18.737   3.377  0.00  0.00    -0.006 C 
HETATM    9  C   UNK N   1      20.158  16.884   3.410  0.00  0.00     0.007 C 
HETATM   10  C   UNK N   1      23.131  19.282   4.150  0.00  0.00     0.050 C 
HETATM   11  C   UNK N   1      20.784  19.741   3.377  0.00  0.00     0.005 C 
HETATM   12  C   UNK N   1      24.093  18.179   4.629  0.00  0.00     0.314 C 
HETATM   13  C   UNK N   1      19.553  19.210   2.621  0.00  0.00     0.000 C 
HETATM   14  C   UNK N   1      19.648  17.725   2.238  0.00  0.00     0.000 C 
BRANCH  12  15
HETATM   15  C   UNK N   1      25.489  18.727   4.552  0.00  0.00     0.252 C 
HETATM   16  O   UNK N   1      25.895  19.165   3.487  0.00  0.00    -0.271 OA
HETATM   17  N   UNK N   1      26.260  18.757   5.676  0.00  0.00    -0.351 N 
HETATM   18  H   UNK N   1      25.843  18.400   6.494  0.00  0.00     0.163 HD
BRANCH  17  19
HETATM   19  C   UNK N   1      27.623  19.252   5.821  0.00  0.00     0.022 C 
HETATM   20  C   UNK N   1      28.097  18.965   7.231  0.00  0.00     0.037 C 
HETATM   21  C   UNK N   1      27.796  20.738   5.549  0.00  0.00     0.037 C 
HETATM   22  C   UNK N   1      28.511  18.494   4.857  0.00  0.00     0.037 C 
ENDBRANCH  17  19
ENDBRANCH  12  15
ENDBRANCH   4   5
ENDBRANCH   1   4
BRANCH   1  23
HETATM   23  C   UNK N   1      24.652  13.905   5.745  0.00  0.00     0.124 C 
BRANCH  23  24
HETATM   24  N   UNK N   1      23.676  13.787   6.812  0.00  0.00    -0.349 N 
HETATM   25  C   UNK N   1      23.993  13.725   8.134  0.00  0.00     0.252 C 
HETATM   26  O   UNK N   1      25.146  13.841   8.512  0.00  0.00    -0.268 OA
HETATM   27  H   UNK N   1      22.723  13.749   6.564  0.00  0.00     0.163 HD
BRANCH  25  28
HETATM   28  C   UNK N   1      22.977  13.277   9.090  0.00  0.00     0.040 A 
HETATM   29  C   UNK N   1      21.704  13.885   9.102  0.00  0.00    -0.013 A 
HETATM   30  C   UNK N   1      20.725  13.429   9.996  0.00  0.00     0.072 A 
HETATM   31  C   UNK N   1      21.376  14.997   8.152  0.00  0.00     0.052 C 
HETATM   32  C   UNK N   1      21.016  12.382  10.874  0.00  0.00     0.037 A 
HETATM   33  C   UNK N   1      22.278  11.780  10.859  0.00  0.00     0.004 A 
HETATM   34  C   UNK N   1      23.254  12.219   9.962  0.00  0.00     0.018 A 
BRANCH  30  35
HETATM   35  O   UNK N   1      19.502  13.988  10.010  0.00  0.00    -0.360 OA
HETATM   36  H   UNK N   1      19.364  14.803  10.452  0.00  0.00     0.217 HD
ENDBRANCH  30  35
ENDBRANCH  25  28
ENDBRANCH  23  24
BRANCH  23  37
HETATM   37  C   UNK N   1      24.339  13.089   4.485  0.00  0.00     0.107 C 
BRANCH  37  38
HETATM   38  S   UNK N   1      22.880  12.006   4.506  0.00  0.00    -0.128 SA
BRANCH  38  39
HETATM   39  C   UNK N   1      22.295  12.807   3.024  0.00  0.00     0.000 A 
HETATM   40  C   UNK N   1      20.926  13.051   2.860  0.00  0.00     0.018 A 
HETATM   41  C   UNK N   1      20.467  13.734   1.732  0.00  0.00     0.001 A 
HETATM   42  C   UNK N   1      21.376  14.175   0.766  0.00  0.00     0.000 A 
HETATM   43  C   UNK N   1      22.744  13.928   0.927  0.00  0.00     0.001 A 
HETATM   44  C   UNK N   1      23.205  13.249   2.058  0.00  0.00     0.018 A 
ENDBRANCH  38  39
ENDBRANCH  37  38
ENDBRANCH  23  37
ENDBRANCH   1  23
TORSDOF 12
ENDMDL
MODEL 3
REMARK VINA RESULT:      -7.6     15.356     19.875
REMARK  12 active torsions:
REMARK  status: ('A' for Active; 'I' for Inactive)
REMARK    1  A    between atoms: S_1  and  C_23 
REMARK    2  A    between atoms: S_1  and  C_29 
REMARK    3  A    between atoms: C_20  and  O_3 
REMARK    4  A    between atoms: O_5  and  C_34 
REMARK    5  A    between atoms: N_6  and  C_18 
REMARK       I    between atoms: N_7  and  C_19 
REMARK    6  A    between atoms: N_7  and  C_22 
REMARK    7  A    between atoms: C_21  and  N_8 
REMARK       I    between atoms: N_8  and  C_27 
REMARK    8  A    between atoms: C_15  and  C_19 
REMARK    9  A    between atoms: C_18  and  C_20 
REMARK   10  A    between atoms: C_20  and  C_21 
REMARK   11  A    between atoms: C_21  and  C_23 
REMARK   12  A    between atoms: C_27  and  C_28 
ROOT
HETATM    1  C   UNK N   1      34.279  15.910  10.039  0.00  0.00     0.170 C 
ENDROOT
BRANCH   1   2
HETATM    2  O   UNK N   1      34.968  16.721  10.945  0.00  0.00    -0.392 OA
HETATM    3  H   UNK N   1      34.942  17.691  10.953  0.00  0.00     0.210 HD
ENDBRANCH   1   2
BRANCH   1   4
HETATM    4  C   UNK N   1      34.183  16.534   8.638  0.00  0.00     0.307 C 
BRANCH   4   5
HETATM    5  N   UNK N   1      32.830  16.719   8.096  0.00  0.00     0.105 N 
HETATM    6  C   UNK N   1      32.020  17.528   9.028  0.00  0.00     0.278 C 
HETATM    7  C   UNK N   1      30.786  18.157   8.378  0.00  0.00     0.018 C 
HETATM    8  C   UNK N   1      30.272  17.211   7.283  0.00  0.00    -0.006 C 
HETATM    9  C   UNK N   1      29.736  18.466   9.457  0.00  0.00     0.007 C 
HETATM   10  C   UNK N   1      31.305  17.114   6.163  0.00  0.00     0.050 C 
HETATM   11  C   UNK N   1      28.934  17.708   6.748  0.00  0.00     0.005 C 
HETATM   12  C   UNK N   1      32.756  17.128   6.676  0.00  0.00     0.314 C 
HETATM   13  C   UNK N   1      27.877  17.835   7.861  0.00  0.00     0.000 C 
HETATM   14  C   UNK N   1      28.442  17.667   9.279  0.00  0.00     0.000 C 
BRANCH  12  15
HETATM   15  C   UNK N   1      33.561  16.222   5.790  0.00  0.00     0.252 C 
HETATM   16  O   UNK N   1      34.753  16.443   5.643  0.00  0.00    -0.271 OA
HETATM   17  N   UNK N   1      32.956  15.153   5.197  0.00  0.00    -0.351 N 
HETATM   18  H   UNK N   1      31.996  15.042   5.387  0.00  0.00     0.163 HD
BRANCH  17  19
HETATM   19  C   UNK N   1      33.551  14.154   4.318  0.00  0.00     0.022 C 
HETATM   20  C   UNK N   1      32.525  13.073   4.048  0.00  0.00     0.037 C 
HETATM   21  C   UNK N   1      34.811  13.496   4.858  0.00  0.00     0.037 C 
HETATM   22  C   UNK N   1      33.897  14.820   3.003  0.00  0.00     0.037 C 
ENDBRANCH  17  19
ENDBRANCH  12  15
ENDBRANCH   4   5
ENDBRANCH   1   4
BRANCH   1  23
HETATM   23  C   UNK N   1      34.821  14.487  10.104  0.00  0.00     0.124 C 
BRANCH  23  24
HETATM   24  N   UNK N   1      34.608  13.941  11.431  0.00  0.00    -0.349 N 
HETATM   25  C   UNK N   1      35.556  13.271  12.142  0.00  0.00     0.252 C 
HETATM   26  O   UNK N   1      36.694  13.151  11.720  0.00  0.00    -0.268 OA
HETATM   27  H   UNK N   1      33.723  14.063  11.844  0.00  0.00     0.163 HD
BRANCH  25  28
HETATM   28  C   UNK N   1      35.148  12.484  13.308  0.00  0.00     0.040 A 
HETATM   29  C   UNK N   1      35.575  12.864  14.598  0.00  0.00    -0.013 A 
HETATM   30  C   UNK N   1      35.153  12.127  15.714  0.00  0.00     0.072 A 
HETATM   31  C   UNK N   1      36.454  14.062  14.793  0.00  0.00     0.052 C 
HETATM   32  C   UNK N   1      34.321  11.019  15.544  0.00  0.00     0.037 A 
HETATM   33  C   UNK N   1      33.897  10.645  14.265  0.00  0.00     0.004 A 
HETATM   34  C   UNK N   1      34.301  11.383  13.149  0.00  0.00     0.018 A 
BRANCH  30  35
HETATM   35  O   UNK N   1      35.539  12.484  16.952  0.00  0.00    -0.360 OA
HETATM   36  H   UNK N   1      35.023  12.237  17.694  0.00  0.00     0.217 HD
ENDBRANCH  30  35
ENDBRANCH  25  28
ENDBRANCH  23  24
BRANCH  23  37
HETATM   37  C   UNK N   1      34.434  13.555   8.949  0.00  0.00     0.107 C 
BRANCH  37  38
HETATM   38  S   UNK N   1      35.654  12.328   8.393  0.00  0.00    -0.128 SA
BRANCH  38  39
HETATM   39  C   UNK N   1      34.737  11.063   9.254  0.00  0.00     0.000 A 
HETATM   40  C   UNK N   1      33.338  11.113   9.276  0.00  0.00     0.018 A 
HETATM   41  C   UNK N   1      32.610  10.093   9.894  0.00  0.00     0.001 A 
HETATM   42  C   UNK N   1      33.281   9.021  10.489  0.00  0.00     0.000 A 
HETATM   43  C   UNK N   1      34.680   8.972  10.471  0.00  0.00     0.001 A 
HETATM   44  C   UNK N   1      35.408   9.990   9.849  0.00  0.00     0.018 A 
ENDBRANCH  38  39
ENDBRANCH  37  38
ENDBRANCH  23  37
ENDBRANCH   1  23
TORSDOF 12
ENDMDL
MODEL 4
REMARK VINA RESULT:      -7.5     13.630     16.445
REMARK  12 active torsions:
REMARK  status: ('A' for Active; 'I' for Inactive)
REMARK    1  A    between atoms: S_1  and  C_23 
REMARK    2  A    between atoms: S_1  and  C_29 
REMARK    3  A    between atoms: C_20  and  O_3 
REMARK    4  A    between atoms: O_5  and  C_34 
REMARK    5  A    between atoms: N_6  and  C_18 
REMARK       I    between atoms: N_7  and  C_19 
REMARK    6  A    between atoms: N_7  and  C_22 
REMARK    7  A    between atoms: C_21  and  N_8 
REMARK       I    between atoms: N_8  and  C_27 
REMARK    8  A    between atoms: C_15  and  C_19 
REMARK    9  A    between atoms: C_18  and  C_20 
REMARK   10  A    between atoms: C_20  and  C_21 
REMARK   11  A    between atoms: C_21  and  C_23 
REMARK   12  A    between atoms: C_27  and  C_28 
ROOT
HETATM    1  C   UNK N   1      24.969  15.225   5.964  0.00  0.00     0.170 C 
ENDROOT
BRANCH   1   2
HETATM    2  O   UNK N   1      24.516  16.544   5.882  0.00  0.00    -0.392 OA
HETATM    3  H   UNK N   1      24.148  17.052   6.622  0.00  0.00     0.210 HD
ENDBRANCH   1   2
BRANCH   1   4
HETATM    4  C   UNK N   1      23.860  14.197   5.690  0.00  0.00     0.307 C 
BRANCH   4   5
HETATM    5  N   UNK N   1      22.919  13.944   6.789  0.00  0.00     0.105 N 
HETATM    6  C   UNK N   1      23.653  13.499   7.990  0.00  0.00     0.278 C 
HETATM    7  C   UNK N   1      22.853  13.648   9.285  0.00  0.00     0.018 C 
HETATM    8  C   UNK N   1      21.366  13.429   8.974  0.00  0.00    -0.006 C 
HETATM    9  C   UNK N   1      23.402  12.678  10.345  0.00  0.00     0.007 C 
HETATM   10  C   UNK N   1      20.863  14.548   8.065  0.00  0.00     0.050 C 
HETATM   11  C   UNK N   1      20.562  13.376  10.268  0.00  0.00     0.005 C 
HETATM   12  C   UNK N   1      21.903  14.995   7.022  0.00  0.00     0.314 C 
HETATM   13  C   UNK N   1      21.061  12.268  11.213  0.00  0.00     0.000 C 
HETATM   14  C   UNK N   1      22.382  11.620  10.772  0.00  0.00     0.000 C 
BRANCH  12  15
HETATM   15  C   UNK N   1      21.165  15.349   5.765  0.00  0.00     0.252 C 
HETATM   16  O   UNK N   1      20.249  14.633   5.393  0.00  0.00    -0.271 OA
HETATM   17  N   UNK N   1      21.507  16.480   5.083  0.00  0.00    -0.351 N 
HETATM   18  H   UNK N   1      22.245  17.007   5.466  0.00  0.00     0.163 HD
BRANCH  17  19
HETATM   19  C   UNK N   1      20.917  17.007   3.859  0.00  0.00     0.022 C 
HETATM   20  C   UNK N   1      21.382  18.436   3.672  0.00  0.00     0.037 C 
HETATM   21  C   UNK N   1      19.396  16.989   3.822  0.00  0.00     0.037 C 
HETATM   22  C   UNK N   1      21.422  16.185   2.692  0.00  0.00     0.037 C 
ENDBRANCH  17  19
ENDBRANCH  12  15
ENDBRANCH   4   5
ENDBRANCH   1   4
BRANCH   1  23
HETATM   23  C   UNK N   1      26.247  15.065   5.147  0.00  0.00     0.124 C 
BRANCH  23  24
HETATM   24  N   UNK N   1      27.388  15.493   5.935  0.00  0.00    -0.349 N 
HETATM   25  C   UNK N   1      27.889  16.758   5.927  0.00  0.00     0.252 C 
HETATM   26  O   UNK N   1      27.347  17.648   5.294  0.00  0.00    -0.268 OA
HETATM   27  H   UNK N   1      27.828  14.826   6.511  0.00  0.00     0.163 HD
BRANCH  25  28
HETATM   28  C   UNK N   1      29.221  17.000   6.487  0.00  0.00     0.040 A 
HETATM   29  C   UNK N   1      29.356  17.431   7.824  0.00  0.00    -0.013 A 
HETATM   30  C   UNK N   1      30.634  17.627   8.365  0.00  0.00     0.072 A 
HETATM   31  C   UNK N   1      28.148  17.656   8.682  0.00  0.00     0.052 C 
HETATM   32  C   UNK N   1      31.767  17.405   7.578  0.00  0.00     0.037 A 
HETATM   33  C   UNK N   1      31.631  16.976   6.253  0.00  0.00     0.004 A 
HETATM   34  C   UNK N   1      30.361  16.764   5.712  0.00  0.00     0.018 A 
BRANCH  30  35
HETATM   35  O   UNK N   1      30.781  18.024   9.641  0.00  0.00    -0.360 OA
HETATM   36  H   UNK N   1      31.541  18.509   9.898  0.00  0.00     0.217 HD
ENDBRANCH  30  35
ENDBRANCH  25  28
ENDBRANCH  23  24
BRANCH  23  37
HETATM   37  C   UNK N   1      26.428  13.731   4.414  0.00  0.00     0.107 C 
BRANCH  37  38
HETATM   38  S   UNK N   1      27.440  13.713   2.904  0.00  0.00    -0.128 SA
BRANCH  38  39
HETATM   39  C   UNK N   1      25.964  13.414   1.949  0.00  0.00     0.000 A 
HETATM   40  C   UNK N   1      25.136  14.487   1.595  0.00  0.00     0.018 A 
HETATM   41  C   UNK N   1      24.012  14.270   0.794  0.00  0.00     0.001 A 
HETATM   42  C   UNK N   1      23.716  12.980   0.343  0.00  0.00     0.000 A 
HETATM   43  C   UNK N   1      24.541  11.907   0.698  0.00  0.00     0.001 A 
HETATM   44  C   UNK N   1      25.667  12.124   1.497  0.00  0.00     0.018 A 
ENDBRANCH  38  39
ENDBRANCH  37  38
ENDBRANCH  23  37
ENDBRANCH   1  23
TORSDOF 12
ENDMDL
MODEL 5
REMARK VINA RESULT:      -7.5      1.393      2.169
REMARK  12 active torsions:
REMARK  status: ('A' for Active; 'I' for Inactive)
REMARK    1  A    between atoms: S_1  and  C_23 
REMARK    2  A    between atoms: S_1  and  C_29 
REMARK    3  A    between atoms: C_20  and  O_3 
REMARK    4  A    between atoms: O_5  and  C_34 
REMARK    5  A    between atoms: N_6  and  C_18 
REMARK       I    between atoms: N_7  and  C_19 
REMARK    6  A    between atoms: N_7  and  C_22 
REMARK    7  A    between atoms: C_21  and  N_8 
REMARK       I    between atoms: N_8  and  C_27 
REMARK    8  A    between atoms: C_15  and  C_19 
REMARK    9  A    between atoms: C_18  and  C_20 
REMARK   10  A    between atoms: C_20  and  C_21 
REMARK   11  A    between atoms: C_21  and  C_23 
REMARK   12  A    between atoms: C_27  and  C_28 
ROOT
HETATM    1  C   UNK N   1      28.003  23.955  -3.195  0.00  0.00     0.170 C 
ENDROOT
BRANCH   1   2
HETATM    2  O   UNK N   1      27.794  23.252  -2.005  0.00  0.00    -0.392 OA
HETATM    3  H   UNK N   1      27.429  22.355  -1.947  0.00  0.00     0.210 HD
ENDBRANCH   1   2
BRANCH   1   4
HETATM    4  C   UNK N   1      26.966  25.066  -3.420  0.00  0.00     0.307 C 
BRANCH   4   5
HETATM    5  N   UNK N   1      26.690  25.430  -4.816  0.00  0.00     0.105 N 
HETATM    6  C   UNK N   1      26.483  24.212  -5.624  0.00  0.00     0.278 C 
HETATM    7  C   UNK N   1      25.754  24.471  -6.944  0.00  0.00     0.018 C 
HETATM    8  C   UNK N   1      26.141  25.866  -7.453  0.00  0.00    -0.006 C 
HETATM    9  C   UNK N   1      26.081  23.348  -7.942  0.00  0.00     0.007 C 
HETATM   10  C   UNK N   1      25.610  26.928  -6.492  0.00  0.00     0.050 C 
HETATM   11  C   UNK N   1      25.592  26.082  -8.859  0.00  0.00     0.005 C 
HETATM   12  C   UNK N   1      25.687  26.499  -5.016  0.00  0.00     0.314 C 
HETATM   13  C   UNK N   1      26.095  25.013  -9.846  0.00  0.00     0.000 C 
HETATM   14  C   UNK N   1      26.835  23.845  -9.177  0.00  0.00     0.000 C 
BRANCH  12  15
HETATM   15  C   UNK N   1      26.001  27.721  -4.203  0.00  0.00     0.252 C 
HETATM   16  O   UNK N   1      25.313  27.976  -3.226  0.00  0.00    -0.271 OA
HETATM   17  N   UNK N   1      27.065  28.501  -4.547  0.00  0.00    -0.351 N 
HETATM   18  H   UNK N   1      27.575  28.209  -5.338  0.00  0.00     0.163 HD
BRANCH  17  19
HETATM   19  C   UNK N   1      27.545  29.711  -3.893  0.00  0.00     0.022 C 
HETATM   20  C   UNK N   1      27.859  29.389  -2.446  0.00  0.00     0.037 C 
HETATM   21  C   UNK N   1      26.575  30.883  -3.924  0.00  0.00     0.037 C 
HETATM   22  C   UNK N   1      28.826  30.146  -4.572  0.00  0.00     0.037 C 
ENDBRANCH  17  19
ENDBRANCH  12  15
ENDBRANCH   4   5
ENDBRANCH   1   4
BRANCH   1  23
HETATM   23  C   UNK N   1      29.466  24.373  -3.299  0.00  0.00     0.124 C 
BRANCH  23  24
HETATM   24  N   UNK N   1      30.259  23.262  -3.790  0.00  0.00    -0.349 N 
HETATM   25  C   UNK N   1      30.919  22.382  -2.989  0.00  0.00     0.252 C 
HETATM   26  O   UNK N   1      30.819  22.435  -1.775  0.00  0.00    -0.268 OA
HETATM   27  H   UNK N   1      30.325  23.137  -4.765  0.00  0.00     0.163 HD
BRANCH  25  28
HETATM   28  C   UNK N   1      31.945  21.515  -3.576  0.00  0.00     0.040 A 
HETATM   29  C   UNK N   1      31.714  20.894  -4.821  0.00  0.00    -0.013 A 
HETATM   30  C   UNK N   1      32.712  20.093  -5.393  0.00  0.00     0.072 A 
HETATM   31  C   UNK N   1      30.422  21.099  -5.552  0.00  0.00     0.052 C 
HETATM   32  C   UNK N   1      33.926  19.909  -4.727  0.00  0.00     0.037 A 
HETATM   33  C   UNK N   1      34.154  20.528  -3.494  0.00  0.00     0.004 A 
HETATM   34  C   UNK N   1      33.169  21.338  -2.923  0.00  0.00     0.018 A 
BRANCH  30  35
HETATM   35  O   UNK N   1      32.514  19.505  -6.586  0.00  0.00    -0.360 OA
HETATM   36  H   UNK N   1      33.225  19.081  -7.025  0.00  0.00     0.217 HD
ENDBRANCH  30  35
ENDBRANCH  25  28
ENDBRANCH  23  24
BRANCH  23  37
HETATM   37  C   UNK N   1      29.746  25.720  -3.974  0.00  0.00     0.107 C 
BRANCH  37  38
HETATM   38  S   UNK N   1      31.206  25.853  -5.049  0.00  0.00    -0.128 SA
BRANCH  38  39
HETATM   39  C   UNK N   1      31.704  27.310  -4.149  0.00  0.00     0.000 A 
HETATM   40  C   UNK N   1      32.631  28.194  -4.716  0.00  0.00     0.018 A 
HETATM   41  C   UNK N   1      32.978  29.369  -4.046  0.00  0.00     0.001 A 
HETATM   42  C   UNK N   1      32.398  29.664  -2.809  0.00  0.00     0.000 A 
HETATM   43  C   UNK N   1      31.475  28.779  -2.240  0.00  0.00     0.001 A 
HETATM   44  C   UNK N   1      31.124  27.605  -2.912  0.00  0.00     0.018 A 
ENDBRANCH  38  39
ENDBRANCH  37  38
ENDBRANCH  23  37
ENDBRANCH   1  23
TORSDOF 12
ENDMDL
MODEL 6
REMARK VINA RESULT:      -7.4     13.607     16.967
REMARK  12 active torsions:
REMARK  status: ('A' for Active; 'I' for Inactive)
REMARK    1  A    between atoms: S_1  and  C_23 
REMARK    2  A    between atoms: S_1  and  C_29 
REMARK    3  A    between atoms: C_20  and  O_3 
REMARK    4  A    between atoms: O_5  and  C_34 
REMARK    5  A    between atoms: N_6  and  C_18 
REMARK       I    between atoms: N_7  and  C_19 
REMARK    6  A    between atoms: N_7  and  C_22 
REMARK    7  A    between atoms: C_21  and  N_8 
REMARK       I    between atoms: N_8  and  C_27 
REMARK    8  A    between atoms: C_15  and  C_19 
REMARK    9  A    between atoms: C_18  and  C_20 
REMARK   10  A    between atoms: C_20  and  C_21 
REMARK   11  A    between atoms: C_21  and  C_23 
REMARK   12  A    between atoms: C_27  and  C_28 
ROOT
HETATM    1  C   UNK N   1      25.905  15.440   5.976  0.00  0.00     0.170 C 
ENDROOT
BRANCH   1   2
HETATM    2  O   UNK N   1      26.298  15.753   7.280  0.00  0.00    -0.392 OA
HETATM    3  H   UNK N   1      27.000  16.380   7.513  0.00  0.00     0.210 HD
ENDBRANCH   1   2
BRANCH   1   4
HETATM    4  C   UNK N   1      27.090  15.367   5.001  0.00  0.00     0.307 C 
BRANCH   4   5
HETATM    5  N   UNK N   1      28.395  15.792   5.523  0.00  0.00     0.105 N 
HETATM    6  C   UNK N   1      29.387  14.714   5.340  0.00  0.00     0.278 C 
HETATM    7  C   UNK N   1      30.836  15.197   5.418  0.00  0.00     0.018 C 
HETATM    8  C   UNK N   1      30.911  16.368   6.408  0.00  0.00    -0.006 C 
HETATM    9  C   UNK N   1      31.752  14.022   5.796  0.00  0.00     0.007 C 
HETATM   10  C   UNK N   1      30.126  17.556   5.857  0.00  0.00     0.050 C 
HETATM   11  C   UNK N   1      32.366  16.748   6.661  0.00  0.00     0.005 C 
HETATM   12  C   UNK N   1      28.844  17.141   5.112  0.00  0.00     0.314 C 
HETATM   13  C   UNK N   1      33.188  15.562   7.198  0.00  0.00     0.000 C 
HETATM   14  C   UNK N   1      32.450  14.216   7.144  0.00  0.00     0.000 C 
BRANCH  12  15
HETATM   15  C   UNK N   1      27.801  18.185   5.383  0.00  0.00     0.252 C 
HETATM   16  O   UNK N   1      27.517  18.453   6.540  0.00  0.00    -0.271 OA
HETATM   17  N   UNK N   1      27.219  18.837   4.336  0.00  0.00    -0.351 N 
HETATM   18  H   UNK N   1      27.522  18.569   3.438  0.00  0.00     0.163 HD
BRANCH  17  19
HETATM   19  C   UNK N   1      26.203  19.882   4.379  0.00  0.00     0.022 C 
HETATM   20  C   UNK N   1      26.651  20.957   5.347  0.00  0.00     0.037 C 
HETATM   21  C   UNK N   1      24.817  19.410   4.793  0.00  0.00     0.037 C 
HETATM   22  C   UNK N   1      26.094  20.498   3.000  0.00  0.00     0.037 C 
ENDBRANCH  17  19
ENDBRANCH  12  15
ENDBRANCH   4   5
ENDBRANCH   1   4
BRANCH   1  23
HETATM   23  C   UNK N   1      24.974  14.233   5.991  0.00  0.00     0.124 C 
BRANCH  23  24
HETATM   24  N   UNK N   1      24.591  13.926   7.357  0.00  0.00    -0.349 N 
HETATM   25  C   UNK N   1      24.266  12.681   7.798  0.00  0.00     0.252 C 
HETATM   26  O   UNK N   1      24.352  11.709   7.065  0.00  0.00    -0.268 OA
HETATM   27  H   UNK N   1      24.564  14.667   8.006  0.00  0.00     0.163 HD
BRANCH  25  28
HETATM   28  C   UNK N   1      23.583  12.536   9.085  0.00  0.00     0.040 A 
HETATM   29  C   UNK N   1      22.191  12.749   9.171  0.00  0.00    -0.013 A 
HETATM   30  C   UNK N   1      21.536  12.575  10.399  0.00  0.00     0.072 A 
HETATM   31  C   UNK N   1      21.397  13.133   7.960  0.00  0.00     0.052 C 
HETATM   32  C   UNK N   1      22.265  12.201  11.531  0.00  0.00     0.037 A 
HETATM   33  C   UNK N   1      23.644  11.989  11.443  0.00  0.00     0.004 A 
HETATM   34  C   UNK N   1      24.301  12.146  10.220  0.00  0.00     0.018 A 
BRANCH  30  35
HETATM   35  O   UNK N   1      20.208  12.759  10.495  0.00  0.00    -0.360 OA
HETATM   36  H   UNK N   1      19.811  13.521  10.120  0.00  0.00     0.217 HD
ENDBRANCH  30  35
ENDBRANCH  25  28
ENDBRANCH  23  24
BRANCH  23  37
HETATM   37  C   UNK N   1      23.821  14.246   4.981  0.00  0.00     0.107 C 
BRANCH  37  38
HETATM   38  S   UNK N   1      23.468  15.798   4.104  0.00  0.00    -0.128 SA
BRANCH  38  39
HETATM   39  C   UNK N   1      22.020  16.015   5.122  0.00  0.00     0.000 A 
HETATM   40  C   UNK N   1      20.799  15.459   4.722  0.00  0.00     0.018 A 
HETATM   41  C   UNK N   1      19.676  15.570   5.544  0.00  0.00     0.001 A 
HETATM   42  C   UNK N   1      19.772  16.236   6.770  0.00  0.00     0.000 A 
HETATM   43  C   UNK N   1      20.991  16.795   7.169  0.00  0.00     0.001 A 
HETATM   44  C   UNK N   1      22.117  16.681   6.349  0.00  0.00     0.018 A 
ENDBRANCH  38  39
ENDBRANCH  37  38
ENDBRANCH  23  37
ENDBRANCH   1  23
TORSDOF 12
ENDMDL
MODEL 7
REMARK VINA RESULT:      -7.3     13.706     17.179
REMARK  12 active torsions:
REMARK  status: ('A' for Active; 'I' for Inactive)
REMARK    1  A    between atoms: S_1  and  C_23 
REMARK    2  A    between atoms: S_1  and  C_29 
REMARK    3  A    between atoms: C_20  and  O_3 
REMARK    4  A    between atoms: O_5  and  C_34 
REMARK    5  A    between atoms: N_6  and  C_18 
REMARK       I    between atoms: N_7  and  C_19 
REMARK    6  A    between atoms: N_7  and  C_22 
REMARK    7  A    between atoms: C_21  and  N_8 
REMARK       I    between atoms: N_8  and  C_27 
REMARK    8  A    between atoms: C_15  and  C_19 
REMARK    9  A    between atoms: C_18  and  C_20 
REMARK   10  A    between atoms: C_20  and  C_21 
REMARK   11  A    between atoms: C_21  and  C_23 
REMARK   12  A    between atoms: C_27  and  C_28 
ROOT
HETATM    1  C   UNK N   1      21.870  13.986   5.100  0.00  0.00     0.170 C 
ENDROOT
BRANCH   1   2
HETATM    2  O   UNK N   1      22.795  13.327   4.285  0.00  0.00    -0.392 OA
HETATM    3  H   UNK N   1      22.643  13.082   3.358  0.00  0.00     0.210 HD
ENDBRANCH   1   2
BRANCH   1   4
HETATM    4  C   UNK N   1      22.536  14.944   6.100  0.00  0.00     0.307 C 
BRANCH   4   5
HETATM    5  N   UNK N   1      23.148  14.330   7.286  0.00  0.00     0.105 N 
HETATM    6  C   UNK N   1      22.154  13.500   7.993  0.00  0.00     0.278 C 
HETATM    7  C   UNK N   1      22.777  12.478   8.945  0.00  0.00     0.018 C 
HETATM    8  C   UNK N   1      24.070  13.069   9.523  0.00  0.00    -0.006 C 
HETATM    9  C   UNK N   1      21.754  12.085  10.023  0.00  0.00     0.007 C 
HETATM   10  C   UNK N   1      25.096  13.248   8.405  0.00  0.00     0.050 C 
HETATM   11  C   UNK N   1      24.616  12.163  10.621  0.00  0.00     0.005 C 
HETATM   12  C   UNK N   1      24.466  13.694   7.073  0.00  0.00     0.314 C 
HETATM   13  C   UNK N   1      23.595  11.948  11.753  0.00  0.00     0.000 C 
HETATM   14  C   UNK N   1      22.190  12.482  11.436  0.00  0.00     0.000 C 
BRANCH  12  15
HETATM   15  C   UNK N   1      25.435  14.622   6.399  0.00  0.00     0.252 C 
HETATM   16  O   UNK N   1      25.992  15.481   7.064  0.00  0.00    -0.271 OA
HETATM   17  N   UNK N   1      25.699  14.466   5.071  0.00  0.00    -0.351 N 
HETATM   18  H   UNK N   1      25.218  13.735   4.618  0.00  0.00     0.163 HD
BRANCH  17  19
HETATM   19  C   UNK N   1      26.604  15.244   4.235  0.00  0.00     0.022 C 
HETATM   20  C   UNK N   1      26.220  16.706   4.333  0.00  0.00     0.037 C 
HETATM   21  C   UNK N   1      26.618  14.849   2.766  0.00  0.00     0.037 C 
HETATM   22  C   UNK N   1      28.010  15.084   4.775  0.00  0.00     0.037 C 
ENDBRANCH  17  19
ENDBRANCH  12  15
ENDBRANCH   4   5
ENDBRANCH   1   4
BRANCH   1  23
HETATM   23  C   UNK N   1      20.756  14.578   4.245  0.00  0.00     0.124 C 
BRANCH  23  24
HETATM   24  N   UNK N   1      21.140  15.899   3.785  0.00  0.00    -0.349 N 
HETATM   25  C   UNK N   1      20.568  17.055   4.220  0.00  0.00     0.252 C 
HETATM   26  O   UNK N   1      19.725  17.050   5.101  0.00  0.00    -0.268 OA
HETATM   27  H   UNK N   1      21.859  15.964   3.115  0.00  0.00     0.163 HD
BRANCH  25  28
HETATM   28  C   UNK N   1      20.790  18.289   3.462  0.00  0.00     0.040 A 
HETATM   29  C   UNK N   1      21.980  19.024   3.646  0.00  0.00    -0.013 A 
HETATM   30  C   UNK N   1      22.203  20.185   2.892  0.00  0.00     0.072 A 
HETATM   31  C   UNK N   1      23.023  18.564   4.619  0.00  0.00     0.052 C 
HETATM   32  C   UNK N   1      21.244  20.613   1.971  0.00  0.00     0.037 A 
HETATM   33  C   UNK N   1      20.066  19.882   1.789  0.00  0.00     0.004 A 
HETATM   34  C   UNK N   1      19.843  18.716   2.526  0.00  0.00     0.018 A 
BRANCH  30  35
HETATM   35  O   UNK N   1      23.338  20.890   3.045  0.00  0.00    -0.360 OA
HETATM   36  H   UNK N   1      23.300  21.800   3.267  0.00  0.00     0.217 HD
ENDBRANCH  30  35
ENDBRANCH  25  28
ENDBRANCH  23  24
BRANCH  23  37
HETATM   37  C   UNK N   1      20.160  13.663   3.168  0.00  0.00     0.107 C 
BRANCH  37  38
HETATM   38  S   UNK N   1      19.916  14.347   1.502  0.00  0.00    -0.128 SA
BRANCH  38  39
HETATM   39  C   UNK N   1      21.458  13.605   0.999  0.00  0.00     0.000 A 
HETATM   40  C   UNK N   1      21.496  12.249   0.651  0.00  0.00     0.018 A 
HETATM   41  C   UNK N   1      22.686  11.676   0.196  0.00  0.00     0.001 A 
HETATM   42  C   UNK N   1      23.839  12.458   0.086  0.00  0.00     0.000 A 
HETATM   43  C   UNK N   1      23.803  13.812   0.437  0.00  0.00     0.001 A 
HETATM   44  C   UNK N   1      22.612  14.387   0.888  0.00  0.00     0.018 A 
ENDBRANCH  38  39
ENDBRANCH  37  38
ENDBRANCH  23  37
ENDBRANCH   1  23
TORSDOF 12
ENDMDL
MODEL 8
REMARK VINA RESULT:      -7.2     12.980     16.495
REMARK  12 active torsions:
REMARK  status: ('A' for Active; 'I' for Inactive)
REMARK    1  A    between atoms: S_1  and  C_23 
REMARK    2  A    between atoms: S_1  and  C_29 
REMARK    3  A    between atoms: C_20  and  O_3 
REMARK    4  A    between atoms: O_5  and  C_34 
REMARK    5  A    between atoms: N_6  and  C_18 
REMARK       I    between atoms: N_7  and  C_19 
REMARK    6  A    between atoms: N_7  and  C_22 
REMARK    7  A    between atoms: C_21  and  N_8 
REMARK       I    between atoms: N_8  and  C_27 
REMARK    8  A    between atoms: C_15  and  C_19 
REMARK    9  A    between atoms: C_18  and  C_20 
REMARK   10  A    between atoms: C_20  and  C_21 
REMARK   11  A    between atoms: C_21  and  C_23 
REMARK   12  A    between atoms: C_27  and  C_28 
ROOT
HETATM    1  C   UNK N   1      22.186  13.633   4.820  0.00  0.00     0.170 C 
ENDROOT
BRANCH   1   2
HETATM    2  O   UNK N   1      23.218  12.746   4.501  0.00  0.00    -0.392 OA
HETATM    3  H   UNK N   1      23.101  11.798   4.327  0.00  0.00     0.210 HD
ENDBRANCH   1   2
BRANCH   1   4
HETATM    4  C   UNK N   1      22.626  14.725   5.807  0.00  0.00     0.307 C 
BRANCH   4   5
HETATM    5  N   UNK N   1      24.053  15.071   5.807  0.00  0.00     0.105 N 
HETATM    6  C   UNK N   1      24.267  16.334   5.074  0.00  0.00     0.278 C 
HETATM    7  C   UNK N   1      25.600  17.010   5.396  0.00  0.00     0.018 C 
HETATM    8  C   UNK N   1      26.643  15.924   5.693  0.00  0.00    -0.006 C 
HETATM    9  C   UNK N   1      26.002  17.937   4.236  0.00  0.00     0.007 C 
HETATM   10  C   UNK N   1      26.257  15.180   6.970  0.00  0.00     0.050 C 
HETATM   11  C   UNK N   1      28.028  16.548   5.826  0.00  0.00     0.005 C 
HETATM   12  C   UNK N   1      24.739  14.977   7.116  0.00  0.00     0.314 C 
HETATM   13  C   UNK N   1      28.435  17.324   4.559  0.00  0.00     0.000 C 
HETATM   14  C   UNK N   1      27.297  17.503   3.544  0.00  0.00     0.000 C 
BRANCH  12  15
HETATM   15  C   UNK N   1      24.517  13.644   7.769  0.00  0.00     0.252 C 
HETATM   16  O   UNK N   1      24.973  12.642   7.240  0.00  0.00    -0.271 OA
HETATM   17  N   UNK N   1      23.845  13.581   8.954  0.00  0.00    -0.351 N 
HETATM   18  H   UNK N   1      23.530  14.441   9.316  0.00  0.00     0.163 HD
BRANCH  17  19
HETATM   19  C   UNK N   1      23.535  12.402   9.753  0.00  0.00     0.022 C 
HETATM   20  C   UNK N   1      23.321  11.227   8.821  0.00  0.00     0.037 C 
HETATM   21  C   UNK N   1      22.310  12.538  10.644  0.00  0.00     0.037 C 
HETATM   22  C   UNK N   1      24.725  12.098  10.637  0.00  0.00     0.037 C 
ENDBRANCH  17  19
ENDBRANCH  12  15
ENDBRANCH   4   5
ENDBRANCH   1   4
BRANCH   1  23
HETATM   23  C   UNK N   1      21.506  14.117   3.545  0.00  0.00     0.124 C 
BRANCH  23  24
HETATM   24  N   UNK N   1      21.626  15.559   3.442  0.00  0.00    -0.349 N 
HETATM   25  C   UNK N   1      20.570  16.416   3.461  0.00  0.00     0.252 C 
HETATM   26  O   UNK N   1      19.433  16.014   3.645  0.00  0.00    -0.268 OA
HETATM   27  H   UNK N   1      22.529  15.942   3.352  0.00  0.00     0.163 HD
BRANCH  25  28
HETATM   28  C   UNK N   1      20.767  17.800   3.022  0.00  0.00     0.040 A 
HETATM   29  C   UNK N   1      20.575  18.143   1.667  0.00  0.00    -0.013 A 
HETATM   30  C   UNK N   1      20.731  19.475   1.259  0.00  0.00     0.072 A 
HETATM   31  C   UNK N   1      20.180  17.104   0.662  0.00  0.00     0.052 C 
HETATM   32  C   UNK N   1      21.083  20.453   2.191  0.00  0.00     0.037 A 
HETATM   33  C   UNK N   1      21.271  20.112   3.534  0.00  0.00     0.004 A 
HETATM   34  C   UNK N   1      21.103  18.789   3.952  0.00  0.00     0.018 A 
BRANCH  30  35
HETATM   35  O   UNK N   1      20.538  19.821  -0.026  0.00  0.00    -0.360 OA
HETATM   36  H   UNK N   1      20.902  20.618  -0.358  0.00  0.00     0.217 HD
ENDBRANCH  30  35
ENDBRANCH  25  28
ENDBRANCH  23  24
BRANCH  23  37
HETATM   37  C   UNK N   1      21.832  13.344   2.261  0.00  0.00     0.107 C 
BRANCH  37  38
HETATM   38  S   UNK N   1      22.496  14.274   0.847  0.00  0.00    -0.128 SA
BRANCH  38  39
HETATM   39  C   UNK N   1      24.136  13.734   1.294  0.00  0.00     0.000 A 
HETATM   40  C   UNK N   1      25.018  14.630   1.910  0.00  0.00     0.018 A 
HETATM   41  C   UNK N   1      26.281  14.198   2.321  0.00  0.00     0.001 A 
HETATM   42  C   UNK N   1      26.663  12.868   2.118  0.00  0.00     0.000 A 
HETATM   43  C   UNK N   1      25.783  11.973   1.500  0.00  0.00     0.001 A 
HETATM   44  C   UNK N   1      24.518  12.404   1.092  0.00  0.00     0.018 A 
ENDBRANCH  38  39
ENDBRANCH  37  38
ENDBRANCH  23  37
ENDBRANCH   1  23
TORSDOF 12
ENDMDL
MODEL 9
REMARK VINA RESULT:      -7.2     12.174     14.868
REMARK  12 active torsions:
REMARK  status: ('A' for Active; 'I' for Inactive)
REMARK    1  A    between atoms: S_1  and  C_23 
REMARK    2  A    between atoms: S_1  and  C_29 
REMARK    3  A    between atoms: C_20  and  O_3 
REMARK    4  A    between atoms: O_5  and  C_34 
REMARK    5  A    between atoms: N_6  and  C_18 
REMARK       I    between atoms: N_7  and  C_19 
REMARK    6  A    between atoms: N_7  and  C_22 
REMARK    7  A    between atoms: C_21  and  N_8 
REMARK       I    between atoms: N_8  and  C_27 
REMARK    8  A    between atoms: C_15  and  C_19 
REMARK    9  A    between atoms: C_18  and  C_20 
REMARK   10  A    between atoms: C_20  and  C_21 
REMARK   11  A    between atoms: C_21  and  C_23 
REMARK   12  A    between atoms: C_27  and  C_28 
ROOT
HETATM    1  C   UNK N   1      29.108  14.266   3.520  0.00  0.00     0.170 C 
ENDROOT
BRANCH   1   2
HETATM    2  O   UNK N   1      28.506  14.071   4.765  0.00  0.00    -0.392 OA
HETATM    3  H   UNK N   1      28.969  14.109   5.618  0.00  0.00     0.210 HD
ENDBRANCH   1   2
BRANCH   1   4
HETATM    4  C   UNK N   1      28.400  15.339   2.678  0.00  0.00     0.307 C 
BRANCH   4   5
HETATM    5  N   UNK N   1      27.571  16.304   3.412  0.00  0.00     0.105 N 
HETATM    6  C   UNK N   1      28.290  17.586   3.547  0.00  0.00     0.278 C 
HETATM    7  C   UNK N   1      27.375  18.769   3.871  0.00  0.00     0.018 C 
HETATM    8  C   UNK N   1      26.208  18.265   4.733  0.00  0.00    -0.006 C 
HETATM    9  C   UNK N   1      28.192  19.883   4.546  0.00  0.00     0.007 C 
HETATM   10  C   UNK N   1      25.344  17.308   3.915  0.00  0.00     0.050 C 
HETATM   11  C   UNK N   1      25.384  19.444   5.239  0.00  0.00     0.005 C 
HETATM   12  C   UNK N   1      26.163  16.412   2.969  0.00  0.00     0.314 C 
HETATM   13  C   UNK N   1      26.235  20.438   6.050  0.00  0.00     0.000 C 
HETATM   14  C   UNK N   1      27.745  20.167   5.982  0.00  0.00     0.000 C 
BRANCH  12  15
HETATM   15  C   UNK N   1      25.490  15.072   2.912  0.00  0.00     0.252 C 
HETATM   16  O   UNK N   1      25.418  14.401   3.930  0.00  0.00    -0.271 OA
HETATM   17  N   UNK N   1      24.941  14.646   1.739  0.00  0.00    -0.351 N 
HETATM   18  H   UNK N   1      25.030  15.260   0.974  0.00  0.00     0.163 HD
BRANCH  17  19
HETATM   19  C   UNK N   1      24.240  13.397   1.473  0.00  0.00     0.022 C 
HETATM   20  C   UNK N   1      23.689  13.440   0.062  0.00  0.00     0.037 C 
HETATM   21  C   UNK N   1      23.094  13.091   2.426  0.00  0.00     0.037 C 
HETATM   22  C   UNK N   1      25.237  12.261   1.560  0.00  0.00     0.037 C 
ENDBRANCH  17  19
ENDBRANCH  12  15
ENDBRANCH   4   5
ENDBRANCH   1   4
BRANCH   1  23
HETATM   23  C   UNK N   1      30.613  14.436   3.693  0.00  0.00     0.124 C 
BRANCH  23  24
HETATM   24  N   UNK N   1      30.883  15.254   4.861  0.00  0.00    -0.349 N 
HETATM   25  C   UNK N   1      31.462  16.485   4.814  0.00  0.00     0.252 C 
HETATM   26  O   UNK N   1      31.729  17.017   3.749  0.00  0.00    -0.268 OA
HETATM   27  H   UNK N   1      30.631  14.897   5.743  0.00  0.00     0.163 HD
BRANCH  25  28
HETATM   28  C   UNK N   1      31.987  17.073   6.048  0.00  0.00     0.040 A 
HETATM   29  C   UNK N   1      31.115  17.354   7.121  0.00  0.00    -0.013 A 
HETATM   30  C   UNK N   1      31.628  17.885   8.313  0.00  0.00     0.072 A 
HETATM   31  C   UNK N   1      29.648  17.068   7.012  0.00  0.00     0.052 C 
HETATM   32  C   UNK N   1      32.997  18.140   8.430  0.00  0.00     0.037 A 
HETATM   33  C   UNK N   1      33.860  17.859   7.366  0.00  0.00     0.004 A 
HETATM   34  C   UNK N   1      33.358  17.316   6.181  0.00  0.00     0.018 A 
BRANCH  30  35
HETATM   35  O   UNK N   1      30.813  18.146   9.350  0.00  0.00    -0.360 OA
HETATM   36  H   UNK N   1      30.653  17.488   9.998  0.00  0.00     0.217 HD
ENDBRANCH  30  35
ENDBRANCH  25  28
ENDBRANCH  23  24
BRANCH  23  37
HETATM   37  C   UNK N   1      31.463  13.165   3.581  0.00  0.00     0.107 C 
BRANCH  37  38
HETATM   38  S   UNK N   1      33.071  13.280   2.742  0.00  0.00    -0.128 SA
BRANCH  38  39
HETATM   39  C   UNK N   1      33.853  13.510   4.328  0.00  0.00     0.000 A 
HETATM   40  C   UNK N   1      34.936  14.390   4.448  0.00  0.00     0.018 A 
HETATM   41  C   UNK N   1      35.513  14.624   5.698  0.00  0.00     0.001 A 
HETATM   42  C   UNK N   1      35.008  13.979   6.831  0.00  0.00     0.000 A 
HETATM   43  C   UNK N   1      33.928  13.097   6.712  0.00  0.00     0.001 A 
HETATM   44  C   UNK N   1      33.347  12.866   5.462  0.00  0.00     0.018 A 
ENDBRANCH  38  39
ENDBRANCH  37  38
ENDBRANCH  23  37
ENDBRANCH   1  23
TORSDOF 12
ENDMDL
