MODEL 1
REMARK VINA RESULT:      -5.5      0.000      0.000
REMARK  8 active torsions:
REMARK  status: ('A' for Active; 'I' for Inactive)
REMARK    1  A    between atoms: O_1  and  C_6 
REMARK    2  A    between atoms: O_2  and  C_15 
REMARK    3  A    between atoms: O_3  and  C_17 
REMARK    4  A    between atoms: N_4  and  C_5 
REMARK    5  A    between atoms: N_4  and  C_8 
REMARK    6  A    between atoms: C_5  and  C_6 
REMARK    7  A    between atoms: C_5  and  C_7 
REMARK    8  A    between atoms: C_6  and  C_9 
ROOT
HETATM    1  C   UNK N   1      35.142  13.124  15.745  0.00  0.00     0.173 C 
ENDROOT
BRANCH   1   2
HETATM    2  O   UNK N   1      34.163  12.436  15.023  0.00  0.00    -0.389 OA
HETATM    3  H   UNK N   1      34.103  12.174  14.091  0.00  0.00     0.210 HD
ENDBRANCH   1   2
BRANCH   1   4
HETATM    4  C   UNK N   1      36.405  13.244  14.866  0.00  0.00     0.109 C 
BRANCH   4   5
HETATM    5  N   UNK N   1      36.158  12.557  13.599  0.00  0.00    -0.411 N 
HETATM    6  H   UNK N   1      35.277  12.577  13.085  0.00  0.00     0.154 HD
BRANCH   5   7
HETATM    7  C   UNK N   1      37.355  11.838  13.175  0.00  0.00     0.068 C 
HETATM    8  C   UNK N   1      38.020  11.230  14.394  0.00  0.00     0.031 C 
HETATM    9  C   UNK N   1      36.992  10.708  12.227  0.00  0.00     0.031 C 
ENDBRANCH   5   7
ENDBRANCH   4   5
BRANCH   4  10
HETATM   10  C   UNK N   1      36.792  14.687  14.574  0.00  0.00     0.023 C 
HETATM   11  C   UNK N   1      37.335  15.321  15.842  0.00  0.00     0.007 C 
ENDBRANCH   4  10
ENDBRANCH   1   4
BRANCH   1  12
HETATM   12  C   UNK N   1      35.290  12.490  17.117  0.00  0.00    -0.025 A 
HETATM   13  C   UNK N   1      35.006  13.263  18.251  0.00  0.00     0.049 A 
HETATM   14  C   UNK N   1      35.149  12.726  19.539  0.00  0.00     0.099 A 
HETATM   15  C   UNK N   1      35.603  11.410  19.692  0.00  0.00     0.098 A 
HETATM   16  C   UNK N   1      35.890  10.633  18.572  0.00  0.00     0.040 A 
HETATM   17  C   UNK N   1      35.725  11.167  17.291  0.00  0.00     0.013 A 
BRANCH  14  18
HETATM   18  O   UNK N   1      34.852  13.475  20.609  0.00  0.00    -0.358 OA
HETATM   19  H   UNK N   1      35.078  13.179  21.470  0.00  0.00     0.217 HD
ENDBRANCH  14  18
BRANCH  15  20
HETATM   20  O   UNK N   1      35.762  10.889  20.926  0.00  0.00    -0.358 OA
HETATM   21  H   UNK N   1      36.507  10.355  21.120  0.00  0.00     0.217 HD
ENDBRANCH  15  20
ENDBRANCH   1  12
TORSDOF 8
ENDMDL
MODEL 2
REMARK VINA RESULT:      -5.4     12.532     14.388
REMARK  8 active torsions:
REMARK  status: ('A' for Active; 'I' for Inactive)
REMARK    1  A    between atoms: O_1  and  C_6 
REMARK    2  A    between atoms: O_2  and  C_15 
REMARK    3  A    between atoms: O_3  and  C_17 
REMARK    4  A    between atoms: N_4  and  C_5 
REMARK    5  A    between atoms: N_4  and  C_8 
REMARK    6  A    between atoms: C_5  and  C_6 
REMARK    7  A    between atoms: C_5  and  C_7 
REMARK    8  A    between atoms: C_6  and  C_9 
ROOT
HETATM    1  C   UNK N   1      29.328  17.203   4.979  0.00  0.00     0.173 C 
ENDROOT
BRANCH   1   2
HETATM    2  O   UNK N   1      30.296  17.967   4.322  0.00  0.00    -0.389 OA
HETATM    3  H   UNK N   1      30.561  18.897   4.406  0.00  0.00     0.210 HD
ENDBRANCH   1   2
BRANCH   1   4
HETATM    4  C   UNK N   1      27.951  17.518   4.359  0.00  0.00     0.109 C 
BRANCH   4   5
HETATM    5  N   UNK N   1      27.990  18.868   3.797  0.00  0.00    -0.411 N 
HETATM    6  H   UNK N   1      28.674  19.198   3.115  0.00  0.00     0.154 HD
BRANCH   5   7
HETATM    7  C   UNK N   1      26.911  19.677   4.354  0.00  0.00     0.068 C 
HETATM    8  C   UNK N   1      27.505  20.711   5.289  0.00  0.00     0.031 C 
HETATM    9  C   UNK N   1      26.170  20.412   3.251  0.00  0.00     0.031 C 
ENDBRANCH   5   7
ENDBRANCH   4   5
BRANCH   4  10
HETATM   10  C   UNK N   1      27.555  16.542   3.260  0.00  0.00     0.023 C 
HETATM   11  C   UNK N   1      26.073  16.235   3.379  0.00  0.00     0.007 C 
ENDBRANCH   4  10
ENDBRANCH   1   4
BRANCH   1  12
HETATM   12  C   UNK N   1      29.487  17.376   6.479  0.00  0.00    -0.025 A 
HETATM   13  C   UNK N   1      28.358  17.699   7.244  0.00  0.00     0.049 A 
HETATM   14  C   UNK N   1      28.461  17.889   8.630  0.00  0.00     0.099 A 
HETATM   15  C   UNK N   1      29.712  17.778   9.251  0.00  0.00     0.098 A 
HETATM   16  C   UNK N   1      30.841  17.460   8.500  0.00  0.00     0.040 A 
HETATM   17  C   UNK N   1      30.728  17.250   7.123  0.00  0.00     0.013 A 
BRANCH  14  18
HETATM   18  O   UNK N   1      27.366  18.175   9.346  0.00  0.00    -0.358 OA
HETATM   19  H   UNK N   1      26.676  17.546   9.425  0.00  0.00     0.217 HD
ENDBRANCH  14  18
BRANCH  15  20
HETATM   20  O   UNK N   1      29.827  17.977  10.580  0.00  0.00    -0.358 OA
HETATM   21  H   UNK N   1      29.390  18.697  10.988  0.00  0.00     0.217 HD
ENDBRANCH  15  20
ENDBRANCH   1  12
TORSDOF 8
ENDMDL
MODEL 3
REMARK VINA RESULT:      -5.4      2.161      2.948
REMARK  8 active torsions:
REMARK  status: ('A' for Active; 'I' for Inactive)
REMARK    1  A    between atoms: O_1  and  C_6 
REMARK    2  A    between atoms: O_2  and  C_15 
REMARK    3  A    between atoms: O_3  and  C_17 
REMARK    4  A    between atoms: N_4  and  C_5 
REMARK    5  A    between atoms: N_4  and  C_8 
REMARK    6  A    between atoms: C_5  and  C_6 
REMARK    7  A    between atoms: C_5  and  C_7 
REMARK    8  A    between atoms: C_6  and  C_9 
ROOT
HETATM    1  C   UNK N   1      36.184  12.212  15.022  0.00  0.00     0.173 C 
ENDROOT
BRANCH   1   2
HETATM    2  O   UNK N   1      37.406  12.840  14.770  0.00  0.00    -0.389 OA
HETATM    3  H   UNK N   1      37.833  13.132  13.948  0.00  0.00     0.210 HD
ENDBRANCH   1   2
BRANCH   1   4
HETATM    4  C   UNK N   1      35.179  12.640  13.932  0.00  0.00     0.109 C 
BRANCH   4   5
HETATM    5  N   UNK N   1      35.876  13.482  12.960  0.00  0.00    -0.411 N 
HETATM    6  H   UNK N   1      36.690  14.063  13.166  0.00  0.00     0.154 HD
BRANCH   5   7
HETATM    7  C   UNK N   1      35.238  13.374  11.652  0.00  0.00     0.068 C 
HETATM    8  C   UNK N   1      34.529  14.677  11.343  0.00  0.00     0.031 C 
HETATM    9  C   UNK N   1      36.276  13.137  10.569  0.00  0.00     0.031 C 
ENDBRANCH   5   7
ENDBRANCH   4   5
BRANCH   4  10
HETATM   10  C   UNK N   1      34.555  11.461  13.200  0.00  0.00     0.023 C 
HETATM   11  C   UNK N   1      33.700  10.669  14.174  0.00  0.00     0.007 C 
ENDBRANCH   4  10
ENDBRANCH   1   4
BRANCH   1  12
HETATM   12  C   UNK N   1      35.796  12.435  16.473  0.00  0.00    -0.025 A 
HETATM   13  C   UNK N   1      35.639  13.749  16.933  0.00  0.00     0.049 A 
HETATM   14  C   UNK N   1      35.302  14.005  18.271  0.00  0.00     0.099 A 
HETATM   15  C   UNK N   1      35.145  12.934  19.160  0.00  0.00     0.098 A 
HETATM   16  C   UNK N   1      35.301  11.624  18.714  0.00  0.00     0.040 A 
HETATM   17  C   UNK N   1      35.616  11.375  17.374  0.00  0.00     0.013 A 
BRANCH  14  18
HETATM   18  O   UNK N   1      35.134  15.267  18.686  0.00  0.00    -0.358 OA
HETATM   19  H   UNK N   1      35.680  15.951  18.349  0.00  0.00     0.217 HD
ENDBRANCH  14  18
BRANCH  15  20
HETATM   20  O   UNK N   1      34.840  13.168  20.452  0.00  0.00    -0.358 OA
HETATM   21  H   UNK N   1      34.728  12.453  21.048  0.00  0.00     0.217 HD
ENDBRANCH  15  20
ENDBRANCH   1  12
TORSDOF 8
ENDMDL
MODEL 4
REMARK VINA RESULT:      -5.4      9.593     12.634
REMARK  8 active torsions:
REMARK  status: ('A' for Active; 'I' for Inactive)
REMARK    1  A    between atoms: O_1  and  C_6 
REMARK    2  A    between atoms: O_2  and  C_15 
REMARK    3  A    between atoms: O_3  and  C_17 
REMARK    4  A    between atoms: N_4  and  C_5 
REMARK    5  A    between atoms: N_4  and  C_8 
REMARK    6  A    between atoms: C_5  and  C_6 
REMARK    7  A    between atoms: C_5  and  C_7 
REMARK    8  A    between atoms: C_6  and  C_9 
ROOT
HETATM    1  C   UNK N   1      33.366  17.838   6.954  0.00  0.00     0.173 C 
ENDROOT
BRANCH   1   2
HETATM    2  O   UNK N   1      34.654  18.222   7.338  0.00  0.00    -0.389 OA
HETATM    3  H   UNK N   1      34.983  18.739   8.090  0.00  0.00     0.210 HD
ENDBRANCH   1   2
BRANCH   1   4
HETATM    4  C   UNK N   1      32.668  17.185   8.165  0.00  0.00     0.109 C 
BRANCH   4   5
HETATM    5  N   UNK N   1      33.630  17.090   9.263  0.00  0.00    -0.411 N 
HETATM    6  H   UNK N   1      34.067  17.887   9.727  0.00  0.00     0.154 HD
BRANCH   5   7
HETATM    7  C   UNK N   1      33.875  15.691   9.599  0.00  0.00     0.068 C 
HETATM    8  C   UNK N   1      32.846  14.830   8.894  0.00  0.00     0.031 C 
HETATM    9  C   UNK N   1      35.252  15.261   9.124  0.00  0.00     0.031 C 
ENDBRANCH   5   7
ENDBRANCH   4   5
BRANCH   4  10
HETATM   10  C   UNK N   1      31.453  17.966   8.644  0.00  0.00     0.023 C 
HETATM   11  C   UNK N   1      30.245  17.559   7.819  0.00  0.00     0.007 C 
ENDBRANCH   4  10
ENDBRANCH   1   4
BRANCH   1  12
HETATM   12  C   UNK N   1      33.446  17.039   5.665  0.00  0.00    -0.025 A 
HETATM   13  C   UNK N   1      32.710  17.476   4.555  0.00  0.00     0.049 A 
HETATM   14  C   UNK N   1      32.736  16.758   3.350  0.00  0.00     0.099 A 
HETATM   15  C   UNK N   1      33.489  15.580   3.265  0.00  0.00     0.098 A 
HETATM   16  C   UNK N   1      34.223  15.136   4.361  0.00  0.00     0.040 A 
HETATM   17  C   UNK N   1      34.210  15.868   5.553  0.00  0.00     0.013 A 
BRANCH  14  18
HETATM   18  O   UNK N   1      32.042  17.204   2.295  0.00  0.00    -0.358 OA
HETATM   19  H   UNK N   1      31.137  17.429   2.386  0.00  0.00     0.217 HD
ENDBRANCH  14  18
BRANCH  15  20
HETATM   20  O   UNK N   1      33.507  14.871   2.117  0.00  0.00    -0.358 OA
HETATM   21  H   UNK N   1      33.071  15.197   1.354  0.00  0.00     0.217 HD
ENDBRANCH  15  20
ENDBRANCH   1  12
TORSDOF 8
ENDMDL
MODEL 5
REMARK VINA RESULT:      -5.4     22.879     25.293
REMARK  8 active torsions:
REMARK  status: ('A' for Active; 'I' for Inactive)
REMARK    1  A    between atoms: O_1  and  C_6 
REMARK    2  A    between atoms: O_2  and  C_15 
REMARK    3  A    between atoms: O_3  and  C_17 
REMARK    4  A    between atoms: N_4  and  C_5 
REMARK    5  A    between atoms: N_4  and  C_8 
REMARK    6  A    between atoms: C_5  and  C_6 
REMARK    7  A    between atoms: C_5  and  C_7 
REMARK    8  A    between atoms: C_6  and  C_9 
ROOT
HETATM    1  C   UNK N   1      28.457  23.524  -5.771  0.00  0.00     0.173 C 
ENDROOT
BRANCH   1   2
HETATM    2  O   UNK N   1      29.078  24.561  -6.473  0.00  0.00    -0.389 OA
HETATM    3  H   UNK N   1      29.989  24.895  -6.474  0.00  0.00     0.210 HD
ENDBRANCH   1   2
BRANCH   1   4
HETATM    4  C   UNK N   1      27.140  24.059  -5.171  0.00  0.00     0.109 C 
BRANCH   4   5
HETATM    5  N   UNK N   1      27.111  25.513  -5.330  0.00  0.00    -0.411 N 
HETATM    6  H   UNK N   1      27.806  26.059  -5.840  0.00  0.00     0.154 HD
BRANCH   5   7
HETATM    7  C   UNK N   1      25.945  26.070  -4.652  0.00  0.00     0.068 C 
HETATM    8  C   UNK N   1      26.394  26.723  -3.360  0.00  0.00     0.031 C 
HETATM    9  C   UNK N   1      25.286  27.135  -5.512  0.00  0.00     0.031 C 
ENDBRANCH   5   7
ENDBRANCH   4   5
BRANCH   4  10
HETATM   10  C   UNK N   1      25.902  23.470  -5.832  0.00  0.00     0.023 C 
HETATM   11  C   UNK N   1      26.332  22.569  -6.976  0.00  0.00     0.007 C 
ENDBRANCH   4  10
ENDBRANCH   1   4
BRANCH   1  12
HETATM   12  C   UNK N   1      29.461  22.889  -4.825  0.00  0.00    -0.025 A 
HETATM   13  C   UNK N   1      29.459  23.278  -3.479  0.00  0.00     0.049 A 
HETATM   14  C   UNK N   1      30.382  22.734  -2.573  0.00  0.00     0.099 A 
HETATM   15  C   UNK N   1      31.331  21.809  -3.028  0.00  0.00     0.098 A 
HETATM   16  C   UNK N   1      31.344  21.417  -4.364  0.00  0.00     0.040 A 
HETATM   17  C   UNK N   1      30.407  21.947  -5.256  0.00  0.00     0.013 A 
BRANCH  14  18
HETATM   18  O   UNK N   1      30.349  23.103  -1.286  0.00  0.00    -0.358 OA
HETATM   19  H   UNK N   1      29.954  22.544  -0.645  0.00  0.00     0.217 HD
ENDBRANCH  14  18
BRANCH  15  20
HETATM   20  O   UNK N   1      32.236  21.293  -2.171  0.00  0.00    -0.358 OA
HETATM   21  H   UNK N   1      32.647  20.472  -2.356  0.00  0.00     0.217 HD
ENDBRANCH  15  20
ENDBRANCH   1  12
TORSDOF 8
ENDMDL
MODEL 6
REMARK VINA RESULT:      -5.3      9.598     11.748
REMARK  8 active torsions:
REMARK  status: ('A' for Active; 'I' for Inactive)
REMARK    1  A    between atoms: O_1  and  C_6 
REMARK    2  A    between atoms: O_2  and  C_15 
REMARK    3  A    between atoms: O_3  and  C_17 
REMARK    4  A    between atoms: N_4  and  C_5 
REMARK    5  A    between atoms: N_4  and  C_8 
REMARK    6  A    between atoms: C_5  and  C_6 
REMARK    7  A    between atoms: C_5  and  C_7 
REMARK    8  A    between atoms: C_6  and  C_9 
ROOT
HETATM    1  C   UNK N   1      31.661  16.339   6.279  0.00  0.00     0.173 C 
ENDROOT
BRANCH   1   2
HETATM    2  O   UNK N   1      31.953  15.052   6.739  0.00  0.00    -0.389 OA
HETATM    3  H   UNK N   1      31.430  14.401   7.234  0.00  0.00     0.210 HD
ENDBRANCH   1   2
BRANCH   1   4
HETATM    4  C   UNK N   1      32.973  17.148   6.224  0.00  0.00     0.109 C 
BRANCH   4   5
HETATM    5  N   UNK N   1      34.039  16.351   6.831  0.00  0.00    -0.411 N 
HETATM    6  H   UNK N   1      34.368  15.451   6.480  0.00  0.00     0.154 HD
BRANCH   5   7
HETATM    7  C   UNK N   1      34.565  17.029   8.011  0.00  0.00     0.068 C 
HETATM    8  C   UNK N   1      33.967  18.419   8.086  0.00  0.00     0.031 C 
HETATM    9  C   UNK N   1      34.174  16.282   9.275  0.00  0.00     0.031 C 
ENDBRANCH   5   7
ENDBRANCH   4   5
BRANCH   4  10
HETATM   10  C   UNK N   1      33.385  17.518   4.806  0.00  0.00     0.023 C 
HETATM   11  C   UNK N   1      32.147  17.582   3.930  0.00  0.00     0.007 C 
ENDBRANCH   4  10
ENDBRANCH   1   4
BRANCH   1  12
HETATM   12  C   UNK N   1      30.509  16.909   7.088  0.00  0.00    -0.025 A 
HETATM   13  C   UNK N   1      30.601  16.907   8.486  0.00  0.00     0.049 A 
HETATM   14  C   UNK N   1      29.552  17.404   9.274  0.00  0.00     0.099 A 
HETATM   15  C   UNK N   1      28.392  17.886   8.655  0.00  0.00     0.098 A 
HETATM   16  C   UNK N   1      28.289  17.891   7.266  0.00  0.00     0.040 A 
HETATM   17  C   UNK N   1      29.347  17.414   6.486  0.00  0.00     0.013 A 
BRANCH  14  18
HETATM   18  O   UNK N   1      29.668  17.413  10.608  0.00  0.00    -0.358 OA
HETATM   19  H   UNK N   1      30.027  18.160  11.046  0.00  0.00     0.217 HD
ENDBRANCH  14  18
BRANCH  15  20
HETATM   20  O   UNK N   1      27.369  18.349   9.402  0.00  0.00    -0.358 OA
HETATM   21  H   UNK N   1      26.484  18.215   9.126  0.00  0.00     0.217 HD
ENDBRANCH  15  20
ENDBRANCH   1  12
TORSDOF 8
ENDMDL
MODEL 7
REMARK VINA RESULT:      -5.3      9.303     11.649
REMARK  8 active torsions:
REMARK  status: ('A' for Active; 'I' for Inactive)
REMARK    1  A    between atoms: O_1  and  C_6 
REMARK    2  A    between atoms: O_2  and  C_15 
REMARK    3  A    between atoms: O_3  and  C_17 
REMARK    4  A    between atoms: N_4  and  C_5 
REMARK    5  A    between atoms: N_4  and  C_8 
REMARK    6  A    between atoms: C_5  and  C_6 
REMARK    7  A    between atoms: C_5  and  C_7 
REMARK    8  A    between atoms: C_6  and  C_9 
ROOT
HETATM    1  C   UNK N   1      31.920  16.464   6.214  0.00  0.00     0.173 C 
ENDROOT
BRANCH   1   2
HETATM    2  O   UNK N   1      32.039  17.515   5.301  0.00  0.00    -0.389 OA
HETATM    3  H   UNK N   1      31.484  17.801   4.558  0.00  0.00     0.210 HD
ENDBRANCH   1   2
BRANCH   1   4
HETATM    4  C   UNK N   1      30.427  16.282   6.558  0.00  0.00     0.109 C 
BRANCH   4   5
HETATM    5  N   UNK N   1      29.802  17.602   6.642  0.00  0.00    -0.411 N 
HETATM    6  H   UNK N   1      29.958  18.365   5.982  0.00  0.00     0.154 HD
BRANCH   5   7
HETATM    7  C   UNK N   1      28.925  17.672   7.806  0.00  0.00     0.068 C 
HETATM    8  C   UNK N   1      29.773  17.637   9.061  0.00  0.00     0.031 C 
HETATM    9  C   UNK N   1      28.139  18.971   7.806  0.00  0.00     0.031 C 
ENDBRANCH   5   7
ENDBRANCH   4   5
BRANCH   4  10
HETATM   10  C   UNK N   1      29.675  15.449   5.529  0.00  0.00     0.023 C 
HETATM   11  C   UNK N   1      30.482  14.202   5.216  0.00  0.00     0.007 C 
ENDBRANCH   4  10
ENDBRANCH   1   4
BRANCH   1  12
HETATM   12  C   UNK N   1      32.891  16.684   7.360  0.00  0.00    -0.025 A 
HETATM   13  C   UNK N   1      33.650  17.862   7.384  0.00  0.00     0.049 A 
HETATM   14  C   UNK N   1      34.575  18.098   8.412  0.00  0.00     0.099 A 
HETATM   15  C   UNK N   1      34.757  17.134   9.411  0.00  0.00     0.098 A 
HETATM   16  C   UNK N   1      34.010  15.959   9.397  0.00  0.00     0.040 A 
HETATM   17  C   UNK N   1      33.074  15.740   8.381  0.00  0.00     0.013 A 
BRANCH  14  18
HETATM   18  O   UNK N   1      35.275  19.240   8.428  0.00  0.00    -0.358 OA
HETATM   19  H   UNK N   1      36.146  19.255   8.774  0.00  0.00     0.217 HD
ENDBRANCH  14  18
BRANCH  15  20
HETATM   20  O   UNK N   1      35.657  17.342  10.394  0.00  0.00    -0.358 OA
HETATM   21  H   UNK N   1      36.530  17.011  10.313  0.00  0.00     0.217 HD
ENDBRANCH  15  20
ENDBRANCH   1  12
TORSDOF 8
ENDMDL
MODEL 8
REMARK VINA RESULT:      -5.3     18.231     20.091
REMARK  8 active torsions:
REMARK  status: ('A' for Active; 'I' for Inactive)
REMARK    1  A    between atoms: O_1  and  C_6 
REMARK    2  A    between atoms: O_2  and  C_15 
REMARK    3  A    between atoms: O_3  and  C_17 
REMARK    4  A    between atoms: N_4  and  C_5 
REMARK    5  A    between atoms: N_4  and  C_8 
REMARK    6  A    between atoms: C_5  and  C_6 
REMARK    7  A    between atoms: C_5  and  C_7 
REMARK    8  A    between atoms: C_6  and  C_9 
ROOT
HETATM    1  C   UNK N   1      24.168  20.501   3.324  0.00  0.00     0.173 C 
ENDROOT
BRANCH   1   2
HETATM    2  O   UNK N   1      24.816  20.708   2.103  0.00  0.00    -0.389 OA
HETATM    3  H   UNK N   1      24.609  21.274   1.342  0.00  0.00     0.210 HD
ENDBRANCH   1   2
BRANCH   1   4
HETATM    4  C   UNK N   1      25.059  19.600   4.205  0.00  0.00     0.109 C 
BRANCH   4   5
HETATM    5  N   UNK N   1      25.799  18.684   3.337  0.00  0.00    -0.411 N 
HETATM    6  H   UNK N   1      26.558  18.956   2.711  0.00  0.00     0.154 HD
BRANCH   5   7
HETATM    7  C   UNK N   1      25.295  17.324   3.496  0.00  0.00     0.068 C 
HETATM    8  C   UNK N   1      26.345  16.351   2.997  0.00  0.00     0.031 C 
HETATM    9  C   UNK N   1      25.031  17.018   4.959  0.00  0.00     0.031 C 
ENDBRANCH   5   7
ENDBRANCH   4   5
BRANCH   4  10
HETATM   10  C   UNK N   1      26.053  20.387   5.047  0.00  0.00     0.023 C 
HETATM   11  C   UNK N   1      27.452  20.162   4.503  0.00  0.00     0.007 C 
ENDBRANCH   4  10
ENDBRANCH   1   4
BRANCH   1  12
HETATM   12  C   UNK N   1      22.742  20.051   3.063  0.00  0.00    -0.025 A 
HETATM   13  C   UNK N   1      22.019  20.666   2.032  0.00  0.00     0.049 A 
HETATM   14  C   UNK N   1      20.691  20.298   1.769  0.00  0.00     0.099 A 
HETATM   15  C   UNK N   1      20.075  19.321   2.562  0.00  0.00     0.098 A 
HETATM   16  C   UNK N   1      20.784  18.705   3.591  0.00  0.00     0.040 A 
HETATM   17  C   UNK N   1      22.114  19.061   3.834  0.00  0.00     0.013 A 
BRANCH  14  18
HETATM   18  O   UNK N   1      20.024  20.882   0.765  0.00  0.00    -0.358 OA
HETATM   19  H   UNK N   1      19.369  20.406   0.293  0.00  0.00     0.217 HD
ENDBRANCH  14  18
BRANCH  15  20
HETATM   20  O   UNK N   1      18.793  18.972   2.331  0.00  0.00    -0.358 OA
HETATM   21  H   UNK N   1      18.317  18.477   2.968  0.00  0.00     0.217 HD
ENDBRANCH  15  20
ENDBRANCH   1  12
TORSDOF 8
ENDMDL
MODEL 9
REMARK VINA RESULT:      -5.3     17.659     19.579
REMARK  8 active torsions:
REMARK  status: ('A' for Active; 'I' for Inactive)
REMARK    1  A    between atoms: O_1  and  C_6 
REMARK    2  A    between atoms: O_2  and  C_15 
REMARK    3  A    between atoms: O_3  and  C_17 
REMARK    4  A    between atoms: N_4  and  C_5 
REMARK    5  A    between atoms: N_4  and  C_8 
REMARK    6  A    between atoms: C_5  and  C_6 
REMARK    7  A    between atoms: C_5  and  C_7 
REMARK    8  A    between atoms: C_6  and  C_9 
ROOT
HETATM    1  C   UNK N   1      23.681  17.904   4.444  0.00  0.00     0.173 C 
ENDROOT
BRANCH   1   2
HETATM    2  O   UNK N   1      23.616  17.323   5.713  0.00  0.00    -0.389 OA
HETATM    3  H   UNK N   1      22.990  17.429   6.448  0.00  0.00     0.210 HD
ENDBRANCH   1   2
BRANCH   1   4
HETATM    4  C   UNK N   1      24.624  19.124   4.512  0.00  0.00     0.109 C 
BRANCH   4   5
HETATM    5  N   UNK N   1      25.527  18.953   5.650  0.00  0.00    -0.411 N 
HETATM    6  H   UNK N   1      25.368  18.318   6.433  0.00  0.00     0.154 HD
BRANCH   5   7
HETATM    7  C   UNK N   1      26.690  19.823   5.505  0.00  0.00     0.068 C 
HETATM    8  C   UNK N   1      26.443  21.104   6.275  0.00  0.00     0.031 C 
HETATM    9  C   UNK N   1      27.929  19.160   6.081  0.00  0.00     0.031 C 
ENDBRANCH   5   7
ENDBRANCH   4   5
BRANCH   4  10
HETATM   10  C   UNK N   1      25.455  19.305   3.250  0.00  0.00     0.023 C 
HETATM   11  C   UNK N   1      24.968  20.537   2.508  0.00  0.00     0.007 C 
ENDBRANCH   4  10
ENDBRANCH   1   4
BRANCH   1  12
HETATM   12  C   UNK N   1      22.273  18.124   3.922  0.00  0.00    -0.025 A 
HETATM   13  C   UNK N   1      21.502  17.008   3.571  0.00  0.00     0.049 A 
HETATM   14  C   UNK N   1      20.203  17.164   3.064  0.00  0.00     0.099 A 
HETATM   15  C   UNK N   1      19.682  18.451   2.884  0.00  0.00     0.098 A 
HETATM   16  C   UNK N   1      20.440  19.568   3.227  0.00  0.00     0.040 A 
HETATM   17  C   UNK N   1      21.725  19.405   3.753  0.00  0.00     0.013 A 
BRANCH  14  18
HETATM   18  O   UNK N   1      19.475  16.083   2.756  0.00  0.00    -0.358 OA
HETATM   19  H   UNK N   1      18.893  16.099   2.020  0.00  0.00     0.217 HD
ENDBRANCH  14  18
BRANCH  15  20
HETATM   20  O   UNK N   1      18.442  18.614   2.380  0.00  0.00    -0.358 OA
HETATM   21  H   UNK N   1      17.735  18.868   2.939  0.00  0.00     0.217 HD
ENDBRANCH  15  20
ENDBRANCH   1  12
TORSDOF 8
ENDMDL
