REMARK  8 active torsions:
REMARK  status: ('A' for Active; 'I' for Inactive)
REMARK    1  A    between atoms: O_1  and  C_6 
REMARK    2  A    between atoms: O_2  and  C_15 
REMARK    3  A    between atoms: O_3  and  C_17 
REMARK    4  A    between atoms: N_4  and  C_5 
REMARK    5  A    between atoms: N_4  and  C_8 
REMARK    6  A    between atoms: C_5  and  C_6 
REMARK    7  A    between atoms: C_5  and  C_7 
REMARK    8  A    between atoms: C_6  and  C_9 
ROOT
HETATM    1  C   UNK N   1       3.014   0.934   0.279  0.00  0.00     0.173 C 
ENDROOT
BRANCH   1   2
HETATM    2  O   UNK N   1       2.061   1.541  -0.543  0.00  0.00    -0.389 OA
HETATM    3  H   UNK N   1       2.096   2.325  -1.114  0.00  0.00     0.210 HD
ENDBRANCH   1   2
BRANCH   1   4
HETATM    4  C   UNK N   1       4.374   1.624   0.044  0.00  0.00     0.109 C 
BRANCH   4   5
HETATM    5  N   UNK N   1       4.263   3.025   0.449  0.00  0.00    -0.411 N 
HETATM    6  H   UNK N   1       3.693   3.366   1.224  0.00  0.00     0.154 HD
BRANCH   5   7
HETATM    7  C   UNK N   1       5.084   3.866  -0.416  0.00  0.00     0.068 C 
HETATM    8  C   UNK N   1       4.578   5.292  -0.337  0.00  0.00     0.031 C 
HETATM    9  C   UNK N   1       6.531   3.855   0.045  0.00  0.00     0.031 C 
ENDBRANCH   5   7
ENDBRANCH   4   5
BRANCH   4  10
HETATM   10  C   UNK N   1       5.512   0.978   0.822  0.00  0.00     0.023 C 
HETATM   11  C   UNK N   1       6.609   0.575  -0.147  0.00  0.00     0.007 C 
ENDBRANCH   4  10
ENDBRANCH   1   4
BRANCH   1  12
HETATM   12  C   UNK N   1       2.942  -0.572   0.101  0.00  0.00    -0.025 A 
HETATM   13  C   UNK N   1       1.702  -1.209   0.243  0.00  0.00     0.049 A 
HETATM   14  C   UNK N   1       1.591  -2.601   0.108  0.00  0.00     0.099 A 
HETATM   15  C   UNK N   1       2.738  -3.363  -0.148  0.00  0.00     0.098 A 
HETATM   16  C   UNK N   1       3.976  -2.741  -0.289  0.00  0.00     0.040 A 
HETATM   17  C   UNK N   1       4.076  -1.351  -0.175  0.00  0.00     0.013 A 
BRANCH  14  18
HETATM   18  O   UNK N   1       0.393  -3.188   0.226  0.00  0.00    -0.358 OA
HETATM   19  H   UNK N   1      -0.382  -2.667   0.309  0.00  0.00     0.217 HD
ENDBRANCH  14  18
BRANCH  15  20
HETATM   20  O   UNK N   1       2.647  -4.704  -0.261  0.00  0.00    -0.358 OA
HETATM   21  H   UNK N   1       1.809  -5.115  -0.340  0.00  0.00     0.217 HD
ENDBRANCH  15  20
ENDBRANCH   1  12
TORSDOF 8
