MODEL 1
REMARK VINA RESULT:      -8.1      0.000      0.000
REMARK  14 active torsions:
REMARK  status: ('A' for Active; 'I' for Inactive)
REMARK    1  A    between atoms: C_16  and  O_1 
REMARK    2  A    between atoms: C_21  and  O_2 
REMARK    3  A    between atoms: N_5  and  C_14 
REMARK    4  A    between atoms: N_6  and  C_22 
REMARK    5  A    between atoms: C_19  and  N_7 
REMARK       I    between atoms: N_7  and  C_25 
REMARK       I    between atoms: N_8  and  C_20 
REMARK    6  A    between atoms: N_8  and  C_28 
REMARK    7  A    between atoms: C_11  and  C_20 
REMARK    8  A    between atoms: C_14  and  C_16 
REMARK    9  A    between atoms: C_16  and  C_17 
REMARK   10  A    between atoms: C_18  and  C_17 
REMARK   11  A    between atoms: C_18  and  C_25 
REMARK   12  A    between atoms: C_18  and  C_26 
REMARK   13  A    between atoms: C_22  and  C_29 
REMARK   14  A    between atoms: C_26  and  C_31 
ROOT
HETATM    1  C   UNK N   1      33.281  13.821   9.253  0.00  0.00     0.147 C 
ENDROOT
BRANCH   1   2
HETATM    2  O   UNK N   1      32.541  13.459   8.121  0.00  0.00    -0.394 OA
HETATM    3  H   UNK N   1      32.214  13.034   7.312  0.00  0.00     0.210 HD
ENDBRANCH   1   2
BRANCH   1   4
HETATM    4  C   UNK N   1      34.646  13.146   9.254  0.00  0.00     0.305 C 
BRANCH   4   5
HETATM    5  N   UNK N   1      35.220  13.222  10.591  0.00  0.00     0.108 N 
HETATM    6  C   UNK N   1      36.702  13.108  10.552  0.00  0.00     0.342 C 
HETATM    7  C   UNK N   1      37.227  12.949  11.985  0.00  0.00     0.318 C 
HETATM    8  N   UNK N   1      36.573  11.820  12.637  0.00  0.00     0.097 N 
HETATM    9  C   UNK N   1      35.169  12.189  12.787  0.00  0.00     0.303 C 
HETATM   10  C   UNK N   1      34.561  12.200  11.402  0.00  0.00     0.303 C 
BRANCH   6  11
HETATM   11  C   UNK N   1      37.324  14.327   9.838  0.00  0.00     0.253 C 
HETATM   12  O   UNK N   1      37.035  15.443  10.227  0.00  0.00    -0.271 OA
HETATM   13  N   UNK N   1      38.157  14.243   8.757  0.00  0.00    -0.351 N 
HETATM   14  H   UNK N   1      38.366  15.103   8.325  0.00  0.00     0.163 HD
BRANCH  13  15
HETATM   15  C   UNK N   1      38.775  13.085   8.151  0.00  0.00     0.022 C 
HETATM   16  C   UNK N   1      39.556  12.294   9.184  0.00  0.00     0.037 C 
HETATM   17  C   UNK N   1      39.779  13.581   7.131  0.00  0.00     0.037 C 
HETATM   18  C   UNK N   1      37.764  12.209   7.433  0.00  0.00     0.037 C 
ENDBRANCH  13  15
ENDBRANCH   6  11
BRANCH   8  19
HETATM   19  C   UNK N   1      37.274  11.560  13.902  0.00  0.00     0.312 C 
BRANCH  19  20
HETATM   20  C   UNK N   1      36.593  12.090  15.134  0.00  0.00    -0.015 A 
HETATM   21  C   UNK N   1      35.858  11.254  15.983  0.00  0.00     0.011 A 
HETATM   22  C   UNK N   1      35.205  11.796  17.090  0.00  0.00     0.018 A 
HETATM   23  C   UNK N   1      35.311  13.166  17.343  0.00  0.00     0.087 A 
HETATM   24  N   UNK N   1      36.045  13.959  16.516  0.00  0.00    -0.375 N 
HETATM   25  C   UNK N   1      36.676  13.453  15.423  0.00  0.00     0.096 A 
ATOM     26  HN  UNK N   1      36.124  14.956  16.719  1.00  0.00     0.164 HD
ENDBRANCH  19  20
ENDBRANCH   8  19
ENDBRANCH   4   5
ENDBRANCH   1   4
BRANCH   1  27
HETATM   27  C   UNK N   1      33.397  15.337   9.398  0.00  0.00     0.047 C 
BRANCH  27  28
HETATM   28  C   UNK N   1      33.078  16.143   8.119  0.00  0.00     0.084 C 
BRANCH  28  29
HETATM   29  C   UNK N   1      32.740  17.571   8.508  0.00  0.00     0.222 C 
HETATM   30  O   UNK N   1      33.631  18.401   8.614  0.00  0.00    -0.273 OA
HETATM   31  N   UNK N   1      31.461  17.945   8.773  0.00  0.00    -0.350 N 
HETATM   32  H   UNK N   1      31.298  18.856   9.108  0.00  0.00     0.163 HD
BRANCH  31  33
HETATM   33  C   UNK N   1      30.324  17.067   8.585  0.00  0.00     0.147 C 
HETATM   34  C   UNK N   1      29.199  17.379   9.598  0.00  0.00     0.149 C 
HETATM   35  C   UNK N   1      28.208  18.363   8.958  0.00  0.00     0.073 C 
HETATM   36  C   UNK N   1      28.513  18.175   7.525  0.00  0.00    -0.047 A 
HETATM   37  C   UNK N   1      29.659  17.454   7.318  0.00  0.00    -0.027 A 
HETATM   38  C   UNK N   1      27.785  18.699   6.456  0.00  0.00     0.008 A 
HETATM   39  C   UNK N   1      30.138  17.219   6.027  0.00  0.00     0.010 A 
HETATM   40  C   UNK N   1      29.414  17.719   4.935  0.00  0.00     0.001 A 
HETATM   41  C   UNK N   1      28.239  18.460   5.150  0.00  0.00     0.001 A 
BRANCH  34  42
HETATM   42  O   UNK N   1      29.671  17.816  10.838  0.00  0.00    -0.393 OA
HETATM   43  H   UNK N   1      29.499  17.393  11.694  0.00  0.00     0.210 HD
ENDBRANCH  34  42
ENDBRANCH  31  33
ENDBRANCH  28  29
BRANCH  28  44
HETATM   44  C   UNK N   1      34.121  16.075   6.970  0.00  0.00     0.052 C 
BRANCH  44  45
HETATM   45  C   UNK N   1      33.571  16.219   5.583  0.00  0.00    -0.057 A 
HETATM   46  C   UNK N   1      33.480  17.474   4.970  0.00  0.00     0.007 A 
HETATM   47  C   UNK N   1      32.880  17.595   3.712  0.00  0.00     0.001 A 
HETATM   48  C   UNK N   1      32.366  16.464   3.069  0.00  0.00     0.000 A 
HETATM   49  C   UNK N   1      32.465  15.209   3.676  0.00  0.00     0.001 A 
HETATM   50  C   UNK N   1      33.067  15.087   4.930  0.00  0.00     0.007 A 
ENDBRANCH  44  45
ENDBRANCH  28  44
ENDBRANCH  27  28
ENDBRANCH   1  27
TORSDOF 14
ENDMDL
MODEL 2
REMARK VINA RESULT:      -8.1      1.798      4.975
REMARK  14 active torsions:
REMARK  status: ('A' for Active; 'I' for Inactive)
REMARK    1  A    between atoms: C_16  and  O_1 
REMARK    2  A    between atoms: C_21  and  O_2 
REMARK    3  A    between atoms: N_5  and  C_14 
REMARK    4  A    between atoms: N_6  and  C_22 
REMARK    5  A    between atoms: C_19  and  N_7 
REMARK       I    between atoms: N_7  and  C_25 
REMARK       I    between atoms: N_8  and  C_20 
REMARK    6  A    between atoms: N_8  and  C_28 
REMARK    7  A    between atoms: C_11  and  C_20 
REMARK    8  A    between atoms: C_14  and  C_16 
REMARK    9  A    between atoms: C_16  and  C_17 
REMARK   10  A    between atoms: C_18  and  C_17 
REMARK   11  A    between atoms: C_18  and  C_25 
REMARK   12  A    between atoms: C_18  and  C_26 
REMARK   13  A    between atoms: C_22  and  C_29 
REMARK   14  A    between atoms: C_26  and  C_31 
ROOT
HETATM    1  C   UNK N   1      34.867  15.836   9.966  0.00  0.00     0.147 C 
ENDROOT
BRANCH   1   2
HETATM    2  O   UNK N   1      34.933  16.927  10.842  0.00  0.00    -0.394 OA
HETATM    3  H   UNK N   1      35.047  17.806  11.235  0.00  0.00     0.210 HD
ENDBRANCH   1   2
BRANCH   1   4
HETATM    4  C   UNK N   1      35.457  14.586  10.604  0.00  0.00     0.305 C 
BRANCH   4   5
HETATM    5  N   UNK N   1      35.900  13.675   9.557  0.00  0.00     0.108 N 
HETATM    6  C   UNK N   1      35.922  12.268  10.035  0.00  0.00     0.342 C 
HETATM    7  C   UNK N   1      36.621  11.395   8.985  0.00  0.00     0.318 C 
HETATM    8  N   UNK N   1      37.946  11.929   8.688  0.00  0.00     0.097 N 
HETATM    9  C   UNK N   1      37.732  13.215   8.031  0.00  0.00     0.303 C 
HETATM   10  C   UNK N   1      37.192  14.165   9.077  0.00  0.00     0.303 C 
BRANCH   6  11
HETATM   11  C   UNK N   1      34.493  11.773  10.342  0.00  0.00     0.253 C 
HETATM   12  O   UNK N   1      33.680  11.738   9.437  0.00  0.00    -0.271 OA
HETATM   13  N   UNK N   1      34.054  11.408  11.584  0.00  0.00    -0.351 N 
HETATM   14  H   UNK N   1      33.086  11.245  11.653  0.00  0.00     0.163 HD
BRANCH  13  15
HETATM   15  C   UNK N   1      34.796  11.225  12.812  0.00  0.00     0.022 C 
HETATM   16  C   UNK N   1      36.020  10.359  12.573  0.00  0.00     0.037 C 
HETATM   17  C   UNK N   1      33.908  10.468  13.777  0.00  0.00     0.037 C 
HETATM   18  C   UNK N   1      35.172  12.549  13.453  0.00  0.00     0.037 C 
ENDBRANCH  13  15
ENDBRANCH   6  11
BRANCH   8  19
HETATM   19  C   UNK N   1      38.661  10.939   7.872  0.00  0.00     0.312 C 
BRANCH  19  20
HETATM   20  C   UNK N   1      40.117  11.231   7.638  0.00  0.00    -0.015 A 
HETATM   21  C   UNK N   1      41.046  11.215   8.686  0.00  0.00     0.011 A 
HETATM   22  C   UNK N   1      42.380  11.537   8.431  0.00  0.00     0.018 A 
HETATM   23  C   UNK N   1      42.769  11.853   7.127  0.00  0.00     0.087 A 
HETATM   24  N   UNK N   1      41.855  11.846   6.119  0.00  0.00    -0.375 N 
HETATM   25  C   UNK N   1      40.548  11.550   6.350  0.00  0.00     0.096 A 
ATOM     26  HN  UNK N   1      42.156  12.067   5.170  1.00  0.00     0.164 HD
ENDBRANCH  19  20
ENDBRANCH   8  19
ENDBRANCH   4   5
ENDBRANCH   1   4
BRANCH   1  27
HETATM   27  C   UNK N   1      33.447  15.598   9.457  0.00  0.00     0.047 C 
BRANCH  27  28
HETATM   28  C   UNK N   1      33.102  16.301   8.125  0.00  0.00     0.084 C 
BRANCH  28  29
HETATM   29  C   UNK N   1      32.725  17.744   8.413  0.00  0.00     0.222 C 
HETATM   30  O   UNK N   1      33.588  18.607   8.433  0.00  0.00    -0.273 OA
HETATM   31  N   UNK N   1      31.440  18.095   8.680  0.00  0.00    -0.350 N 
HETATM   32  H   UNK N   1      31.253  19.023   8.948  0.00  0.00     0.163 HD
BRANCH  31  33
HETATM   33  C   UNK N   1      30.329  17.168   8.587  0.00  0.00     0.147 C 
HETATM   34  C   UNK N   1      29.210  17.531   9.589  0.00  0.00     0.149 C 
HETATM   35  C   UNK N   1      28.178  18.424   8.883  0.00  0.00     0.073 C 
HETATM   36  C   UNK N   1      28.468  18.123   7.467  0.00  0.00    -0.047 A 
HETATM   37  C   UNK N   1      29.634  17.423   7.303  0.00  0.00    -0.027 A 
HETATM   38  C   UNK N   1      27.708  18.529   6.369  0.00  0.00     0.008 A 
HETATM   39  C   UNK N   1      30.102  17.092   6.029  0.00  0.00     0.010 A 
HETATM   40  C   UNK N   1      29.347  17.473   4.911  0.00  0.00     0.001 A 
HETATM   41  C   UNK N   1      28.151  18.192   5.081  0.00  0.00     0.001 A 
BRANCH  34  42
HETATM   42  O   UNK N   1      29.684  18.089  10.778  0.00  0.00    -0.393 OA
HETATM   43  H   UNK N   1      29.468  18.971  11.120  0.00  0.00     0.210 HD
ENDBRANCH  34  42
ENDBRANCH  31  33
ENDBRANCH  28  29
BRANCH  28  44
HETATM   44  C   UNK N   1      34.146  16.181   6.980  0.00  0.00     0.052 C 
BRANCH  44  45
HETATM   45  C   UNK N   1      33.592  16.236   5.588  0.00  0.00    -0.057 A 
HETATM   46  C   UNK N   1      33.421  17.459   4.928  0.00  0.00     0.007 A 
HETATM   47  C   UNK N   1      32.819  17.492   3.666  0.00  0.00     0.001 A 
HETATM   48  C   UNK N   1      32.383  16.306   3.066  0.00  0.00     0.000 A 
HETATM   49  C   UNK N   1      32.562  15.084   3.719  0.00  0.00     0.001 A 
HETATM   50  C   UNK N   1      33.166  15.049   4.978  0.00  0.00     0.007 A 
ENDBRANCH  44  45
ENDBRANCH  28  44
ENDBRANCH  27  28
ENDBRANCH   1  27
TORSDOF 14
ENDMDL
MODEL 3
REMARK VINA RESULT:      -8.0      2.571     10.127
REMARK  14 active torsions:
REMARK  status: ('A' for Active; 'I' for Inactive)
REMARK    1  A    between atoms: C_16  and  O_1 
REMARK    2  A    between atoms: C_21  and  O_2 
REMARK    3  A    between atoms: N_5  and  C_14 
REMARK    4  A    between atoms: N_6  and  C_22 
REMARK    5  A    between atoms: C_19  and  N_7 
REMARK       I    between atoms: N_7  and  C_25 
REMARK       I    between atoms: N_8  and  C_20 
REMARK    6  A    between atoms: N_8  and  C_28 
REMARK    7  A    between atoms: C_11  and  C_20 
REMARK    8  A    between atoms: C_14  and  C_16 
REMARK    9  A    between atoms: C_16  and  C_17 
REMARK   10  A    between atoms: C_18  and  C_17 
REMARK   11  A    between atoms: C_18  and  C_25 
REMARK   12  A    between atoms: C_18  and  C_26 
REMARK   13  A    between atoms: C_22  and  C_29 
REMARK   14  A    between atoms: C_26  and  C_31 
ROOT
HETATM    1  C   UNK N   1      35.156  14.597  11.428  0.00  0.00     0.147 C 
ENDROOT
BRANCH   1   2
HETATM    2  O   UNK N   1      33.830  14.220  11.672  0.00  0.00    -0.394 OA
HETATM    3  H   UNK N   1      32.901  13.955  11.587  0.00  0.00     0.210 HD
ENDBRANCH   1   2
BRANCH   1   4
HETATM    4  C   UNK N   1      35.222  15.954  10.740  0.00  0.00     0.305 C 
BRANCH   4   5
HETATM    5  N   UNK N   1      35.582  15.767   9.341  0.00  0.00     0.108 N 
HETATM    6  C   UNK N   1      34.449  16.105   8.440  0.00  0.00     0.342 C 
HETATM    7  C   UNK N   1      34.798  15.662   7.013  0.00  0.00     0.318 C 
HETATM    8  N   UNK N   1      35.150  14.247   6.999  0.00  0.00     0.097 N 
HETATM    9  C   UNK N   1      36.398  14.126   7.748  0.00  0.00     0.303 C 
HETATM   10  C   UNK N   1      36.071  14.397   9.200  0.00  0.00     0.303 C 
BRANCH   6  11
HETATM   11  C   UNK N   1      34.123  17.612   8.515  0.00  0.00     0.253 C 
HETATM   12  O   UNK N   1      35.040  18.404   8.620  0.00  0.00    -0.271 OA
HETATM   13  N   UNK N   1      32.856  18.127   8.517  0.00  0.00    -0.351 N 
HETATM   14  H   UNK N   1      32.798  19.091   8.706  0.00  0.00     0.163 HD
BRANCH  13  15
HETATM   15  C   UNK N   1      31.589  17.470   8.284  0.00  0.00     0.022 C 
HETATM   16  C   UNK N   1      31.367  17.248   6.799  0.00  0.00     0.037 C 
HETATM   17  C   UNK N   1      30.493  18.403   8.754  0.00  0.00     0.037 C 
HETATM   18  C   UNK N   1      31.470  16.170   9.060  0.00  0.00     0.037 C 
ENDBRANCH  13  15
ENDBRANCH   6  11
BRANCH   8  19
HETATM   19  C   UNK N   1      35.238  13.816   5.597  0.00  0.00     0.312 C 
BRANCH  19  20
HETATM   20  C   UNK N   1      34.007  14.064   4.770  0.00  0.00    -0.015 A 
HETATM   21  C   UNK N   1      32.736  13.675   5.213  0.00  0.00     0.011 A 
HETATM   22  C   UNK N   1      31.626  13.884   4.393  0.00  0.00     0.018 A 
HETATM   23  C   UNK N   1      31.801  14.494   3.149  0.00  0.00     0.087 A 
HETATM   24  N   UNK N   1      33.041  14.881   2.744  0.00  0.00    -0.375 N 
HETATM   25  C   UNK N   1      34.137  14.672   3.522  0.00  0.00     0.096 A 
ATOM     26  HN  UNK N   1      33.152  15.336   1.838  1.00  0.00     0.164 HD
ENDBRANCH  19  20
ENDBRANCH   8  19
ENDBRANCH   4   5
ENDBRANCH   1   4
BRANCH   1  27
HETATM   27  C   UNK N   1      36.003  14.562  12.699  0.00  0.00     0.047 C 
BRANCH  27  28
HETATM   28  C   UNK N   1      36.262  13.151  13.274  0.00  0.00     0.084 C 
BRANCH  28  29
HETATM   29  C   UNK N   1      36.834  12.270  12.178  0.00  0.00     0.222 C 
HETATM   30  O   UNK N   1      37.886  12.576  11.637  0.00  0.00    -0.273 OA
HETATM   31  N   UNK N   1      36.182  11.153  11.761  0.00  0.00    -0.350 N 
HETATM   32  H   UNK N   1      36.543  10.660  10.989  0.00  0.00     0.163 HD
BRANCH  31  33
HETATM   33  C   UNK N   1      34.982  10.651  12.398  0.00  0.00     0.147 C 
HETATM   34  C   UNK N   1      33.813  10.549  11.393  0.00  0.00     0.149 C 
HETATM   35  C   UNK N   1      33.778   9.128  10.809  0.00  0.00     0.073 C 
HETATM   36  C   UNK N   1      34.554   8.389  11.826  0.00  0.00    -0.047 A 
HETATM   37  C   UNK N   1      35.199   9.218  12.705  0.00  0.00    -0.027 A 
HETATM   38  C   UNK N   1      34.698   7.003  11.900  0.00  0.00     0.008 A 
HETATM   39  C   UNK N   1      36.026   8.701  13.706  0.00  0.00     0.010 A 
HETATM   40  C   UNK N   1      36.173   7.311  13.812  0.00  0.00     0.001 A 
HETATM   41  C   UNK N   1      35.510   6.463  12.909  0.00  0.00     0.001 A 
BRANCH  34  42
HETATM   42  O   UNK N   1      33.836  11.537  10.407  0.00  0.00    -0.393 OA
HETATM   43  H   UNK N   1      33.570  12.464  10.522  0.00  0.00     0.210 HD
ENDBRANCH  34  42
ENDBRANCH  31  33
ENDBRANCH  28  29
BRANCH  28  44
HETATM   44  C   UNK N   1      37.087  13.072  14.588  0.00  0.00     0.052 C 
BRANCH  44  45
HETATM   45  C   UNK N   1      36.351  12.558  15.788  0.00  0.00    -0.057 A 
HETATM   46  C   UNK N   1      35.668  13.430  16.643  0.00  0.00     0.007 A 
HETATM   47  C   UNK N   1      35.065  12.939  17.806  0.00  0.00     0.001 A 
HETATM   48  C   UNK N   1      35.149  11.577  18.117  0.00  0.00     0.000 A 
HETATM   49  C   UNK N   1      35.822  10.704  17.260  0.00  0.00     0.001 A 
HETATM   50  C   UNK N   1      36.422  11.193  16.097  0.00  0.00     0.007 A 
ENDBRANCH  44  45
ENDBRANCH  28  44
ENDBRANCH  27  28
ENDBRANCH   1  27
TORSDOF 14
ENDMDL
MODEL 4
REMARK VINA RESULT:      -7.9      1.883      2.696
REMARK  14 active torsions:
REMARK  status: ('A' for Active; 'I' for Inactive)
REMARK    1  A    between atoms: C_16  and  O_1 
REMARK    2  A    between atoms: C_21  and  O_2 
REMARK    3  A    between atoms: N_5  and  C_14 
REMARK    4  A    between atoms: N_6  and  C_22 
REMARK    5  A    between atoms: C_19  and  N_7 
REMARK       I    between atoms: N_7  and  C_25 
REMARK       I    between atoms: N_8  and  C_20 
REMARK    6  A    between atoms: N_8  and  C_28 
REMARK    7  A    between atoms: C_11  and  C_20 
REMARK    8  A    between atoms: C_14  and  C_16 
REMARK    9  A    between atoms: C_16  and  C_17 
REMARK   10  A    between atoms: C_18  and  C_17 
REMARK   11  A    between atoms: C_18  and  C_25 
REMARK   12  A    between atoms: C_18  and  C_26 
REMARK   13  A    between atoms: C_22  and  C_29 
REMARK   14  A    between atoms: C_26  and  C_31 
ROOT
HETATM    1  C   UNK N   1      33.609  14.975  10.254  0.00  0.00     0.147 C 
ENDROOT
BRANCH   1   2
HETATM    2  O   UNK N   1      32.214  14.935  10.138  0.00  0.00    -0.394 OA
HETATM    3  H   UNK N   1      31.303  14.893   9.808  0.00  0.00     0.210 HD
ENDBRANCH   1   2
BRANCH   1   4
HETATM    4  C   UNK N   1      34.229  13.639   9.867  0.00  0.00     0.305 C 
BRANCH   4   5
HETATM    5  N   UNK N   1      35.361  13.363  10.741  0.00  0.00     0.108 N 
HETATM    6  C   UNK N   1      35.492  11.907  11.015  0.00  0.00     0.342 C 
HETATM    7  C   UNK N   1      36.534  11.700  12.122  0.00  0.00     0.318 C 
HETATM    8  N   UNK N   1      36.179  12.484  13.299  0.00  0.00     0.097 N 
HETATM    9  C   UNK N   1      36.309  13.886  12.914  0.00  0.00     0.303 C 
HETATM   10  C   UNK N   1      35.192  14.184  11.939  0.00  0.00     0.303 C 
BRANCH   6  11
HETATM   11  C   UNK N   1      35.855  11.140   9.726  0.00  0.00     0.253 C 
HETATM   12  O   UNK N   1      36.833  11.490   9.093  0.00  0.00    -0.271 OA
HETATM   13  N   UNK N   1      35.121  10.107   9.212  0.00  0.00    -0.351 N 
HETATM   14  H   UNK N   1      35.397   9.805   8.317  0.00  0.00     0.163 HD
BRANCH  13  15
HETATM   15  C   UNK N   1      34.002   9.392   9.783  0.00  0.00     0.022 C 
HETATM   16  C   UNK N   1      34.361   8.844  11.153  0.00  0.00     0.037 C 
HETATM   17  C   UNK N   1      33.719   8.197   8.897  0.00  0.00     0.037 C 
HETATM   18  C   UNK N   1      32.749  10.246   9.841  0.00  0.00     0.037 C 
ENDBRANCH  13  15
ENDBRANCH   6  11
BRANCH   8  19
HETATM   19  C   UNK N   1      37.059  12.070  14.401  0.00  0.00     0.312 C 
BRANCH  19  20
HETATM   20  C   UNK N   1      36.389  11.929  15.740  0.00  0.00    -0.015 A 
HETATM   21  C   UNK N   1      35.699  12.996  16.330  0.00  0.00     0.011 A 
HETATM   22  C   UNK N   1      35.131  12.834  17.595  0.00  0.00     0.018 A 
HETATM   23  C   UNK N   1      35.247  11.603  18.244  0.00  0.00     0.087 A 
HETATM   24  N   UNK N   1      35.906  10.573  17.645  0.00  0.00    -0.375 N 
HETATM   25  C   UNK N   1      36.479  10.715  16.421  0.00  0.00     0.096 A 
ATOM     26  HN  UNK N   1      35.972   9.676  18.126  1.00  0.00     0.164 HD
ENDBRANCH  19  20
ENDBRANCH   8  19
ENDBRANCH   4   5
ENDBRANCH   1   4
BRANCH   1  27
HETATM   27  C   UNK N   1      34.215  16.133   9.464  0.00  0.00     0.047 C 
BRANCH  27  28
HETATM   28  C   UNK N   1      33.461  16.506   8.168  0.00  0.00     0.084 C 
BRANCH  28  29
HETATM   29  C   UNK N   1      32.963  17.936   8.282  0.00  0.00     0.222 C 
HETATM   30  O   UNK N   1      33.763  18.858   8.334  0.00  0.00    -0.273 OA
HETATM   31  N   UNK N   1      31.636  18.215   8.358  0.00  0.00    -0.350 N 
HETATM   32  H   UNK N   1      31.360  19.146   8.521  0.00  0.00     0.163 HD
BRANCH  31  33
HETATM   33  C   UNK N   1      30.604  17.208   8.210  0.00  0.00     0.147 C 
HETATM   34  C   UNK N   1      29.452  17.432   9.215  0.00  0.00     0.149 C 
HETATM   35  C   UNK N   1      28.357  18.272   8.542  0.00  0.00     0.073 C 
HETATM   36  C   UNK N   1      28.681  18.063   7.116  0.00  0.00    -0.047 A 
HETATM   37  C   UNK N   1      29.900  17.467   6.932  0.00  0.00    -0.027 A 
HETATM   38  C   UNK N   1      27.898  18.459   6.030  0.00  0.00     0.008 A 
HETATM   39  C   UNK N   1      30.402  17.237   5.649  0.00  0.00     0.010 A 
HETATM   40  C   UNK N   1      29.627  17.609   4.542  0.00  0.00     0.001 A 
HETATM   41  C   UNK N   1      28.376  18.221   4.733  0.00  0.00     0.001 A 
BRANCH  34  42
HETATM   42  O   UNK N   1      29.871  17.968  10.435  0.00  0.00    -0.393 OA
HETATM   43  H   UNK N   1      30.016  17.471  11.256  0.00  0.00     0.210 HD
ENDBRANCH  34  42
ENDBRANCH  31  33
ENDBRANCH  28  29
BRANCH  28  44
HETATM   44  C   UNK N   1      34.201  16.244   6.827  0.00  0.00     0.052 C 
BRANCH  44  45
HETATM   45  C   UNK N   1      33.453  15.422   5.822  0.00  0.00    -0.057 A 
HETATM   46  C   UNK N   1      33.541  15.700   4.453  0.00  0.00     0.007 A 
HETATM   47  C   UNK N   1      32.763  14.977   3.542  0.00  0.00     0.001 A 
HETATM   48  C   UNK N   1      31.895  13.980   3.999  0.00  0.00     0.000 A 
HETATM   49  C   UNK N   1      31.813  13.694   5.363  0.00  0.00     0.001 A 
HETATM   50  C   UNK N   1      32.592  14.413   6.274  0.00  0.00     0.007 A 
ENDBRANCH  44  45
ENDBRANCH  28  44
ENDBRANCH  27  28
ENDBRANCH   1  27
TORSDOF 14
ENDMDL
MODEL 5
REMARK VINA RESULT:      -7.9      5.633     10.246
REMARK  14 active torsions:
REMARK  status: ('A' for Active; 'I' for Inactive)
REMARK    1  A    between atoms: C_16  and  O_1 
REMARK    2  A    between atoms: C_21  and  O_2 
REMARK    3  A    between atoms: N_5  and  C_14 
REMARK    4  A    between atoms: N_6  and  C_22 
REMARK    5  A    between atoms: C_19  and  N_7 
REMARK       I    between atoms: N_7  and  C_25 
REMARK       I    between atoms: N_8  and  C_20 
REMARK    6  A    between atoms: N_8  and  C_28 
REMARK    7  A    between atoms: C_11  and  C_20 
REMARK    8  A    between atoms: C_14  and  C_16 
REMARK    9  A    between atoms: C_16  and  C_17 
REMARK   10  A    between atoms: C_18  and  C_17 
REMARK   11  A    between atoms: C_18  and  C_25 
REMARK   12  A    between atoms: C_18  and  C_26 
REMARK   13  A    between atoms: C_22  and  C_29 
REMARK   14  A    between atoms: C_26  and  C_31 
ROOT
HETATM    1  C   UNK N   1      26.550  15.705   4.341  0.00  0.00     0.147 C 
ENDROOT
BRANCH   1   2
HETATM    2  O   UNK N   1      25.897  16.744   3.667  0.00  0.00    -0.394 OA
HETATM    3  H   UNK N   1      25.659  17.590   3.257  0.00  0.00     0.210 HD
ENDBRANCH   1   2
BRANCH   1   4
HETATM    4  C   UNK N   1      26.718  16.032   5.819  0.00  0.00     0.305 C 
BRANCH   4   5
HETATM    5  N   UNK N   1      28.132  15.981   6.165  0.00  0.00     0.108 N 
HETATM    6  C   UNK N   1      28.741  17.337   6.159  0.00  0.00     0.342 C 
HETATM    7  C   UNK N   1      30.263  17.200   6.288  0.00  0.00     0.318 C 
HETATM    8  N   UNK N   1      30.779  16.326   5.240  0.00  0.00     0.097 N 
HETATM    9  C   UNK N   1      30.254  14.993   5.522  0.00  0.00     0.303 C 
HETATM   10  C   UNK N   1      28.767  15.035   5.249  0.00  0.00     0.303 C 
BRANCH   6  11
HETATM   11  C   UNK N   1      28.141  18.210   7.282  0.00  0.00     0.253 C 
HETATM   12  O   UNK N   1      28.293  17.861   8.438  0.00  0.00    -0.271 OA
HETATM   13  N   UNK N   1      27.402  19.341   7.067  0.00  0.00    -0.351 N 
HETATM   14  H   UNK N   1      26.973  19.716   7.868  0.00  0.00     0.163 HD
BRANCH  13  15
HETATM   15  C   UNK N   1      27.158  20.068   5.841  0.00  0.00     0.022 C 
HETATM   16  C   UNK N   1      27.138  21.563   6.101  0.00  0.00     0.037 C 
HETATM   17  C   UNK N   1      25.774  19.692   5.352  0.00  0.00     0.037 C 
HETATM   18  C   UNK N   1      28.157  19.708   4.757  0.00  0.00     0.037 C 
ENDBRANCH  13  15
ENDBRANCH   6  11
BRANCH   8  19
HETATM   19  C   UNK N   1      32.246  16.418   5.254  0.00  0.00     0.312 C 
BRANCH  19  20
HETATM   20  C   UNK N   1      32.862  16.646   6.606  0.00  0.00    -0.015 A 
HETATM   21  C   UNK N   1      33.425  17.879   6.958  0.00  0.00     0.011 A 
HETATM   22  C   UNK N   1      34.027  18.032   8.207  0.00  0.00     0.018 A 
HETATM   23  C   UNK N   1      34.043  16.954   9.094  0.00  0.00     0.087 A 
HETATM   24  N   UNK N   1      33.475  15.768   8.741  0.00  0.00    -0.375 N 
HETATM   25  C   UNK N   1      32.898  15.595   7.523  0.00  0.00     0.096 A 
ATOM     26  HN  UNK N   1      33.484  14.993   9.404  1.00  0.00     0.164 HD
ENDBRANCH  19  20
ENDBRANCH   8  19
ENDBRANCH   4   5
ENDBRANCH   1   4
BRANCH   1  27
HETATM   27  C   UNK N   1      25.854  14.362   4.132  0.00  0.00     0.047 C 
BRANCH  27  28
HETATM   28  C   UNK N   1      24.853  13.963   5.240  0.00  0.00     0.084 C 
BRANCH  28  29
HETATM   29  C   UNK N   1      23.442  14.069   4.689  0.00  0.00     0.222 C 
HETATM   30  O   UNK N   1      23.055  13.273   3.847  0.00  0.00    -0.273 OA
HETATM   31  N   UNK N   1      22.600  15.055   5.095  0.00  0.00    -0.350 N 
HETATM   32  H   UNK N   1      21.727  15.141   4.649  0.00  0.00     0.163 HD
BRANCH  31  33
HETATM   33  C   UNK N   1      22.925  15.988   6.155  0.00  0.00     0.147 C 
HETATM   34  C   UNK N   1      22.728  17.451   5.696  0.00  0.00     0.149 C 
HETATM   35  C   UNK N   1      21.315  17.911   6.086  0.00  0.00     0.073 C 
HETATM   36  C   UNK N   1      20.980  16.929   7.136  0.00  0.00    -0.047 A 
HETATM   37  C   UNK N   1      21.867  15.886   7.188  0.00  0.00    -0.027 A 
HETATM   38  C   UNK N   1      19.867  16.973   7.976  0.00  0.00     0.008 A 
HETATM   39  C   UNK N   1      21.684  14.829   8.083  0.00  0.00     0.010 A 
HETATM   40  C   UNK N   1      20.583  14.860   8.950  0.00  0.00     0.001 A 
HETATM   41  C   UNK N   1      19.674  15.931   8.895  0.00  0.00     0.001 A 
BRANCH  34  42
HETATM   42  O   UNK N   1      23.009  17.654   4.343  0.00  0.00    -0.393 OA
HETATM   43  H   UNK N   1      22.768  18.437   3.823  0.00  0.00     0.210 HD
ENDBRANCH  34  42
ENDBRANCH  31  33
ENDBRANCH  28  29
BRANCH  28  44
HETATM   44  C   UNK N   1      25.107  12.610   5.958  0.00  0.00     0.052 C 
BRANCH  44  45
HETATM   45  C   UNK N   1      24.601  12.516   7.366  0.00  0.00    -0.057 A 
HETATM   46  C   UNK N   1      25.080  13.373   8.364  0.00  0.00     0.007 A 
HETATM   47  C   UNK N   1      24.660  13.207   9.688  0.00  0.00     0.001 A 
HETATM   48  C   UNK N   1      23.766  12.183  10.016  0.00  0.00     0.000 A 
HETATM   49  C   UNK N   1      23.279  11.333   9.020  0.00  0.00     0.001 A 
HETATM   50  C   UNK N   1      23.695  11.500   7.697  0.00  0.00     0.007 A 
ENDBRANCH  44  45
ENDBRANCH  28  44
ENDBRANCH  27  28
ENDBRANCH   1  27
TORSDOF 14
ENDMDL
MODEL 6
REMARK VINA RESULT:      -7.8     10.539     15.037
REMARK  14 active torsions:
REMARK  status: ('A' for Active; 'I' for Inactive)
REMARK    1  A    between atoms: C_16  and  O_1 
REMARK    2  A    between atoms: C_21  and  O_2 
REMARK    3  A    between atoms: N_5  and  C_14 
REMARK    4  A    between atoms: N_6  and  C_22 
REMARK    5  A    between atoms: C_19  and  N_7 
REMARK       I    between atoms: N_7  and  C_25 
REMARK       I    between atoms: N_8  and  C_20 
REMARK    6  A    between atoms: N_8  and  C_28 
REMARK    7  A    between atoms: C_11  and  C_20 
REMARK    8  A    between atoms: C_14  and  C_16 
REMARK    9  A    between atoms: C_16  and  C_17 
REMARK   10  A    between atoms: C_18  and  C_17 
REMARK   11  A    between atoms: C_18  and  C_25 
REMARK   12  A    between atoms: C_18  and  C_26 
REMARK   13  A    between atoms: C_22  and  C_29 
REMARK   14  A    between atoms: C_26  and  C_31 
ROOT
HETATM    1  C   UNK N   1      19.082  15.720   4.815  0.00  0.00     0.147 C 
ENDROOT
BRANCH   1   2
HETATM    2  O   UNK N   1      19.084  16.825   3.956  0.00  0.00    -0.394 OA
HETATM    3  H   UNK N   1      19.284  17.661   3.506  0.00  0.00     0.210 HD
ENDBRANCH   1   2
BRANCH   1   4
HETATM    4  C   UNK N   1      19.732  14.512   4.154  0.00  0.00     0.305 C 
BRANCH   4   5
HETATM    5  N   UNK N   1      20.817  14.961   3.292  0.00  0.00     0.108 N 
HETATM    6  C   UNK N   1      20.713  14.366   1.934  0.00  0.00     0.342 C 
HETATM    7  C   UNK N   1      21.998  14.674   1.155  0.00  0.00     0.318 C 
HETATM    8  N   UNK N   1      23.162  14.213   1.904  0.00  0.00     0.097 N 
HETATM    9  C   UNK N   1      23.236  15.045   3.101  0.00  0.00     0.303 C 
HETATM   10  C   UNK N   1      22.070  14.659   3.983  0.00  0.00     0.303 C 
BRANCH   6  11
HETATM   11  C   UNK N   1      19.455  14.886   1.206  0.00  0.00     0.253 C 
HETATM   12  O   UNK N   1      19.352  16.080   0.998  0.00  0.00    -0.271 OA
HETATM   13  N   UNK N   1      18.412  14.094   0.809  0.00  0.00    -0.351 N 
HETATM   14  H   UNK N   1      17.622  14.580   0.480  0.00  0.00     0.163 HD
BRANCH  13  15
HETATM   15  C   UNK N   1      18.295  12.654   0.799  0.00  0.00     0.022 C 
HETATM   16  C   UNK N   1      19.508  12.022   0.140  0.00  0.00     0.037 C 
HETATM   17  C   UNK N   1      17.098  12.296  -0.057  0.00  0.00     0.037 C 
HETATM   18  C   UNK N   1      18.067  12.091   2.191  0.00  0.00     0.037 C 
ENDBRANCH  13  15
ENDBRANCH   6  11
BRANCH   8  19
HETATM   19  C   UNK N   1      24.334  14.307   1.022  0.00  0.00     0.312 C 
BRANCH  19  20
HETATM   20  C   UNK N   1      25.662  14.375   1.725  0.00  0.00    -0.015 A 
HETATM   21  C   UNK N   1      26.307  15.597   1.956  0.00  0.00     0.011 A 
HETATM   22  C   UNK N   1      27.559  15.610   2.571  0.00  0.00     0.018 A 
HETATM   23  C   UNK N   1      28.141  14.402   2.961  0.00  0.00     0.087 A 
HETATM   24  N   UNK N   1      27.490  13.227   2.744  0.00  0.00    -0.375 N 
HETATM   25  C   UNK N   1      26.277  13.192   2.133  0.00  0.00     0.096 A 
ATOM     26  HN  UNK N   1      27.922  12.353   3.046  1.00  0.00     0.164 HD
ENDBRANCH  19  20
ENDBRANCH   8  19
ENDBRANCH   4   5
ENDBRANCH   1   4
BRANCH   1  27
HETATM   27  C   UNK N   1      19.722  16.043   6.163  0.00  0.00     0.047 C 
BRANCH  27  28
HETATM   28  C   UNK N   1      21.149  16.631   6.087  0.00  0.00     0.084 C 
BRANCH  28  29
HETATM   29  C   UNK N   1      21.071  18.136   6.275  0.00  0.00     0.222 C 
HETATM   30  O   UNK N   1      20.748  18.599   7.358  0.00  0.00    -0.273 OA
HETATM   31  N   UNK N   1      21.328  18.987   5.248  0.00  0.00    -0.350 N 
HETATM   32  H   UNK N   1      21.180  19.950   5.388  0.00  0.00     0.163 HD
BRANCH  31  33
HETATM   33  C   UNK N   1      21.810  18.547   3.954  0.00  0.00     0.147 C 
HETATM   34  C   UNK N   1      21.166  19.359   2.808  0.00  0.00     0.149 C 
HETATM   35  C   UNK N   1      22.084  20.538   2.452  0.00  0.00     0.073 C 
HETATM   36  C   UNK N   1      23.366  20.075   3.021  0.00  0.00    -0.047 A 
HETATM   37  C   UNK N   1      23.223  18.978   3.828  0.00  0.00    -0.027 A 
HETATM   38  C   UNK N   1      24.610  20.681   2.838  0.00  0.00     0.008 A 
HETATM   39  C   UNK N   1      24.319  18.429   4.498  0.00  0.00     0.010 A 
HETATM   40  C   UNK N   1      25.582  19.009   4.316  0.00  0.00     0.001 A 
HETATM   41  C   UNK N   1      25.727  20.135   3.488  0.00  0.00     0.001 A 
BRANCH  34  42
HETATM   42  O   UNK N   1      19.854  19.756   3.074  0.00  0.00    -0.393 OA
HETATM   43  H   UNK N   1      19.061  19.459   2.599  0.00  0.00     0.210 HD
ENDBRANCH  34  42
ENDBRANCH  31  33
ENDBRANCH  28  29
BRANCH  28  44
HETATM   44  C   UNK N   1      22.225  15.977   6.995  0.00  0.00     0.052 C 
BRANCH  44  45
HETATM   45  C   UNK N   1      21.745  14.861   7.873  0.00  0.00    -0.057 A 
HETATM   46  C   UNK N   1      20.994  15.121   9.025  0.00  0.00     0.007 A 
HETATM   47  C   UNK N   1      20.635  14.071   9.876  0.00  0.00     0.001 A 
HETATM   48  C   UNK N   1      21.029  12.762   9.580  0.00  0.00     0.000 A 
HETATM   49  C   UNK N   1      21.769  12.499   8.424  0.00  0.00     0.001 A 
HETATM   50  C   UNK N   1      22.126  13.547   7.572  0.00  0.00     0.007 A 
ENDBRANCH  44  45
ENDBRANCH  28  44
ENDBRANCH  27  28
ENDBRANCH   1  27
TORSDOF 14
ENDMDL
MODEL 7
REMARK VINA RESULT:      -7.7      2.302      9.736
REMARK  14 active torsions:
REMARK  status: ('A' for Active; 'I' for Inactive)
REMARK    1  A    between atoms: C_16  and  O_1 
REMARK    2  A    between atoms: C_21  and  O_2 
REMARK    3  A    between atoms: N_5  and  C_14 
REMARK    4  A    between atoms: N_6  and  C_22 
REMARK    5  A    between atoms: C_19  and  N_7 
REMARK       I    between atoms: N_7  and  C_25 
REMARK       I    between atoms: N_8  and  C_20 
REMARK    6  A    between atoms: N_8  and  C_28 
REMARK    7  A    between atoms: C_11  and  C_20 
REMARK    8  A    between atoms: C_14  and  C_16 
REMARK    9  A    between atoms: C_16  and  C_17 
REMARK   10  A    between atoms: C_18  and  C_17 
REMARK   11  A    between atoms: C_18  and  C_25 
REMARK   12  A    between atoms: C_18  and  C_26 
REMARK   13  A    between atoms: C_22  and  C_29 
REMARK   14  A    between atoms: C_26  and  C_31 
ROOT
HETATM    1  C   UNK N   1      34.403  16.441   8.952  0.00  0.00     0.147 C 
ENDROOT
BRANCH   1   2
HETATM    2  O   UNK N   1      35.281  17.305   9.617  0.00  0.00    -0.394 OA
HETATM    3  H   UNK N   1      35.671  18.020  10.144  0.00  0.00     0.210 HD
ENDBRANCH   1   2
BRANCH   1   4
HETATM    4  C   UNK N   1      33.654  17.167   7.843  0.00  0.00     0.305 C 
BRANCH   4   5
HETATM    5  N   UNK N   1      32.220  17.037   8.066  0.00  0.00     0.108 N 
HETATM    6  C   UNK N   1      31.496  16.771   6.795  0.00  0.00     0.342 C 
HETATM    7  C   UNK N   1      29.987  16.886   7.048  0.00  0.00     0.318 C 
HETATM    8  N   UNK N   1      29.674  18.184   7.635  0.00  0.00     0.097 N 
HETATM    9  C   UNK N   1      30.282  18.192   8.963  0.00  0.00     0.303 C 
HETATM   10  C   UNK N   1      31.780  18.244   8.765  0.00  0.00     0.303 C 
BRANCH   6  11
HETATM   11  C   UNK N   1      31.884  15.391   6.224  0.00  0.00     0.253 C 
HETATM   12  O   UNK N   1      31.754  14.409   6.930  0.00  0.00    -0.271 OA
HETATM   13  N   UNK N   1      32.412  15.193   4.978  0.00  0.00    -0.351 N 
HETATM   14  H   UNK N   1      32.736  14.281   4.803  0.00  0.00     0.163 HD
BRANCH  13  15
HETATM   15  C   UNK N   1      32.567  16.121   3.881  0.00  0.00     0.022 C 
HETATM   16  C   UNK N   1      31.249  16.314   3.153  0.00  0.00     0.037 C 
HETATM   17  C   UNK N   1      33.527  15.501   2.886  0.00  0.00     0.037 C 
HETATM   18  C   UNK N   1      33.148  17.449   4.334  0.00  0.00     0.037 C 
ENDBRANCH  13  15
ENDBRANCH   6  11
BRANCH   8  19
HETATM   19  C   UNK N   1      28.213  18.342   7.633  0.00  0.00     0.312 C 
BRANCH  19  20
HETATM   20  C   UNK N   1      27.659  19.182   6.516  0.00  0.00    -0.015 A 
HETATM   21  C   UNK N   1      27.195  20.485   6.740  0.00  0.00     0.011 A 
HETATM   22  C   UNK N   1      26.647  21.212   5.683  0.00  0.00     0.018 A 
HETATM   23  C   UNK N   1      26.586  20.634   4.413  0.00  0.00     0.087 A 
HETATM   24  N   UNK N   1      27.059  19.373   4.213  0.00  0.00    -0.375 N 
HETATM   25  C   UNK N   1      27.582  18.642   5.232  0.00  0.00     0.096 A 
ATOM     26  HN  UNK N   1      27.020  18.968   3.277  1.00  0.00     0.164 HD
ENDBRANCH  19  20
ENDBRANCH   8  19
ENDBRANCH   4   5
ENDBRANCH   1   4
BRANCH   1  27
HETATM   27  C   UNK N   1      35.114  15.192   8.435  0.00  0.00     0.047 C 
BRANCH  27  28
HETATM   28  C   UNK N   1      34.776  13.886   9.189  0.00  0.00     0.084 C 
BRANCH  28  29
HETATM   29  C   UNK N   1      33.818  14.206  10.322  0.00  0.00     0.222 C 
HETATM   30  O   UNK N   1      32.732  14.710  10.077  0.00  0.00    -0.273 OA
HETATM   31  N   UNK N   1      34.154  13.969  11.616  0.00  0.00    -0.350 N 
HETATM   32  H   UNK N   1      33.541  14.273  12.324  0.00  0.00     0.163 HD
BRANCH  31  33
HETATM   33  C   UNK N   1      35.373  13.290  12.007  0.00  0.00     0.147 C 
HETATM   34  C   UNK N   1      36.414  14.283  12.572  0.00  0.00     0.149 C 
HETATM   35  C   UNK N   1      36.271  14.341  14.100  0.00  0.00     0.073 C 
HETATM   36  C   UNK N   1      35.554  13.077  14.363  0.00  0.00    -0.047 A 
HETATM   37  C   UNK N   1      35.077  12.492  13.220  0.00  0.00    -0.027 A 
HETATM   38  C   UNK N   1      35.308  12.519  15.618  0.00  0.00     0.008 A 
HETATM   39  C   UNK N   1      34.325  11.316  13.274  0.00  0.00     0.010 A 
HETATM   40  C   UNK N   1      34.080  10.725  14.522  0.00  0.00     0.001 A 
HETATM   41  C   UNK N   1      34.570  11.328  15.693  0.00  0.00     0.001 A 
BRANCH  34  42
HETATM   42  O   UNK N   1      36.363  15.545  11.976  0.00  0.00    -0.393 OA
HETATM   43  H   UNK N   1      36.317  16.394  12.443  0.00  0.00     0.210 HD
ENDBRANCH  34  42
ENDBRANCH  31  33
ENDBRANCH  28  29
BRANCH  28  44
HETATM   44  C   UNK N   1      34.294  12.686   8.328  0.00  0.00     0.052 C 
BRANCH  44  45
HETATM   45  C   UNK N   1      34.213  11.369   9.038  0.00  0.00    -0.057 A 
HETATM   46  C   UNK N   1      32.978  10.823   9.409  0.00  0.00     0.007 A 
HETATM   47  C   UNK N   1      32.933   9.638  10.150  0.00  0.00     0.001 A 
HETATM   48  C   UNK N   1      34.120   9.000  10.526  0.00  0.00     0.000 A 
HETATM   49  C   UNK N   1      35.352   9.538  10.149  0.00  0.00     0.001 A 
HETATM   50  C   UNK N   1      35.399  10.719   9.405  0.00  0.00     0.007 A 
ENDBRANCH  44  45
ENDBRANCH  28  44
ENDBRANCH  27  28
ENDBRANCH   1  27
TORSDOF 14
ENDMDL
MODEL 8
REMARK VINA RESULT:      -7.7      2.020      2.963
REMARK  14 active torsions:
REMARK  status: ('A' for Active; 'I' for Inactive)
REMARK    1  A    between atoms: C_16  and  O_1 
REMARK    2  A    between atoms: C_21  and  O_2 
REMARK    3  A    between atoms: N_5  and  C_14 
REMARK    4  A    between atoms: N_6  and  C_22 
REMARK    5  A    between atoms: C_19  and  N_7 
REMARK       I    between atoms: N_7  and  C_25 
REMARK       I    between atoms: N_8  and  C_20 
REMARK    6  A    between atoms: N_8  and  C_28 
REMARK    7  A    between atoms: C_11  and  C_20 
REMARK    8  A    between atoms: C_14  and  C_16 
REMARK    9  A    between atoms: C_16  and  C_17 
REMARK   10  A    between atoms: C_18  and  C_17 
REMARK   11  A    between atoms: C_18  and  C_25 
REMARK   12  A    between atoms: C_18  and  C_26 
REMARK   13  A    between atoms: C_22  and  C_29 
REMARK   14  A    between atoms: C_26  and  C_31 
ROOT
HETATM    1  C   UNK N   1      35.810  15.567  10.235  0.00  0.00     0.147 C 
ENDROOT
BRANCH   1   2
HETATM    2  O   UNK N   1      36.888  16.181  10.885  0.00  0.00    -0.394 OA
HETATM    3  H   UNK N   1      37.702  16.363  11.381  0.00  0.00     0.210 HD
ENDBRANCH   1   2
BRANCH   1   4
HETATM    4  C   UNK N   1      35.122  14.560  11.146  0.00  0.00     0.305 C 
BRANCH   4   5
HETATM    5  N   UNK N   1      36.119  13.910  11.985  0.00  0.00     0.108 N 
HETATM    6  C   UNK N   1      36.293  12.481  11.613  0.00  0.00     0.342 C 
HETATM    7  C   UNK N   1      37.162  11.792  12.672  0.00  0.00     0.318 C 
HETATM    8  N   UNK N   1      36.583  11.982  13.998  0.00  0.00     0.097 N 
HETATM    9  C   UNK N   1      36.688  13.408  14.292  0.00  0.00     0.303 C 
HETATM   10  C   UNK N   1      35.719  14.123  13.375  0.00  0.00     0.303 C 
BRANCH   6  11
HETATM   11  C   UNK N   1      36.896  12.356  10.198  0.00  0.00     0.253 C 
HETATM   12  O   UNK N   1      37.957  12.903   9.963  0.00  0.00    -0.271 OA
HETATM   13  N   UNK N   1      36.294  11.700   9.159  0.00  0.00    -0.351 N 
HETATM   14  H   UNK N   1      36.728  11.817   8.284  0.00  0.00     0.163 HD
BRANCH  13  15
HETATM   15  C   UNK N   1      35.116  10.861   9.152  0.00  0.00     0.022 C 
HETATM   16  C   UNK N   1      34.838  10.341   7.753  0.00  0.00     0.037 C 
HETATM   17  C   UNK N   1      33.934  11.725   9.539  0.00  0.00     0.037 C 
HETATM   18  C   UNK N   1      35.220   9.725  10.154  0.00  0.00     0.037 C 
ENDBRANCH  13  15
ENDBRANCH   6  11
BRANCH   8  19
HETATM   19  C   UNK N   1      37.306  11.112  14.937  0.00  0.00     0.312 C 
BRANCH  19  20
HETATM   20  C   UNK N   1      36.448  10.415  15.956  0.00  0.00    -0.015 A 
HETATM   21  C   UNK N   1      35.884  11.106  17.035  0.00  0.00     0.011 A 
HETATM   22  C   UNK N   1      35.132  10.410  17.983  0.00  0.00     0.018 A 
HETATM   23  C   UNK N   1      34.941   9.035  17.828  0.00  0.00     0.087 A 
HETATM   24  N   UNK N   1      35.483   8.385  16.762  0.00  0.00    -0.375 N 
HETATM   25  C   UNK N   1      36.231   9.042  15.837  0.00  0.00     0.096 A 
ATOM     26  HN  UNK N   1      35.324   7.383  16.655  1.00  0.00     0.164 HD
ENDBRANCH  19  20
ENDBRANCH   8  19
ENDBRANCH   4   5
ENDBRANCH   1   4
BRANCH   1  27
HETATM   27  C   UNK N   1      34.826  16.591   9.672  0.00  0.00     0.047 C 
BRANCH  27  28
HETATM   28  C   UNK N   1      34.218  16.227   8.299  0.00  0.00     0.084 C 
BRANCH  28  29
HETATM   29  C   UNK N   1      33.826  17.506   7.580  0.00  0.00     0.222 C 
HETATM   30  O   UNK N   1      34.672  18.355   7.342  0.00  0.00    -0.273 OA
HETATM   31  N   UNK N   1      32.539  17.744   7.218  0.00  0.00    -0.350 N 
HETATM   32  H   UNK N   1      32.313  18.622   6.835  0.00  0.00     0.163 HD
BRANCH  31  33
HETATM   33  C   UNK N   1      31.480  16.766   7.368  0.00  0.00     0.147 C 
HETATM   34  C   UNK N   1      30.418  17.240   8.386  0.00  0.00     0.149 C 
HETATM   35  C   UNK N   1      29.287  17.957   7.632  0.00  0.00     0.073 C 
HETATM   36  C   UNK N   1      29.490  17.438   6.264  0.00  0.00    -0.047 A 
HETATM   37  C   UNK N   1      30.679  16.773   6.120  0.00  0.00    -0.027 A 
HETATM   38  C   UNK N   1      28.629  17.623   5.181  0.00  0.00     0.008 A 
HETATM   39  C   UNK N   1      31.070  16.258   4.883  0.00  0.00     0.010 A 
HETATM   40  C   UNK N   1      30.214  16.414   3.783  0.00  0.00     0.001 A 
HETATM   41  C   UNK N   1      28.995  17.097   3.932  0.00  0.00     0.001 A 
BRANCH  34  42
HETATM   42  O   UNK N   1      30.945  18.007   9.426  0.00  0.00    -0.393 OA
HETATM   43  H   UNK N   1      31.682  17.754  10.004  0.00  0.00     0.210 HD
ENDBRANCH  34  42
ENDBRANCH  31  33
ENDBRANCH  28  29
BRANCH  28  44
HETATM   44  C   UNK N   1      35.046  15.272   7.396  0.00  0.00     0.052 C 
BRANCH  44  45
HETATM   45  C   UNK N   1      34.289  14.603   6.290  0.00  0.00    -0.057 A 
HETATM   46  C   UNK N   1      33.317  13.633   6.564  0.00  0.00     0.007 A 
HETATM   47  C   UNK N   1      32.688  12.958   5.512  0.00  0.00     0.001 A 
HETATM   48  C   UNK N   1      33.034  13.248   4.188  0.00  0.00     0.000 A 
HETATM   49  C   UNK N   1      33.996  14.222   3.912  0.00  0.00     0.001 A 
HETATM   50  C   UNK N   1      34.622  14.900   4.961  0.00  0.00     0.007 A 
ENDBRANCH  44  45
ENDBRANCH  28  44
ENDBRANCH  27  28
ENDBRANCH   1  27
TORSDOF 14
ENDMDL
MODEL 9
REMARK VINA RESULT:      -7.7      5.740     10.548
REMARK  14 active torsions:
REMARK  status: ('A' for Active; 'I' for Inactive)
REMARK    1  A    between atoms: C_16  and  O_1 
REMARK    2  A    between atoms: C_21  and  O_2 
REMARK    3  A    between atoms: N_5  and  C_14 
REMARK    4  A    between atoms: N_6  and  C_22 
REMARK    5  A    between atoms: C_19  and  N_7 
REMARK       I    between atoms: N_7  and  C_25 
REMARK       I    between atoms: N_8  and  C_20 
REMARK    6  A    between atoms: N_8  and  C_28 
REMARK    7  A    between atoms: C_11  and  C_20 
REMARK    8  A    between atoms: C_14  and  C_16 
REMARK    9  A    between atoms: C_16  and  C_17 
REMARK   10  A    between atoms: C_18  and  C_17 
REMARK   11  A    between atoms: C_18  and  C_25 
REMARK   12  A    between atoms: C_18  and  C_26 
REMARK   13  A    between atoms: C_22  and  C_29 
REMARK   14  A    between atoms: C_26  and  C_31 
ROOT
HETATM    1  C   UNK N   1      25.635  15.727   6.609  0.00  0.00     0.147 C 
ENDROOT
BRANCH   1   2
HETATM    2  O   UNK N   1      26.303  15.567   7.829  0.00  0.00    -0.394 OA
HETATM    3  H   UNK N   1      26.759  15.209   8.607  0.00  0.00     0.210 HD
ENDBRANCH   1   2
BRANCH   1   4
HETATM    4  C   UNK N   1      26.555  16.329   5.555  0.00  0.00     0.305 C 
BRANCH   4   5
HETATM    5  N   UNK N   1      27.941  16.105   5.943  0.00  0.00     0.108 N 
HETATM    6  C   UNK N   1      28.692  17.385   6.034  0.00  0.00     0.342 C 
HETATM    7  C   UNK N   1      30.185  17.077   6.203  0.00  0.00     0.318 C 
HETATM    8  N   UNK N   1      30.643  16.210   5.123  0.00  0.00     0.097 N 
HETATM    9  C   UNK N   1      29.968  14.929   5.310  0.00  0.00     0.303 C 
HETATM   10  C   UNK N   1      28.505  15.147   4.994  0.00  0.00     0.303 C 
BRANCH   6  11
HETATM   11  C   UNK N   1      28.146  18.256   7.186  0.00  0.00     0.253 C 
HETATM   12  O   UNK N   1      28.313  17.882   8.332  0.00  0.00    -0.271 OA
HETATM   13  N   UNK N   1      27.441  19.414   7.009  0.00  0.00    -0.351 N 
HETATM   14  H   UNK N   1      27.042  19.789   7.827  0.00  0.00     0.163 HD
BRANCH  13  15
HETATM   15  C   UNK N   1      27.192  20.172   5.803  0.00  0.00     0.022 C 
HETATM   16  C   UNK N   1      27.139  21.658   6.106  0.00  0.00     0.037 C 
HETATM   17  C   UNK N   1      25.821  19.783   5.290  0.00  0.00     0.037 C 
HETATM   18  C   UNK N   1      28.208  19.865   4.718  0.00  0.00     0.037 C 
ENDBRANCH  13  15
ENDBRANCH   6  11
BRANCH   8  19
HETATM   19  C   UNK N   1      32.110  16.141   5.189  0.00  0.00     0.312 C 
BRANCH  19  20
HETATM   20  C   UNK N   1      32.713  16.538   6.507  0.00  0.00    -0.015 A 
HETATM   21  C   UNK N   1      33.408  17.745   6.662  0.00  0.00     0.011 A 
HETATM   22  C   UNK N   1      33.991  18.052   7.892  0.00  0.00     0.018 A 
HETATM   23  C   UNK N   1      33.856  17.157   8.955  0.00  0.00     0.087 A 
HETATM   24  N   UNK N   1      33.162  15.998   8.789  0.00  0.00    -0.375 N 
HETATM   25  C   UNK N   1      32.600  15.673   7.595  0.00  0.00     0.096 A 
ATOM     26  HN  UNK N   1      33.061  15.359   9.578  1.00  0.00     0.164 HD
ENDBRANCH  19  20
ENDBRANCH   8  19
ENDBRANCH   4   5
ENDBRANCH   1   4
BRANCH   1  27
HETATM   27  C   UNK N   1      24.999  14.423   6.131  0.00  0.00     0.047 C 
BRANCH  27  28
HETATM   28  C   UNK N   1      23.537  14.546   5.647  0.00  0.00     0.084 C 
BRANCH  28  29
HETATM   29  C   UNK N   1      22.799  13.262   5.979  0.00  0.00     0.222 C 
HETATM   30  O   UNK N   1      22.706  12.378   5.141  0.00  0.00    -0.273 OA
HETATM   31  N   UNK N   1      22.208  13.082   7.190  0.00  0.00    -0.350 N 
HETATM   32  H   UNK N   1      21.666  12.273   7.332  0.00  0.00     0.163 HD
BRANCH  31  33
HETATM   33  C   UNK N   1      22.340  14.024   8.283  0.00  0.00     0.147 C 
HETATM   34  C   UNK N   1      20.965  14.354   8.907  0.00  0.00     0.149 C 
HETATM   35  C   UNK N   1      20.717  13.415  10.097  0.00  0.00     0.073 C 
HETATM   36  C   UNK N   1      22.093  12.970  10.395  0.00  0.00    -0.047 A 
HETATM   37  C   UNK N   1      22.985  13.316   9.414  0.00  0.00    -0.027 A 
HETATM   38  C   UNK N   1      22.493  12.228  11.507  0.00  0.00     0.008 A 
HETATM   39  C   UNK N   1      24.327  12.934   9.494  0.00  0.00     0.010 A 
HETATM   40  C   UNK N   1      24.757  12.204  10.611  0.00  0.00     0.001 A 
HETATM   41  C   UNK N   1      23.840  11.850  11.616  0.00  0.00     0.001 A 
BRANCH  34  42
HETATM   42  O   UNK N   1      19.917  14.348   7.985  0.00  0.00    -0.393 OA
HETATM   43  H   UNK N   1      19.522  13.561   7.577  0.00  0.00     0.210 HD
ENDBRANCH  34  42
ENDBRANCH  31  33
ENDBRANCH  28  29
BRANCH  28  44
HETATM   44  C   UNK N   1      22.754  15.810   6.099  0.00  0.00     0.052 C 
BRANCH  44  45
HETATM   45  C   UNK N   1      22.276  16.707   4.997  0.00  0.00    -0.057 A 
HETATM   46  C   UNK N   1      22.493  18.089   5.045  0.00  0.00     0.007 A 
HETATM   47  C   UNK N   1      21.959  18.915   4.051  0.00  0.00     0.001 A 
HETATM   48  C   UNK N   1      21.203  18.362   3.012  0.00  0.00     0.000 A 
HETATM   49  C   UNK N   1      20.994  16.982   2.956  0.00  0.00     0.001 A 
HETATM   50  C   UNK N   1      21.530  16.155   3.946  0.00  0.00     0.007 A 
ENDBRANCH  44  45
ENDBRANCH  28  44
ENDBRANCH  27  28
ENDBRANCH   1  27
TORSDOF 14
ENDMDL
