REMARK  14 active torsions:
REMARK  status: ('A' for Active; 'I' for Inactive)
REMARK    1  A    between atoms: C_16  and  O_1 
REMARK    2  A    between atoms: C_21  and  O_2 
REMARK    3  A    between atoms: N_5  and  C_14 
REMARK    4  A    between atoms: N_6  and  C_22 
REMARK    5  A    between atoms: C_19  and  N_7 
REMARK       I    between atoms: N_7  and  C_25 
REMARK       I    between atoms: N_8  and  C_20 
REMARK    6  A    between atoms: N_8  and  C_28 
REMARK    7  A    between atoms: C_11  and  C_20 
REMARK    8  A    between atoms: C_14  and  C_16 
REMARK    9  A    between atoms: C_16  and  C_17 
REMARK   10  A    between atoms: C_18  and  C_17 
REMARK   11  A    between atoms: C_18  and  C_25 
REMARK   12  A    between atoms: C_18  and  C_26 
REMARK   13  A    between atoms: C_22  and  C_29 
REMARK   14  A    between atoms: C_26  and  C_31 
ROOT
HETATM    1  C   UNK N   1       5.898   2.056  -0.092  0.00  0.00     0.147 C 
ENDROOT
BRANCH   1   2
HETATM    2  O   UNK N   1       6.224   1.885   1.259  0.00  0.00    -0.394 OA
HETATM    3  H   UNK N   1       6.234   1.630   2.195  0.00  0.00     0.210 HD
ENDBRANCH   1   2
BRANCH   1   4
HETATM    4  C   UNK N   1       7.056   1.644  -0.991  0.00  0.00     0.305 C 
BRANCH   4   5
HETATM    5  N   UNK N   1       7.871   0.653  -0.302  0.00  0.00     0.108 N 
HETATM    6  C   UNK N   1       9.317   0.990  -0.381  0.00  0.00     0.342 C 
HETATM    7  C   UNK N   1      10.135  -0.198   0.141  0.00  0.00     0.318 C 
HETATM    8  N   UNK N   1       9.780  -1.411  -0.587  0.00  0.00     0.097 N 
HETATM    9  C   UNK N   1       8.398  -1.716  -0.228  0.00  0.00     0.303 C 
HETATM   10  C   UNK N   1       7.529  -0.653  -0.863  0.00  0.00     0.303 C 
BRANCH   6  11
HETATM   11  C   UNK N   1       9.618   2.288   0.398  0.00  0.00     0.253 C 
HETATM   12  O   UNK N   1       8.687   2.929   0.848  0.00  0.00    -0.271 OA
HETATM   13  N   UNK N   1      10.872   2.801   0.585  0.00  0.00    -0.351 N 
HETATM   14  H   UNK N   1      10.899   3.701   0.982  0.00  0.00     0.163 HD
BRANCH  13  15
HETATM   15  C   UNK N   1      12.163   2.222   0.288  0.00  0.00     0.022 C 
HETATM   16  C   UNK N   1      12.474   1.087   1.247  0.00  0.00     0.037 C 
HETATM   17  C   UNK N   1      13.211   3.290   0.523  0.00  0.00     0.037 C 
HETATM   18  C   UNK N   1      12.265   1.768  -1.157  0.00  0.00     0.037 C 
ENDBRANCH  13  15
ENDBRANCH   6  11
BRANCH   8  19
HETATM   19  C   UNK N   1      10.748  -2.456  -0.226  0.00  0.00     0.312 C 
BRANCH  19  20
HETATM   20  C   UNK N   1      10.182  -3.844  -0.111  0.00  0.00    -0.015 A 
HETATM   21  C   UNK N   1       9.423  -4.414  -1.141  0.00  0.00     0.011 A 
HETATM   22  C   UNK N   1       8.879  -5.688  -0.973  0.00  0.00     0.018 A 
HETATM   23  C   UNK N   1       9.116  -6.381   0.216  0.00  0.00     0.087 A 
HETATM   24  N   UNK N   1       9.871  -5.817   1.198  0.00  0.00    -0.375 N 
HETATM   25  C   UNK N   1      10.397  -4.571   1.060  0.00  0.00     0.096 A 
ATOM     26  HN  UNK N   1      10.046  -6.340   2.056  1.00  0.00     0.164 HD
ENDBRANCH  19  20
ENDBRANCH   8  19
ENDBRANCH   4   5
ENDBRANCH   1   4
BRANCH   1  27
HETATM   27  C   UNK N   1       4.605   1.333  -0.463  0.00  0.00     0.047 C 
BRANCH  27  28
HETATM   28  C   UNK N   1       3.574   1.207   0.681  0.00  0.00     0.084 C 
BRANCH  28  29
HETATM   29  C   UNK N   1       3.952   0.025   1.556  0.00  0.00     0.222 C 
HETATM   30  O   UNK N   1       4.239   0.203   2.730  0.00  0.00    -0.273 OA
HETATM   31  N   UNK N   1       4.007  -1.235   1.051  0.00  0.00    -0.350 N 
HETATM   32  H   UNK N   1       4.342  -1.958   1.629  0.00  0.00     0.163 HD
BRANCH  31  33
HETATM   33  C   UNK N   1       3.595  -1.567  -0.298  0.00  0.00     0.147 C 
HETATM   34  C   UNK N   1       4.027  -3.001  -0.680  0.00  0.00     0.149 C 
HETATM   35  C   UNK N   1       2.874  -3.969  -0.374  0.00  0.00     0.073 C 
HETATM   36  C   UNK N   1       1.731  -3.035  -0.320  0.00  0.00    -0.047 A 
HETATM   37  C   UNK N   1       2.121  -1.722  -0.295  0.00  0.00    -0.027 A 
HETATM   38  C   UNK N   1       0.384  -3.391  -0.243  0.00  0.00     0.008 A 
HETATM   39  C   UNK N   1       1.181  -0.694  -0.190  0.00  0.00     0.010 A 
HETATM   40  C   UNK N   1      -0.180  -1.025  -0.130  0.00  0.00     0.001 A 
HETATM   41  C   UNK N   1      -0.578  -2.373  -0.155  0.00  0.00     0.001 A 
BRANCH  34  42
HETATM   42  O   UNK N   1       5.233  -3.395  -0.097  0.00  0.00    -0.393 OA
HETATM   43  H   UNK N   1       5.415  -4.258   0.308  0.00  0.00     0.210 HD
ENDBRANCH  34  42
ENDBRANCH  31  33
ENDBRANCH  28  29
BRANCH  28  44
HETATM   44  C   UNK N   1       3.289   2.489   1.511  0.00  0.00     0.052 C 
BRANCH  44  45
HETATM   45  C   UNK N   1       3.751   3.776   0.898  0.00  0.00    -0.057 A 
HETATM   46  C   UNK N   1       3.257   4.204  -0.340  0.00  0.00     0.007 A 
HETATM   47  C   UNK N   1       3.770   5.362  -0.934  0.00  0.00     0.001 A 
HETATM   48  C   UNK N   1       4.780   6.089  -0.295  0.00  0.00     0.000 A 
HETATM   49  C   UNK N   1       5.267   5.669   0.945  0.00  0.00     0.001 A 
HETATM   50  C   UNK N   1       4.753   4.515   1.541  0.00  0.00     0.007 A 
ENDBRANCH  44  45
ENDBRANCH  28  44
ENDBRANCH  27  28
ENDBRANCH   1  27
TORSDOF 14
