MODEL 1
REMARK VINA RESULT:      -7.1      0.000      0.000
REMARK  8 active torsions:
REMARK  status: ('A' for Active; 'I' for Inactive)
REMARK    1  A    between atoms: C_8  and  O_1 
REMARK    2  A    between atoms: O_1  and  C_23 
REMARK    3  A    between atoms: C_22  and  O_3 
REMARK    4  A    between atoms: C_7  and  C_11 
REMARK    5  A    between atoms: C_11  and  C_15 
REMARK    6  A    between atoms: C_19  and  C_15 
REMARK    7  A    between atoms: C_23  and  C_25 
REMARK    8  A    between atoms: C_25  and  C_27 
ROOT
HETATM    1  C   UNK N   1      30.118  17.036   6.768  0.00  0.00     0.052 C 
HETATM    2  C   UNK N   1      29.126  18.209   6.928  0.00  0.00     0.004 C 
HETATM    3  C   UNK N   1      30.401  16.783   5.258  0.00  0.00     0.141 C 
HETATM    4  C   UNK N   1      28.842  18.568   8.408  0.00  0.00     0.009 C 
HETATM    5  C   UNK N   1      31.374  17.363   7.570  0.00  0.00    -0.055 C 
HETATM    6  C   UNK N   1      31.874  16.755   4.821  0.00  0.00     0.041 C 
HETATM    7  C   UNK N   1      32.767  16.192   5.901  0.00  0.00     0.007 C 
HETATM    8  C   UNK N   1      32.591  16.993   7.151  0.00  0.00    -0.015 C 
HETATM    9  C   UNK N   1      30.097  18.639   9.239  0.00  0.00    -0.022 C 
HETATM   10  C   UNK N   1      31.262  18.109   8.839  0.00  0.00     0.004 C 
HETATM   11  C   UNK N   1      27.862  17.631   9.094  0.00  0.00     0.014 C 
HETATM   12  C   UNK N   1      34.212  16.279   5.452  0.00  0.00     0.014 C 
ENDROOT
BRANCH   2  13
HETATM   13  C   UNK N   1      27.848  18.132   6.075  0.00  0.00     0.009 C 
BRANCH  13  14
HETATM   14  C   UNK N   1      27.741  19.242   5.039  0.00  0.00     0.033 C 
BRANCH  14  15
HETATM   15  C   UNK N   1      26.287  19.622   4.851  0.00  0.00     0.134 C 
HETATM   16  O   UNK N   1      25.456  18.595   5.259  0.00  0.00    -0.316 OA
HETATM   17  C   UNK N   1      24.194  18.403   4.767  0.00  0.00     0.261 C 
HETATM   18  O   UNK N   1      23.518  17.490   5.186  0.00  0.00    -0.265 OA
HETATM   19  C   UNK N   1      23.657  19.270   3.650  0.00  0.00     0.142 C 
HETATM   20  C   UNK N   1      24.580  20.439   3.323  0.00  0.00     0.130 C 
HETATM   21  C   UNK N   1      26.030  20.005   3.402  0.00  0.00     0.065 C 
BRANCH  20  22
HETATM   22  O   UNK N   1      24.295  20.933   2.051  0.00  0.00    -0.395 OA
HETATM   23  H   UNK N   1      23.419  20.997   1.641  0.00  0.00     0.210 HD
ENDBRANCH  20  22
ENDBRANCH  14  15
ENDBRANCH  13  14
ENDBRANCH   2  13
BRANCH   3  24
HETATM   24  O   UNK N   1      29.624  15.744   4.770  0.00  0.00    -0.315 OA
BRANCH  24  25
HETATM   25  C   UNK N   1      28.900  15.805   3.624  0.00  0.00     0.263 C 
HETATM   26  O   UNK N   1      29.314  16.419   2.649  0.00  0.00    -0.265 OA
BRANCH  25  27
HETATM   27  C   UNK N   1      27.532  15.195   3.602  0.00  0.00     0.081 C 
HETATM   28  C   UNK N   1      27.119  14.784   5.008  0.00  0.00     0.020 C 
BRANCH  27  29
HETATM   29  C   UNK N   1      26.467  16.059   2.926  0.00  0.00     0.010 C 
HETATM   30  C   UNK N   1      25.884  15.415   1.678  0.00  0.00     0.006 C 
ENDBRANCH  27  29
ENDBRANCH  25  27
ENDBRANCH  24  25
ENDBRANCH   3  24
TORSDOF 8
ENDMDL
MODEL 2
REMARK VINA RESULT:      -7.1     10.591     13.496
REMARK  8 active torsions:
REMARK  status: ('A' for Active; 'I' for Inactive)
REMARK    1  A    between atoms: C_8  and  O_1 
REMARK    2  A    between atoms: O_1  and  C_23 
REMARK    3  A    between atoms: C_22  and  O_3 
REMARK    4  A    between atoms: C_7  and  C_11 
REMARK    5  A    between atoms: C_11  and  C_15 
REMARK    6  A    between atoms: C_19  and  C_15 
REMARK    7  A    between atoms: C_23  and  C_25 
REMARK    8  A    between atoms: C_25  and  C_27 
ROOT
HETATM    1  C   UNK N   1      29.045  22.393  -5.329  0.00  0.00     0.052 C 
HETATM    2  C   UNK N   1      29.717  23.640  -4.714  0.00  0.00     0.004 C 
HETATM    3  C   UNK N   1      28.230  22.797  -6.592  0.00  0.00     0.141 C 
HETATM    4  C   UNK N   1      30.602  23.311  -3.487  0.00  0.00     0.009 C 
HETATM    5  C   UNK N   1      30.131  21.361  -5.617  0.00  0.00    -0.055 C 
HETATM    6  C   UNK N   1      28.523  22.023  -7.887  0.00  0.00     0.041 C 
HETATM    7  C   UNK N   1      28.892  20.586  -7.607  0.00  0.00     0.007 C 
HETATM    8  C   UNK N   1      30.066  20.551  -6.681  0.00  0.00    -0.015 C 
HETATM    9  C   UNK N   1      31.495  22.119  -3.717  0.00  0.00    -0.022 C 
HETATM   10  C   UNK N   1      31.290  21.243  -4.712  0.00  0.00     0.004 C 
HETATM   11  C   UNK N   1      29.821  23.087  -2.203  0.00  0.00     0.014 C 
HETATM   12  C   UNK N   1      29.262  19.902  -8.908  0.00  0.00     0.014 C 
ENDROOT
BRANCH   2  13
HETATM   13  C   UNK N   1      28.801  24.855  -4.483  0.00  0.00     0.009 C 
BRANCH  13  14
HETATM   14  C   UNK N   1      29.295  26.126  -5.160  0.00  0.00     0.033 C 
BRANCH  14  15
HETATM   15  C   UNK N   1      28.818  27.333  -4.381  0.00  0.00     0.134 C 
HETATM   16  O   UNK N   1      27.749  27.001  -3.569  0.00  0.00    -0.316 OA
HETATM   17  C   UNK N   1      26.800  27.899  -3.163  0.00  0.00     0.261 C 
HETATM   18  O   UNK N   1      25.902  27.536  -2.436  0.00  0.00    -0.265 OA
HETATM   19  C   UNK N   1      26.813  29.324  -3.669  0.00  0.00     0.142 C 
HETATM   20  C   UNK N   1      28.069  29.646  -4.472  0.00  0.00     0.130 C 
HETATM   21  C   UNK N   1      28.463  28.463  -5.335  0.00  0.00     0.065 C 
BRANCH  20  22
HETATM   22  O   UNK N   1      27.853  30.770  -5.268  0.00  0.00    -0.395 OA
HETATM   23  H   UNK N   1      28.191  31.664  -5.106  0.00  0.00     0.210 HD
ENDBRANCH  20  22
ENDBRANCH  14  15
ENDBRANCH  13  14
ENDBRANCH   2  13
BRANCH   3  24
HETATM   24  O   UNK N   1      26.886  22.953  -6.293  0.00  0.00    -0.315 OA
BRANCH  24  25
HETATM   25  C   UNK N   1      26.043  23.772  -6.971  0.00  0.00     0.263 C 
HETATM   26  O   UNK N   1      25.278  23.328  -7.816  0.00  0.00    -0.265 OA
BRANCH  25  27
HETATM   27  C   UNK N   1      26.134  25.251  -6.743  0.00  0.00     0.081 C 
HETATM   28  C   UNK N   1      25.897  25.998  -8.047  0.00  0.00     0.020 C 
BRANCH  27  29
HETATM   29  C   UNK N   1      25.239  25.771  -5.618  0.00  0.00     0.010 C 
HETATM   30  C   UNK N   1      24.703  27.170  -5.884  0.00  0.00     0.006 C 
ENDBRANCH  27  29
ENDBRANCH  25  27
ENDBRANCH  24  25
ENDBRANCH   3  24
TORSDOF 8
ENDMDL
MODEL 3
REMARK VINA RESULT:      -7.0      6.486      7.834
REMARK  8 active torsions:
REMARK  status: ('A' for Active; 'I' for Inactive)
REMARK    1  A    between atoms: C_8  and  O_1 
REMARK    2  A    between atoms: O_1  and  C_23 
REMARK    3  A    between atoms: C_22  and  O_3 
REMARK    4  A    between atoms: C_7  and  C_11 
REMARK    5  A    between atoms: C_11  and  C_15 
REMARK    6  A    between atoms: C_19  and  C_15 
REMARK    7  A    between atoms: C_23  and  C_25 
REMARK    8  A    between atoms: C_25  and  C_27 
ROOT
HETATM    1  C   UNK N   1      21.742  14.509   7.562  0.00  0.00     0.052 C 
HETATM    2  C   UNK N   1      21.541  15.996   7.199  0.00  0.00     0.004 C 
HETATM    3  C   UNK N   1      23.239  14.118   7.392  0.00  0.00     0.141 C 
HETATM    4  C   UNK N   1      20.085  16.481   7.406  0.00  0.00     0.009 C 
HETATM    5  C   UNK N   1      21.221  14.292   8.980  0.00  0.00    -0.055 C 
HETATM    6  C   UNK N   1      23.928  13.454   8.595  0.00  0.00     0.041 C 
HETATM    7  C   UNK N   1      22.968  12.594   9.383  0.00  0.00     0.007 C 
HETATM    8  C   UNK N   1      21.806  13.427   9.819  0.00  0.00    -0.015 C 
HETATM    9  C   UNK N   1      19.505  16.033   8.724  0.00  0.00    -0.022 C 
HETATM   10  C   UNK N   1      20.046  15.047   9.454  0.00  0.00     0.004 C 
HETATM   11  C   UNK N   1      19.132  16.070   6.296  0.00  0.00     0.014 C 
HETATM   12  C   UNK N   1      23.677  12.046  10.605  0.00  0.00     0.014 C 
ENDROOT
BRANCH   2  13
HETATM   13  C   UNK N   1      22.136  16.448   5.854  0.00  0.00     0.009 C 
BRANCH  13  14
HETATM   14  C   UNK N   1      22.110  17.957   5.653  0.00  0.00     0.033 C 
BRANCH  14  15
HETATM   15  C   UNK N   1      21.950  18.269   4.180  0.00  0.00     0.134 C 
HETATM   16  O   UNK N   1      22.329  19.571   3.912  0.00  0.00    -0.316 OA
HETATM   17  C   UNK N   1      21.843  20.300   2.861  0.00  0.00     0.261 C 
HETATM   18  O   UNK N   1      22.237  21.430   2.680  0.00  0.00    -0.265 OA
HETATM   19  C   UNK N   1      20.762  19.740   1.963  0.00  0.00     0.142 C 
HETATM   20  C   UNK N   1      20.468  18.272   2.252  0.00  0.00     0.130 C 
HETATM   21  C   UNK N   1      20.518  18.005   3.743  0.00  0.00     0.065 C 
BRANCH  20  22
HETATM   22  O   UNK N   1      19.216  17.926   1.744  0.00  0.00    -0.395 OA
HETATM   23  H   UNK N   1      18.775  17.067   1.833  0.00  0.00     0.210 HD
ENDBRANCH  20  22
ENDBRANCH  14  15
ENDBRANCH  13  14
ENDBRANCH   2  13
BRANCH   3  24
HETATM   24  O   UNK N   1      23.459  13.497   6.173  0.00  0.00    -0.315 OA
BRANCH  24  25
HETATM   25  C   UNK N   1      22.586  12.641   5.583  0.00  0.00     0.263 C 
HETATM   26  O   UNK N   1      22.276  11.587   6.123  0.00  0.00    -0.265 OA
BRANCH  25  27
HETATM   27  C   UNK N   1      22.084  12.957   4.207  0.00  0.00     0.081 C 
HETATM   28  C   UNK N   1      20.620  13.368   4.265  0.00  0.00     0.020 C 
BRANCH  27  29
HETATM   29  C   UNK N   1      22.932  13.976   3.446  0.00  0.00     0.010 C 
HETATM   30  C   UNK N   1      22.118  14.821   2.478  0.00  0.00     0.006 C 
ENDBRANCH  27  29
ENDBRANCH  25  27
ENDBRANCH  24  25
ENDBRANCH   3  24
TORSDOF 8
ENDMDL
MODEL 4
REMARK VINA RESULT:      -7.0      6.136      7.672
REMARK  8 active torsions:
REMARK  status: ('A' for Active; 'I' for Inactive)
REMARK    1  A    between atoms: C_8  and  O_1 
REMARK    2  A    between atoms: O_1  and  C_23 
REMARK    3  A    between atoms: C_22  and  O_3 
REMARK    4  A    between atoms: C_7  and  C_11 
REMARK    5  A    between atoms: C_11  and  C_15 
REMARK    6  A    between atoms: C_19  and  C_15 
REMARK    7  A    between atoms: C_23  and  C_25 
REMARK    8  A    between atoms: C_25  and  C_27 
ROOT
HETATM    1  C   UNK N   1      22.303  14.329   7.491  0.00  0.00     0.052 C 
HETATM    2  C   UNK N   1      21.951  15.776   7.082  0.00  0.00     0.004 C 
HETATM    3  C   UNK N   1      23.821  14.068   7.267  0.00  0.00     0.141 C 
HETATM    4  C   UNK N   1      20.467  16.137   7.338  0.00  0.00     0.009 C 
HETATM    5  C   UNK N   1      21.864  14.124   8.938  0.00  0.00    -0.055 C 
HETATM    6  C   UNK N   1      24.618  13.518   8.461  0.00  0.00     0.041 C 
HETATM    7  C   UNK N   1      23.775  12.608   9.323  0.00  0.00     0.007 C 
HETATM    8  C   UNK N   1      22.561  13.351   9.781  0.00  0.00    -0.015 C 
HETATM    9  C   UNK N   1      19.987  15.693   8.696  0.00  0.00    -0.022 C 
HETATM   10  C   UNK N   1      20.645  14.790   9.437  0.00  0.00     0.004 C 
HETATM   11  C   UNK N   1      19.510  15.597   6.288  0.00  0.00     0.014 C 
HETATM   12  C   UNK N   1      24.581  12.175  10.531  0.00  0.00     0.014 C 
ENDROOT
BRANCH   2  13
HETATM   13  C   UNK N   1      22.446  16.224   5.696  0.00  0.00     0.009 C 
BRANCH  13  14
HETATM   14  C   UNK N   1      22.544  17.736   5.545  0.00  0.00     0.033 C 
BRANCH  14  15
HETATM   15  C   UNK N   1      22.158  18.130   4.135  0.00  0.00     0.134 C 
HETATM   16  O   UNK N   1      22.684  19.366   3.810  0.00  0.00    -0.316 OA
HETATM   17  C   UNK N   1      22.130  20.205   2.883  0.00  0.00     0.261 C 
HETATM   18  O   UNK N   1      22.659  21.266   2.639  0.00  0.00    -0.265 OA
HETATM   19  C   UNK N   1      20.821  19.858   2.208  0.00  0.00     0.142 C 
HETATM   20  C   UNK N   1      20.354  18.444   2.534  0.00  0.00     0.130 C 
HETATM   21  C   UNK N   1      20.645  18.112   3.984  0.00  0.00     0.065 C 
BRANCH  20  22
HETATM   22  O   UNK N   1      18.989  18.320   2.277  0.00  0.00    -0.395 OA
HETATM   23  H   UNK N   1      18.506  18.707   1.531  0.00  0.00     0.210 HD
ENDBRANCH  20  22
ENDBRANCH  14  15
ENDBRANCH  13  14
ENDBRANCH   2  13
BRANCH   3  24
HETATM   24  O   UNK N   1      24.046  13.419   6.063  0.00  0.00    -0.315 OA
BRANCH  24  25
HETATM   25  C   UNK N   1      23.163  12.573   5.475  0.00  0.00     0.263 C 
HETATM   26  O   UNK N   1      22.663  12.839   4.390  0.00  0.00    -0.265 OA
BRANCH  25  27
HETATM   27  C   UNK N   1      22.727  11.351   6.224  0.00  0.00     0.081 C 
HETATM   28  C   UNK N   1      21.281  11.017   5.888  0.00  0.00     0.020 C 
BRANCH  27  29
HETATM   29  C   UNK N   1      23.646  10.142   6.046  0.00  0.00     0.010 C 
HETATM   30  C   UNK N   1      23.824   9.338   7.325  0.00  0.00     0.006 C 
ENDBRANCH  27  29
ENDBRANCH  25  27
ENDBRANCH  24  25
ENDBRANCH   3  24
TORSDOF 8
ENDMDL
MODEL 5
REMARK VINA RESULT:      -6.9      2.048      7.264
REMARK  8 active torsions:
REMARK  status: ('A' for Active; 'I' for Inactive)
REMARK    1  A    between atoms: C_8  and  O_1 
REMARK    2  A    between atoms: O_1  and  C_23 
REMARK    3  A    between atoms: C_22  and  O_3 
REMARK    4  A    between atoms: C_7  and  C_11 
REMARK    5  A    between atoms: C_11  and  C_15 
REMARK    6  A    between atoms: C_19  and  C_15 
REMARK    7  A    between atoms: C_23  and  C_25 
REMARK    8  A    between atoms: C_25  and  C_27 
ROOT
HETATM    1  C   UNK N   1      27.714  17.661   4.421  0.00  0.00     0.052 C 
HETATM    2  C   UNK N   1      28.910  16.899   3.808  0.00  0.00     0.004 C 
HETATM    3  C   UNK N   1      28.020  19.187   4.459  0.00  0.00     0.141 C 
HETATM    4  C   UNK N   1      28.657  15.377   3.674  0.00  0.00     0.009 C 
HETATM    5  C   UNK N   1      26.467  17.317   3.613  0.00  0.00    -0.055 C 
HETATM    6  C   UNK N   1      26.981  20.122   3.821  0.00  0.00     0.041 C 
HETATM    7  C   UNK N   1      25.577  19.591   3.984  0.00  0.00     0.007 C 
HETATM    8  C   UNK N   1      25.500  18.218   3.395  0.00  0.00    -0.015 C 
HETATM    9  C   UNK N   1      27.300  15.063   3.098  0.00  0.00    -0.022 C 
HETATM   10  C   UNK N   1      26.308  15.963   3.048  0.00  0.00     0.004 C 
HETATM   11  C   UNK N   1      28.819  14.607   4.974  0.00  0.00     0.014 C 
HETATM   12  C   UNK N   1      24.610  20.502   3.255  0.00  0.00     0.014 C 
ENDROOT
BRANCH   2  13
HETATM   13  C   UNK N   1      30.292  17.227   4.399  0.00  0.00     0.009 C 
BRANCH  13  14
HETATM   14  C   UNK N   1      31.449  16.648   3.595  0.00  0.00     0.033 C 
BRANCH  14  15
HETATM   15  C   UNK N   1      32.557  16.224   4.536  0.00  0.00     0.134 C 
HETATM   16  O   UNK N   1      32.171  15.129   5.286  0.00  0.00    -0.316 OA
HETATM   17  C   UNK N   1      32.684  14.838   6.520  0.00  0.00     0.261 C 
HETATM   18  O   UNK N   1      32.308  13.850   7.110  0.00  0.00    -0.265 OA
HETATM   19  C   UNK N   1      33.663  15.775   7.193  0.00  0.00     0.142 C 
HETATM   20  C   UNK N   1      34.120  16.900   6.272  0.00  0.00     0.130 C 
HETATM   21  C   UNK N   1      32.966  17.390   5.422  0.00  0.00     0.065 C 
BRANCH  20  22
HETATM   22  O   UNK N   1      34.643  17.951   7.024  0.00  0.00    -0.395 OA
HETATM   23  H   UNK N   1      35.435  17.922   7.582  0.00  0.00     0.210 HD
ENDBRANCH  20  22
ENDBRANCH  14  15
ENDBRANCH  13  14
ENDBRANCH   2  13
BRANCH   3  24
HETATM   24  O   UNK N   1      28.471  19.577   5.710  0.00  0.00    -0.315 OA
BRANCH  24  25
HETATM   25  C   UNK N   1      27.733  19.499   6.847  0.00  0.00     0.263 C 
HETATM   26  O   UNK N   1      26.812  20.277   7.054  0.00  0.00    -0.265 OA
BRANCH  25  27
HETATM   27  C   UNK N   1      28.131  18.507   7.897  0.00  0.00     0.081 C 
HETATM   28  C   UNK N   1      27.640  17.117   7.519  0.00  0.00     0.020 C 
BRANCH  27  29
HETATM   29  C   UNK N   1      29.621  18.511   8.236  0.00  0.00     0.010 C 
HETATM   30  C   UNK N   1      30.281  17.155   8.033  0.00  0.00     0.006 C 
ENDBRANCH  27  29
ENDBRANCH  25  27
ENDBRANCH  24  25
ENDBRANCH   3  24
TORSDOF 8
ENDMDL
MODEL 6
REMARK VINA RESULT:      -6.9      4.260      7.039
REMARK  8 active torsions:
REMARK  status: ('A' for Active; 'I' for Inactive)
REMARK    1  A    between atoms: C_8  and  O_1 
REMARK    2  A    between atoms: O_1  and  C_23 
REMARK    3  A    between atoms: C_22  and  O_3 
REMARK    4  A    between atoms: C_7  and  C_11 
REMARK    5  A    between atoms: C_11  and  C_15 
REMARK    6  A    between atoms: C_19  and  C_15 
REMARK    7  A    between atoms: C_23  and  C_25 
REMARK    8  A    between atoms: C_25  and  C_27 
ROOT
HETATM    1  C   UNK N   1      22.317  14.420   7.383  0.00  0.00     0.052 C 
HETATM    2  C   UNK N   1      21.934  15.871   7.017  0.00  0.00     0.004 C 
HETATM    3  C   UNK N   1      23.843  14.203   7.167  0.00  0.00     0.141 C 
HETATM    4  C   UNK N   1      20.439  16.188   7.268  0.00  0.00     0.009 C 
HETATM    5  C   UNK N   1      21.868  14.158   8.818  0.00  0.00    -0.055 C 
HETATM    6  C   UNK N   1      24.640  13.633   8.351  0.00  0.00     0.041 C 
HETATM    7  C   UNK N   1      23.811  12.676   9.174  0.00  0.00     0.007 C 
HETATM    8  C   UNK N   1      22.575  13.375   9.643  0.00  0.00    -0.015 C 
HETATM    9  C   UNK N   1      19.957  15.689   8.606  0.00  0.00    -0.022 C 
HETATM   10  C   UNK N   1      20.629  14.779   9.325  0.00  0.00     0.004 C 
HETATM   11  C   UNK N   1      19.506  15.659   6.191  0.00  0.00     0.014 C 
HETATM   12  C   UNK N   1      24.616  12.224  10.376  0.00  0.00     0.014 C 
ENDROOT
BRANCH   2  13
HETATM   13  C   UNK N   1      22.432  16.375   5.651  0.00  0.00     0.009 C 
BRANCH  13  14
HETATM   14  C   UNK N   1      22.416  17.892   5.520  0.00  0.00     0.033 C 
BRANCH  14  15
HETATM   15  C   UNK N   1      22.104  18.273   4.088  0.00  0.00     0.134 C 
HETATM   16  O   UNK N   1      22.529  19.561   3.821  0.00  0.00    -0.316 OA
HETATM   17  C   UNK N   1      21.969  20.359   2.861  0.00  0.00     0.261 C 
HETATM   18  O   UNK N   1      22.408  21.472   2.673  0.00  0.00    -0.265 OA
HETATM   19  C   UNK N   1      20.758  19.899   2.080  0.00  0.00     0.142 C 
HETATM   20  C   UNK N   1      20.409  18.440   2.352  0.00  0.00     0.130 C 
HETATM   21  C   UNK N   1      20.617  18.110   3.816  0.00  0.00     0.065 C 
BRANCH  20  22
HETATM   22  O   UNK N   1      19.087  18.188   1.985  0.00  0.00    -0.395 OA
HETATM   23  H   UNK N   1      18.630  17.335   2.030  0.00  0.00     0.210 HD
ENDBRANCH  20  22
ENDBRANCH  14  15
ENDBRANCH  13  14
ENDBRANCH   2  13
BRANCH   3  24
HETATM   24  O   UNK N   1      24.095  13.599   5.945  0.00  0.00    -0.315 OA
BRANCH  24  25
HETATM   25  C   UNK N   1      25.288  13.646   5.301  0.00  0.00     0.263 C 
HETATM   26  O   UNK N   1      25.903  12.621   5.038  0.00  0.00    -0.265 OA
BRANCH  25  27
HETATM   27  C   UNK N   1      25.896  14.984   5.007  0.00  0.00     0.081 C 
HETATM   28  C   UNK N   1      27.249  15.108   5.693  0.00  0.00     0.020 C 
BRANCH  27  29
HETATM   29  C   UNK N   1      25.980  15.324   3.518  0.00  0.00     0.010 C 
HETATM   30  C   UNK N   1      24.619  15.351   2.838  0.00  0.00     0.006 C 
ENDBRANCH  27  29
ENDBRANCH  25  27
ENDBRANCH  24  25
ENDBRANCH   3  24
TORSDOF 8
ENDMDL
MODEL 7
REMARK VINA RESULT:      -6.9     10.346     12.991
REMARK  8 active torsions:
REMARK  status: ('A' for Active; 'I' for Inactive)
REMARK    1  A    between atoms: C_8  and  O_1 
REMARK    2  A    between atoms: O_1  and  C_23 
REMARK    3  A    between atoms: C_22  and  O_3 
REMARK    4  A    between atoms: C_7  and  C_11 
REMARK    5  A    between atoms: C_11  and  C_15 
REMARK    6  A    between atoms: C_19  and  C_15 
REMARK    7  A    between atoms: C_23  and  C_25 
REMARK    8  A    between atoms: C_25  and  C_27 
ROOT
HETATM    1  C   UNK N   1      29.131  22.324  -5.035  0.00  0.00     0.052 C 
HETATM    2  C   UNK N   1      29.664  23.568  -4.290  0.00  0.00     0.004 C 
HETATM    3  C   UNK N   1      28.606  22.732  -6.442  0.00  0.00     0.141 C 
HETATM    4  C   UNK N   1      30.265  23.234  -2.903  0.00  0.00     0.009 C 
HETATM    5  C   UNK N   1      30.248  21.286  -5.087  0.00  0.00    -0.055 C 
HETATM    6  C   UNK N   1      29.164  21.956  -7.646  0.00  0.00     0.041 C 
HETATM    7  C   UNK N   1      29.458  20.517  -7.296  0.00  0.00     0.007 C 
HETATM    8  C   UNK N   1      30.407  20.476  -6.141  0.00  0.00    -0.015 C 
HETATM    9  C   UNK N   1      31.181  22.037  -2.939  0.00  0.00    -0.022 C 
HETATM   10  C   UNK N   1      31.188  21.162  -3.955  0.00  0.00     0.004 C 
HETATM   11  C   UNK N   1      29.228  23.015  -1.815  0.00  0.00     0.014 C 
HETATM   12  C   UNK N   1      30.092  19.831  -8.489  0.00  0.00     0.014 C 
ENDROOT
BRANCH   2  13
HETATM   13  C   UNK N   1      28.726  24.787  -4.258  0.00  0.00     0.009 C 
BRANCH  13  14
HETATM   14  C   UNK N   1      29.456  26.118  -4.374  0.00  0.00     0.033 C 
BRANCH  14  15
HETATM   15  C   UNK N   1      28.447  27.240  -4.504  0.00  0.00     0.134 C 
HETATM   16  O   UNK N   1      28.450  28.036  -3.374  0.00  0.00    -0.316 OA
HETATM   17  C   UNK N   1      27.370  28.764  -2.958  0.00  0.00     0.261 C 
HETATM   18  O   UNK N   1      27.454  29.453  -1.966  0.00  0.00    -0.265 OA
HETATM   19  C   UNK N   1      26.043  28.665  -3.679  0.00  0.00     0.142 C 
HETATM   20  C   UNK N   1      26.140  27.856  -4.968  0.00  0.00     0.130 C 
HETATM   21  C   UNK N   1      27.064  26.669  -4.780  0.00  0.00     0.065 C 
BRANCH  20  22
HETATM   22  O   UNK N   1      24.873  27.421  -5.355  0.00  0.00    -0.395 OA
HETATM   23  H   UNK N   1      24.671  26.809  -6.080  0.00  0.00     0.210 HD
ENDBRANCH  20  22
ENDBRANCH  14  15
ENDBRANCH  13  14
ENDBRANCH   2  13
BRANCH   3  24
HETATM   24  O   UNK N   1      27.230  22.895  -6.436  0.00  0.00    -0.315 OA
BRANCH  24  25
HETATM   25  C   UNK N   1      26.538  23.589  -7.376  0.00  0.00     0.263 C 
HETATM   26  O   UNK N   1      26.686  24.797  -7.503  0.00  0.00    -0.265 OA
BRANCH  25  27
HETATM   27  C   UNK N   1      25.509  22.867  -8.192  0.00  0.00     0.081 C 
HETATM   28  C   UNK N   1      26.052  22.579  -9.584  0.00  0.00     0.020 C 
BRANCH  27  29
HETATM   29  C   UNK N   1      24.948  21.609  -7.529  0.00  0.00     0.010 C 
HETATM   30  C   UNK N   1      25.574  20.328  -8.059  0.00  0.00     0.006 C 
ENDBRANCH  27  29
ENDBRANCH  25  27
ENDBRANCH  24  25
ENDBRANCH   3  24
TORSDOF 8
ENDMDL
MODEL 8
REMARK VINA RESULT:      -6.9      7.686     11.408
REMARK  8 active torsions:
REMARK  status: ('A' for Active; 'I' for Inactive)
REMARK    1  A    between atoms: C_8  and  O_1 
REMARK    2  A    between atoms: O_1  and  C_23 
REMARK    3  A    between atoms: C_22  and  O_3 
REMARK    4  A    between atoms: C_7  and  C_11 
REMARK    5  A    between atoms: C_11  and  C_15 
REMARK    6  A    between atoms: C_19  and  C_15 
REMARK    7  A    between atoms: C_23  and  C_25 
REMARK    8  A    between atoms: C_25  and  C_27 
ROOT
HETATM    1  C   UNK N   1      36.334  12.167  11.761  0.00  0.00     0.052 C 
HETATM    2  C   UNK N   1      36.109  12.587  10.291  0.00  0.00     0.004 C 
HETATM    3  C   UNK N   1      34.970  12.100  12.508  0.00  0.00     0.141 C 
HETATM    4  C   UNK N   1      37.416  12.613   9.460  0.00  0.00     0.009 C 
HETATM    5  C   UNK N   1      37.088  10.841  11.765  0.00  0.00    -0.055 C 
HETATM    6  C   UNK N   1      34.644  10.793  13.248  0.00  0.00     0.041 C 
HETATM    7  C   UNK N   1      35.887  10.143  13.807  0.00  0.00     0.007 C 
HETATM    8  C   UNK N   1      36.859   9.905  12.696  0.00  0.00    -0.015 C 
HETATM    9  C   UNK N   1      38.269  11.390   9.680  0.00  0.00    -0.022 C 
HETATM   10  C   UNK N   1      38.097  10.566  10.724  0.00  0.00     0.004 C 
HETATM   11  C   UNK N   1      38.272  13.846   9.693  0.00  0.00     0.014 C 
HETATM   12  C   UNK N   1      35.516   8.817  14.439  0.00  0.00     0.014 C 
ENDROOT
BRANCH   2  13
HETATM   13  C   UNK N   1      35.236  13.835  10.073  0.00  0.00     0.009 C 
BRANCH  13  14
HETATM   14  C   UNK N   1      34.198  13.665   8.972  0.00  0.00     0.033 C 
BRANCH  14  15
HETATM   15  C   UNK N   1      33.913  15.008   8.333  0.00  0.00     0.134 C 
HETATM   16  O   UNK N   1      34.760  15.979   8.835  0.00  0.00    -0.316 OA
HETATM   17  C   UNK N   1      34.447  17.310   8.872  0.00  0.00     0.261 C 
HETATM   18  O   UNK N   1      35.248  18.104   9.311  0.00  0.00    -0.265 OA
HETATM   19  C   UNK N   1      33.081  17.798   8.440  0.00  0.00     0.142 C 
HETATM   20  C   UNK N   1      32.242  16.695   7.806  0.00  0.00     0.130 C 
HETATM   21  C   UNK N   1      32.453  15.383   8.535  0.00  0.00     0.065 C 
BRANCH  20  22
HETATM   22  O   UNK N   1      30.893  17.046   7.830  0.00  0.00    -0.395 OA
HETATM   23  H   UNK N   1      30.461  17.627   8.474  0.00  0.00     0.210 HD
ENDBRANCH  20  22
ENDBRANCH  14  15
ENDBRANCH  13  14
ENDBRANCH   2  13
BRANCH   3  24
HETATM   24  O   UNK N   1      34.738  13.259  13.232  0.00  0.00    -0.315 OA
BRANCH  24  25
HETATM   25  C   UNK N   1      35.710  13.990  13.834  0.00  0.00     0.263 C 
HETATM   26  O   UNK N   1      36.233  14.936  13.260  0.00  0.00    -0.265 OA
BRANCH  25  27
HETATM   27  C   UNK N   1      36.209  13.558  15.179  0.00  0.00     0.081 C 
HETATM   28  C   UNK N   1      37.125  14.623  15.765  0.00  0.00     0.020 C 
BRANCH  27  29
HETATM   29  C   UNK N   1      35.108  13.153  16.159  0.00  0.00     0.010 C 
HETATM   30  C   UNK N   1      35.480  11.944  17.004  0.00  0.00     0.006 C 
ENDBRANCH  27  29
ENDBRANCH  25  27
ENDBRANCH  24  25
ENDBRANCH   3  24
TORSDOF 8
ENDMDL
MODEL 9
REMARK VINA RESULT:      -6.8     10.521     13.938
REMARK  8 active torsions:
REMARK  status: ('A' for Active; 'I' for Inactive)
REMARK    1  A    between atoms: C_8  and  O_1 
REMARK    2  A    between atoms: O_1  and  C_23 
REMARK    3  A    between atoms: C_22  and  O_3 
REMARK    4  A    between atoms: C_7  and  C_11 
REMARK    5  A    between atoms: C_11  and  C_15 
REMARK    6  A    between atoms: C_19  and  C_15 
REMARK    7  A    between atoms: C_23  and  C_25 
REMARK    8  A    between atoms: C_25  and  C_27 
ROOT
HETATM    1  C   UNK N   1      28.746  27.356  -4.612  0.00  0.00     0.052 C 
HETATM    2  C   UNK N   1      29.230  26.115  -3.830  0.00  0.00     0.004 C 
HETATM    3  C   UNK N   1      27.198  27.310  -4.776  0.00  0.00     0.141 C 
HETATM    4  C   UNK N   1      30.756  26.119  -3.567  0.00  0.00     0.009 C 
HETATM    5  C   UNK N   1      29.236  28.601  -3.878  0.00  0.00    -0.055 C 
HETATM    6  C   UNK N   1      26.412  28.549  -4.321  0.00  0.00     0.041 C 
HETATM    7  C   UNK N   1      27.196  29.821  -4.544  0.00  0.00     0.007 C 
HETATM    8  C   UNK N   1      28.506  29.722  -3.830  0.00  0.00    -0.015 C 
HETATM    9  C   UNK N   1      31.257  27.453  -3.075  0.00  0.00    -0.022 C 
HETATM   10  C   UNK N   1      30.545  28.583  -3.196  0.00  0.00     0.004 C 
HETATM   11  C   UNK N   1      31.592  25.703  -4.766  0.00  0.00     0.014 C 
HETATM   12  C   UNK N   1      26.412  30.994  -3.990  0.00  0.00     0.014 C 
ENDROOT
BRANCH   2  13
HETATM   13  C   UNK N   1      28.714  24.756  -4.336  0.00  0.00     0.009 C 
BRANCH  13  14
HETATM   14  C   UNK N   1      28.496  23.738  -3.226  0.00  0.00     0.033 C 
BRANCH  14  15
HETATM   15  C   UNK N   1      29.301  22.489  -3.518  0.00  0.00     0.134 C 
HETATM   16  O   UNK N   1      30.374  22.384  -2.653  0.00  0.00    -0.316 OA
HETATM   17  C   UNK N   1      31.527  21.714  -2.957  0.00  0.00     0.261 C 
HETATM   18  O   UNK N   1      32.418  21.651  -2.139  0.00  0.00    -0.265 OA
HETATM   19  C   UNK N   1      31.738  21.114  -4.329  0.00  0.00     0.142 C 
HETATM   20  C   UNK N   1      30.483  21.177  -5.191  0.00  0.00     0.130 C 
HETATM   21  C   UNK N   1      29.753  22.488  -4.970  0.00  0.00     0.065 C 
BRANCH  20  22
HETATM   22  O   UNK N   1      30.819  21.036  -6.538  0.00  0.00    -0.395 OA
HETATM   23  H   UNK N   1      30.863  20.206  -7.036  0.00  0.00     0.210 HD
ENDBRANCH  20  22
ENDBRANCH  14  15
ENDBRANCH  13  14
ENDBRANCH   2  13
BRANCH   3  24
HETATM   24  O   UNK N   1      26.841  26.811  -6.018  0.00  0.00    -0.315 OA
BRANCH  24  25
HETATM   25  C   UNK N   1      25.896  25.857  -6.216  0.00  0.00     0.263 C 
HETATM   26  O   UNK N   1      24.847  25.870  -5.587  0.00  0.00    -0.265 OA
BRANCH  25  27
HETATM   27  C   UNK N   1      26.201  24.722  -7.146  0.00  0.00     0.081 C 
HETATM   28  C   UNK N   1      27.547  24.944  -7.821  0.00  0.00     0.020 C 
BRANCH  27  29
HETATM   29  C   UNK N   1      26.108  23.338  -6.503  0.00  0.00     0.010 C 
HETATM   30  C   UNK N   1      26.849  22.267  -7.290  0.00  0.00     0.006 C 
ENDBRANCH  27  29
ENDBRANCH  25  27
ENDBRANCH  24  25
ENDBRANCH   3  24
TORSDOF 8
ENDMDL
