REMARK  3 active torsions:
REMARK  status: ('A' for Active; 'I' for Inactive)
REMARK    1  A    between atoms: O_7  and  C_8 
REMARK    2  A    between atoms: O_7  and  C_10 
REMARK    3  A    between atoms: C_8  and  C_9 
ROOT
HETATM    1  F   UNK N   1       3.609   1.269  -0.649  0.00  0.00    -0.171 F 
HETATM    2  F   UNK N   1       4.369  -0.736  -1.398  0.00  0.00    -0.171 F 
HETATM    3  C   UNK N   1       4.095   0.024  -0.268  0.00  0.00     0.402 C 
ENDROOT
BRANCH   3   4
HETATM    4  O   UNK N   1       3.173  -0.637   0.567  0.00  0.00    -0.260 OA
BRANCH   4   5
HETATM    5  C   UNK N   1       1.938  -0.706  -0.100  0.00  0.00     0.504 C 
HETATM    6  F   UNK N   1       1.311  -1.899   0.203  0.00  0.00    -0.184 F 
HETATM    7  F   UNK N   1       1.136   0.350   0.293  0.00  0.00    -0.184 F 
ENDBRANCH   4   5
ENDBRANCH   3   4
BRANCH   3   8
HETATM    8  C   UNK N   1       5.387   0.256   0.509  0.00  0.00     0.368 C 
HETATM    9 Cl   UNK N   1       6.172  -1.286   0.948  0.00  0.00    -0.080 Cl
HETATM   10  F   UNK N   1       6.268   1.019  -0.234  0.00  0.00    -0.223 F 
ENDBRANCH   3   8
TORSDOF 3
