MODEL 1
REMARK VINA RESULT:      -4.1      0.000      0.000
REMARK  3 active torsions:
REMARK  status: ('A' for Active; 'I' for Inactive)
REMARK    1  A    between atoms: O_7  and  C_8 
REMARK    2  A    between atoms: O_7  and  C_10 
REMARK    3  A    between atoms: C_8  and  C_9 
ROOT
HETATM    1  F   UNK N   1      32.810  18.430   7.921  0.00  0.00    -0.171 F 
HETATM    2  F   UNK N   1      34.943  19.082   8.353  0.00  0.00    -0.171 F 
HETATM    3  C   UNK N   1      34.149  18.062   7.845  0.00  0.00     0.402 C 
ENDROOT
BRANCH   3   4
HETATM    4  O   UNK N   1      34.509  17.764   6.516  0.00  0.00    -0.260 OA
BRANCH   4   5
HETATM    5  C   UNK N   1      33.341  17.463   5.795  0.00  0.00     0.504 C 
HETATM    6  F   UNK N   1      33.372  18.103   4.571  0.00  0.00    -0.184 F 
HETATM    7  F   UNK N   1      33.253  16.097   5.600  0.00  0.00    -0.184 F 
ENDBRANCH   4   5
ENDBRANCH   3   4
BRANCH   3   8
HETATM    8  C   UNK N   1      34.328  16.811   8.698  0.00  0.00     0.368 C 
HETATM    9 Cl   UNK N   1      32.769  15.992   8.995  0.00  0.00    -0.080 Cl
HETATM   10  F   UNK N   1      35.195  15.927   8.084  0.00  0.00    -0.223 F 
ENDBRANCH   3   8
TORSDOF 3
ENDMDL
MODEL 2
REMARK VINA RESULT:      -4.0     11.724     12.249
REMARK  3 active torsions:
REMARK  status: ('A' for Active; 'I' for Inactive)
REMARK    1  A    between atoms: O_7  and  C_8 
REMARK    2  A    between atoms: O_7  and  C_10 
REMARK    3  A    between atoms: C_8  and  C_9 
ROOT
HETATM    1  F   UNK N   1      24.679  11.669  11.551  0.00  0.00    -0.171 F 
HETATM    2  F   UNK N   1      22.981  10.893  10.257  0.00  0.00    -0.171 F 
HETATM    3  C   UNK N   1      23.442  11.975  10.995  0.00  0.00     0.402 C 
ENDROOT
BRANCH   3   4
HETATM    4  O   UNK N   1      23.528  13.128  10.191  0.00  0.00    -0.260 OA
BRANCH   4   5
HETATM    5  C   UNK N   1      24.709  13.055   9.432  0.00  0.00     0.504 C 
HETATM    6  F   UNK N   1      24.452  13.444   8.132  0.00  0.00    -0.184 F 
HETATM    7  F   UNK N   1      25.668  13.886   9.982  0.00  0.00    -0.184 F 
ENDBRANCH   4   5
ENDBRANCH   3   4
BRANCH   3   8
HETATM    8  C   UNK N   1      22.479  12.246  12.147  0.00  0.00     0.368 C 
HETATM    9 Cl   UNK N   1      20.778  12.088  11.628  0.00  0.00    -0.080 Cl
HETATM   10  F   UNK N   1      22.718  11.375  13.193  0.00  0.00    -0.223 F 
ENDBRANCH   3   8
TORSDOF 3
ENDMDL
MODEL 3
REMARK VINA RESULT:      -4.0     16.309     17.769
REMARK  3 active torsions:
REMARK  status: ('A' for Active; 'I' for Inactive)
REMARK    1  A    between atoms: O_7  and  C_8 
REMARK    2  A    between atoms: O_7  and  C_10 
REMARK    3  A    between atoms: C_8  and  C_9 
ROOT
HETATM    1  F   UNK N   1      23.834  27.393  -5.767  0.00  0.00    -0.171 F 
HETATM    2  F   UNK N   1      25.613  26.910  -7.095  0.00  0.00    -0.171 F 
HETATM    3  C   UNK N   1      25.069  26.757  -5.826  0.00  0.00     0.402 C 
ENDROOT
BRANCH   3   4
HETATM    4  O   UNK N   1      24.943  25.393  -5.497  0.00  0.00    -0.260 OA
BRANCH   4   5
HETATM    5  C   UNK N   1      26.169  24.946  -4.976  0.00  0.00     0.504 C 
HETATM    6  F   UNK N   1      25.945  24.186  -3.844  0.00  0.00    -0.184 F 
HETATM    7  F   UNK N   1      26.827  24.181  -5.922  0.00  0.00    -0.184 F 
ENDBRANCH   4   5
ENDBRANCH   3   4
BRANCH   3   8
HETATM    8  C   UNK N   1      25.978  27.430  -4.803  0.00  0.00     0.368 C 
HETATM    9 Cl   UNK N   1      27.014  28.669  -5.563  0.00  0.00    -0.080 Cl
HETATM   10  F   UNK N   1      25.228  28.017  -3.801  0.00  0.00    -0.223 F 
ENDBRANCH   3   8
TORSDOF 3
ENDMDL
MODEL 4
REMARK VINA RESULT:      -3.9      9.305     10.450
REMARK  3 active torsions:
REMARK  status: ('A' for Active; 'I' for Inactive)
REMARK    1  A    between atoms: O_7  and  C_8 
REMARK    2  A    between atoms: O_7  and  C_10 
REMARK    3  A    between atoms: C_8  and  C_9 
ROOT
HETATM    1  F   UNK N   1      36.295  13.835  15.851  0.00  0.00    -0.171 F 
HETATM    2  F   UNK N   1      35.944  11.715  16.587  0.00  0.00    -0.171 F 
HETATM    3  C   UNK N   1      35.376  12.974  16.439  0.00  0.00     0.402 C 
ENDROOT
BRANCH   3   4
HETATM    4  O   UNK N   1      34.198  12.903  15.670  0.00  0.00    -0.260 OA
BRANCH   4   5
HETATM    5  C   UNK N   1      34.325  11.843  14.756  0.00  0.00     0.504 C 
HETATM    6  F   UNK N   1      33.220  11.019  14.841  0.00  0.00    -0.184 F 
HETATM    7  F   UNK N   1      34.430  12.345  13.472  0.00  0.00    -0.184 F 
ENDBRANCH   4   5
ENDBRANCH   3   4
BRANCH   3   8
HETATM    8  C   UNK N   1      35.036  13.539  17.814  0.00  0.00     0.368 C 
HETATM    9 Cl   UNK N   1      35.316  12.335  19.103  0.00  0.00    -0.080 Cl
HETATM   10  F   UNK N   1      35.791  14.667  18.075  0.00  0.00    -0.223 F 
ENDBRANCH   3   8
TORSDOF 3
ENDMDL
MODEL 5
REMARK VINA RESULT:      -3.9     12.043     12.772
REMARK  3 active torsions:
REMARK  status: ('A' for Active; 'I' for Inactive)
REMARK    1  A    between atoms: O_7  and  C_8 
REMARK    2  A    between atoms: O_7  and  C_10 
REMARK    3  A    between atoms: C_8  and  C_9 
ROOT
HETATM    1  F   UNK N   1      22.714  13.662  10.230  0.00  0.00    -0.171 F 
HETATM    2  F   UNK N   1      21.143  12.356   9.237  0.00  0.00    -0.171 F 
HETATM    3  C   UNK N   1      22.439  12.392   9.737  0.00  0.00     0.402 C 
ENDROOT
BRANCH   3   4
HETATM    4  O   UNK N   1      22.614  11.419  10.740  0.00  0.00    -0.260 OA
BRANCH   4   5
HETATM    5  C   UNK N   1      23.276  12.015  11.827  0.00  0.00     0.504 C 
HETATM    6  F   UNK N   1      22.782  11.501  13.011  0.00  0.00    -0.184 F 
HETATM    7  F   UNK N   1      24.633  11.760  11.744  0.00  0.00    -0.184 F 
ENDBRANCH   4   5
ENDBRANCH   3   4
BRANCH   3   8
HETATM    8  C   UNK N   1      23.424  12.118   8.605  0.00  0.00     0.368 C 
HETATM    9 Cl   UNK N   1      24.857  13.176   8.715  0.00  0.00    -0.080 Cl
HETATM   10  F   UNK N   1      23.831  10.798   8.627  0.00  0.00    -0.223 F 
ENDBRANCH   3   8
TORSDOF 3
ENDMDL
MODEL 6
REMARK VINA RESULT:      -3.9     13.058     13.642
REMARK  3 active torsions:
REMARK  status: ('A' for Active; 'I' for Inactive)
REMARK    1  A    between atoms: O_7  and  C_8 
REMARK    2  A    between atoms: O_7  and  C_10 
REMARK    3  A    between atoms: C_8  and  C_9 
ROOT
HETATM    1  F   UNK N   1      21.177  12.235   8.860  0.00  0.00    -0.171 F 
HETATM    2  F   UNK N   1      20.504  12.291  11.029  0.00  0.00    -0.171 F 
HETATM    3  C   UNK N   1      21.475  12.714  10.130  0.00  0.00     0.402 C 
ENDROOT
BRANCH   3   4
HETATM    4  O   UNK N   1      21.571  14.119  10.124  0.00  0.00    -0.260 OA
BRANCH   4   5
HETATM    5  C   UNK N   1      20.619  14.626   9.222  0.00  0.00     0.504 C 
HETATM    6  F   UNK N   1      19.377  14.656   9.825  0.00  0.00    -0.184 F 
HETATM    7  F   UNK N   1      20.977  15.905   8.837  0.00  0.00    -0.184 F 
ENDBRANCH   4   5
ENDBRANCH   3   4
BRANCH   3   8
HETATM    8  C   UNK N   1      22.825  12.128  10.535  0.00  0.00     0.368 C 
HETATM    9 Cl   UNK N   1      22.944  11.921  12.304  0.00  0.00    -0.080 Cl
HETATM   10  F   UNK N   1      23.026  10.907   9.920  0.00  0.00    -0.223 F 
ENDBRANCH   3   8
TORSDOF 3
ENDMDL
MODEL 7
REMARK VINA RESULT:      -3.8     12.573     13.132
REMARK  3 active torsions:
REMARK  status: ('A' for Active; 'I' for Inactive)
REMARK    1  A    between atoms: O_7  and  C_8 
REMARK    2  A    between atoms: O_7  and  C_10 
REMARK    3  A    between atoms: C_8  and  C_9 
ROOT
HETATM    1  F   UNK N   1      23.850  12.506   9.184  0.00  0.00    -0.171 F 
HETATM    2  F   UNK N   1      22.430  11.110  10.277  0.00  0.00    -0.171 F 
HETATM    3  C   UNK N   1      23.083  12.335  10.330  0.00  0.00     0.402 C 
ENDROOT
BRANCH   3   4
HETATM    4  O   UNK N   1      22.158  13.388  10.472  0.00  0.00    -0.260 OA
BRANCH   4   5
HETATM    5  C   UNK N   1      20.861  12.863  10.337  0.00  0.00     0.504 C 
HETATM    6  F   UNK N   1      20.388  12.467  11.573  0.00  0.00    -0.184 F 
HETATM    7  F   UNK N   1      20.021  13.825   9.808  0.00  0.00    -0.184 F 
ENDBRANCH   4   5
ENDBRANCH   3   4
BRANCH   3   8
HETATM    8  C   UNK N   1      24.033  12.349  11.523  0.00  0.00     0.368 C 
HETATM    9 Cl   UNK N   1      23.209  11.839  13.022  0.00  0.00    -0.080 Cl
HETATM   10  F   UNK N   1      25.112  11.515  11.292  0.00  0.00    -0.223 F 
ENDBRANCH   3   8
TORSDOF 3
ENDMDL
MODEL 8
REMARK VINA RESULT:      -3.8     10.987     11.929
REMARK  3 active torsions:
REMARK  status: ('A' for Active; 'I' for Inactive)
REMARK    1  A    between atoms: O_7  and  C_8 
REMARK    2  A    between atoms: O_7  and  C_10 
REMARK    3  A    between atoms: C_8  and  C_9 
ROOT
HETATM    1  F   UNK N   1      31.564  22.341  -4.552  0.00  0.00    -0.171 F 
HETATM    2  F   UNK N   1      30.667  20.529  -3.518  0.00  0.00    -0.171 F 
HETATM    3  C   UNK N   1      31.612  21.542  -3.417  0.00  0.00     0.402 C 
ENDROOT
BRANCH   3   4
HETATM    4  O   UNK N   1      31.397  22.311  -2.256  0.00  0.00    -0.260 OA
BRANCH   4   5
HETATM    5  C   UNK N   1      30.175  22.991  -2.393  0.00  0.00     0.504 C 
HETATM    6  F   UNK N   1      29.481  22.945  -1.199  0.00  0.00    -0.184 F 
HETATM    7  F   UNK N   1      30.411  24.309  -2.739  0.00  0.00    -0.184 F 
ENDBRANCH   4   5
ENDBRANCH   3   4
BRANCH   3   8
HETATM    8  C   UNK N   1      33.006  20.927  -3.350  0.00  0.00     0.368 C 
HETATM    9 Cl   UNK N   1      34.129  21.725  -4.486  0.00  0.00    -0.080 Cl
HETATM   10  F   UNK N   1      33.515  21.019  -2.068  0.00  0.00    -0.223 F 
ENDBRANCH   3   8
TORSDOF 3
ENDMDL
MODEL 9
REMARK VINA RESULT:      -3.8      8.958      9.711
REMARK  3 active torsions:
REMARK  status: ('A' for Active; 'I' for Inactive)
REMARK    1  A    between atoms: O_7  and  C_8 
REMARK    2  A    between atoms: O_7  and  C_10 
REMARK    3  A    between atoms: C_8  and  C_9 
ROOT
HETATM    1  F   UNK N   1      35.505  11.454  16.268  0.00  0.00    -0.171 F 
HETATM    2  F   UNK N   1      34.422  13.352  16.888  0.00  0.00    -0.171 F 
HETATM    3  C   UNK N   1      35.087  12.712  15.850  0.00  0.00     0.402 C 
ENDROOT
BRANCH   3   4
HETATM    4  O   UNK N   1      34.261  12.611  14.714  0.00  0.00    -0.260 OA
BRANCH   4   5
HETATM    5  C   UNK N   1      34.168  11.257  14.349  0.00  0.00     0.504 C 
HETATM    6  F   UNK N   1      32.972  10.734  14.801  0.00  0.00    -0.184 F 
HETATM    7  F   UNK N   1      34.234  11.139  12.973  0.00  0.00    -0.184 F 
ENDBRANCH   4   5
ENDBRANCH   3   4
BRANCH   3   8
HETATM    8  C   UNK N   1      36.335  13.510  15.484  0.00  0.00     0.368 C 
HETATM    9 Cl   UNK N   1      36.185  14.253  13.868  0.00  0.00    -0.080 Cl
HETATM   10  F   UNK N   1      36.568  14.500  16.419  0.00  0.00    -0.223 F 
ENDBRANCH   3   8
TORSDOF 3
ENDMDL
