MODEL 1
REMARK VINA RESULT:      -7.5      0.000      0.000
REMARK  12 active torsions:
REMARK  status: ('A' for Active; 'I' for Inactive)
REMARK    1  A    between atoms: S_2  and  C_25 
REMARK    2  A    between atoms: S_2  and  C_30 
REMARK    3  A    between atoms: O_5  and  C_26 
REMARK    4  A    between atoms: C_20  and  N_9 
REMARK       I    between atoms: N_9  and  C_27 
REMARK    5  A    between atoms: N_10  and  C_31 
REMARK    6  A    between atoms: N_11  and  C_32 
REMARK    7  A    between atoms: N_18  and  C_34 
REMARK    8  A    between atoms: C_22  and  C_26 
REMARK    9  A    between atoms: C_23  and  C_25 
REMARK   10  A    between atoms: C_27  and  C_28 
REMARK   11  A    between atoms: C_28  and  C_29 
REMARK   12  A    between atoms: C_31  and  C_32 
ROOT
HETATM    1  S   UNK N   1      30.730  17.901   9.047  0.00  0.00    -0.136 SA
HETATM    2  O   UNK N   1      34.216  17.987   6.342  0.00  0.00    -0.271 OA
HETATM    3  N   UNK N   1      32.195  17.190   7.031  0.00  0.00    -0.293 N 
HETATM    4  C   UNK N   1      32.012  16.830   8.397  0.00  0.00     0.187 A 
HETATM    5  C   UNK N   1      33.541  17.308   8.646  0.00  0.00     0.210 A 
HETATM    6  C   UNK N   1      33.446  17.530   7.173  0.00  0.00     0.251 A 
HETATM    7  C   UNK N   1      31.215  17.144   5.988  0.00  0.00     0.116 C 
HETATM    8  C   UNK N   1      29.890  17.100   6.378  0.00  0.00    -0.027 C 
HETATM    9  C   UNK N   1      29.511  17.205   7.856  0.00  0.00     0.113 C 
ENDROOT
BRANCH   5  10
HETATM   10  N   UNK N   1      34.428  16.228   9.069  0.00  0.00    -0.345 N 
HETATM   11  C   UNK N   1      35.255  16.209  10.150  0.00  0.00     0.224 C 
HETATM   12  O   UNK N   1      35.295  17.144  10.935  0.00  0.00    -0.273 OA
HETATM   13  H   UNK N   1      34.429  15.420   8.507  0.00  0.00     0.163 HD
BRANCH  11  14
HETATM   14  C   UNK N   1      36.149  15.025  10.365  0.00  0.00     0.160 C 
BRANCH  14  15
HETATM   15  C   UNK N   1      36.002  14.436  11.733  0.00  0.00     0.026 A 
HETATM   16  N   UNK N   1      36.725  14.895  12.816  0.00  0.00    -0.340 N 
HETATM   17  C   UNK N   1      36.410  14.226  13.945  0.00  0.00     0.142 A 
ATOM     18  HN  UNK N   1      37.413  15.647  12.768  1.00  0.00     0.168 HD
HETATM   19  S   UNK N   1      35.263  13.092  13.627  0.00  0.00    -0.064 SA
HETATM   20  C   UNK N   1      35.091  13.394  12.002  0.00  0.00     0.078 A 
BRANCH  17  21
HETATM   21  N   UNK N   1      36.988  14.488  15.203  0.00  0.00    -0.380 N 
HETATM   22  H   UNK N   1      37.943  14.398  15.423  0.00  0.00     0.158 HD
HETATM   23  H   UNK N   1      36.386  14.784  15.922  0.00  0.00     0.158 HD
ENDBRANCH  17  21
ENDBRANCH  14  15
ENDBRANCH  11  14
ENDBRANCH   5  10
BRANCH   7  24
HETATM   24  C   UNK N   1      31.686  17.069   4.566  0.00  0.00     0.194 C 
HETATM   25  O   UNK N   1      32.084  16.008   4.116  0.00  0.00    -0.645 OA
BRANCH  24  26
HETATM   26  O   UNK N   1      31.683  18.136   3.757  0.00  0.00    -0.772 OA
HETATM   27  H   UNK N   1      31.861  19.026   3.988  0.00  0.00     0.167 HD
ENDBRANCH  24  26
ENDBRANCH   7  24
BRANCH   8  28
HETATM   28  C   UNK N   1      28.695  16.772   5.494  0.00  0.00     0.120 C 
BRANCH  28  29
HETATM   29  S   UNK N   1      28.160  17.664   3.984  0.00  0.00    -0.087 SA
BRANCH  29  30
HETATM   30  C   UNK N   1      27.259  19.099   4.584  0.00  0.00     0.172 A 
HETATM   31  N   UNK N   1      25.956  19.399   4.437  0.00  0.00    -0.254 N 
HETATM   32  N   UNK N   1      25.767  20.546   5.067  0.00  0.00    -0.004 NA
HETATM   33  N   UNK N   1      26.919  20.954   5.573  0.00  0.00    -0.007 NA
HETATM   34  N   UNK N   1      27.867  20.071   5.286  0.00  0.00    -0.265 N 
ATOM     35  HN  UNK N   1      28.851  20.118   5.547  1.00  0.00     0.186 HD
BRANCH  31  36
HETATM   36  C   UNK N   1      24.911  18.644   3.769  0.00  0.00     0.179 C 
BRANCH  36  37
HETATM   37  C   UNK N   1      23.592  19.406   3.748  0.00  0.00     0.292 C 
BRANCH  37  38
HETATM   38  N   UNK N   1      22.464  18.495   3.910  0.00  0.00     0.081 N 
HETATM   39  C   UNK N   1      21.283  19.200   3.447  0.00  0.00     0.309 C 
HETATM   40  C   UNK N   1      22.257  18.226   5.326  0.00  0.00     0.309 C 
ENDBRANCH  37  38
ENDBRANCH  36  37
ENDBRANCH  31  36
ENDBRANCH  29  30
ENDBRANCH  28  29
ENDBRANCH   8  28
TORSDOF 12
ENDMDL
MODEL 2
REMARK VINA RESULT:      -7.4      2.997     11.963
REMARK  12 active torsions:
REMARK  status: ('A' for Active; 'I' for Inactive)
REMARK    1  A    between atoms: S_2  and  C_25 
REMARK    2  A    between atoms: S_2  and  C_30 
REMARK    3  A    between atoms: O_5  and  C_26 
REMARK    4  A    between atoms: C_20  and  N_9 
REMARK       I    between atoms: N_9  and  C_27 
REMARK    5  A    between atoms: N_10  and  C_31 
REMARK    6  A    between atoms: N_11  and  C_32 
REMARK    7  A    between atoms: N_18  and  C_34 
REMARK    8  A    between atoms: C_22  and  C_26 
REMARK    9  A    between atoms: C_23  and  C_25 
REMARK   10  A    between atoms: C_27  and  C_28 
REMARK   11  A    between atoms: C_28  and  C_29 
REMARK   12  A    between atoms: C_31  and  C_32 
ROOT
HETATM    1  S   UNK N   1      29.148  17.153   4.403  0.00  0.00    -0.136 SA
HETATM    2  O   UNK N   1      27.384  20.252   7.003  0.00  0.00    -0.271 OA
HETATM    3  N   UNK N   1      28.296  18.199   6.615  0.00  0.00    -0.293 N 
HETATM    4  C   UNK N   1      27.793  17.399   5.550  0.00  0.00     0.187 A 
HETATM    5  C   UNK N   1      26.781  18.620   5.215  0.00  0.00     0.210 A 
HETATM    6  C   UNK N   1      27.460  19.182   6.419  0.00  0.00     0.251 A 
HETATM    7  C   UNK N   1      29.376  17.880   7.499  0.00  0.00     0.116 C 
HETATM    8  C   UNK N   1      30.252  16.895   7.083  0.00  0.00    -0.027 C 
HETATM    9  C   UNK N   1      30.114  16.267   5.696  0.00  0.00     0.113 C 
ENDROOT
BRANCH   5  10
HETATM   10  N   UNK N   1      25.372  18.274   5.385  0.00  0.00    -0.345 N 
HETATM   11  C   UNK N   1      24.328  18.631   4.588  0.00  0.00     0.224 C 
HETATM   12  O   UNK N   1      24.501  19.282   3.569  0.00  0.00    -0.273 OA
HETATM   13  H   UNK N   1      25.152  17.718   6.167  0.00  0.00     0.163 HD
BRANCH  11  14
HETATM   14  C   UNK N   1      22.938  18.235   4.985  0.00  0.00     0.160 C 
BRANCH  14  15
HETATM   15  C   UNK N   1      21.965  18.348   3.854  0.00  0.00     0.026 A 
HETATM   16  N   UNK N   1      21.736  19.539   3.193  0.00  0.00    -0.340 N 
HETATM   17  C   UNK N   1      20.834  19.393   2.200  0.00  0.00     0.142 A 
ATOM     18  HN  UNK N   1      22.193  20.421   3.427  1.00  0.00     0.168 HD
HETATM   19  S   UNK N   1      20.324  17.831   2.128  0.00  0.00    -0.064 SA
HETATM   20  C   UNK N   1      21.243  17.235   3.377  0.00  0.00     0.078 A 
BRANCH  17  21
HETATM   21  N   UNK N   1      20.414  20.440   1.356  0.00  0.00    -0.380 N 
HETATM   22  H   UNK N   1      19.505  20.811   1.315  0.00  0.00     0.158 HD
HETATM   23  H   UNK N   1      21.089  20.833   0.757  0.00  0.00     0.158 HD
ENDBRANCH  17  21
ENDBRANCH  14  15
ENDBRANCH  11  14
ENDBRANCH   5  10
BRANCH   7  24
HETATM   24  C   UNK N   1      29.440  18.568   8.829  0.00  0.00     0.194 C 
HETATM   25  O   UNK N   1      30.476  19.105   9.184  0.00  0.00    -0.645 OA
BRANCH  24  26
HETATM   26  O   UNK N   1      28.387  18.623   9.655  0.00  0.00    -0.772 OA
HETATM   27  H   UNK N   1      27.530  18.273   9.510  0.00  0.00     0.167 HD
ENDBRANCH  24  26
ENDBRANCH   7  24
BRANCH   8  28
HETATM   28  C   UNK N   1      31.295  16.189   7.938  0.00  0.00     0.120 C 
BRANCH  28  29
HETATM   29  S   UNK N   1      33.000  15.728   7.444  0.00  0.00    -0.087 SA
BRANCH  29  30
HETATM   30  C   UNK N   1      34.073  16.650   8.552  0.00  0.00     0.172 A 
HETATM   31  N   UNK N   1      34.516  16.307   9.775  0.00  0.00    -0.254 N 
HETATM   32  N   UNK N   1      35.289  17.301  10.181  0.00  0.00    -0.004 NA
HETATM   33  N   UNK N   1      35.310  18.239   9.248  0.00  0.00    -0.007 NA
HETATM   34  N   UNK N   1      34.560  17.858   8.221  0.00  0.00    -0.265 N 
ATOM     35  HN  UNK N   1      34.390  18.374   7.358  1.00  0.00     0.186 HD
BRANCH  31  36
HETATM   36  C   UNK N   1      34.266  15.096  10.535  0.00  0.00     0.179 C 
BRANCH  36  37
HETATM   37  C   UNK N   1      35.150  13.946  10.069  0.00  0.00     0.292 C 
BRANCH  37  38
HETATM   38  N   UNK N   1      35.774  13.278  11.205  0.00  0.00     0.081 N 
HETATM   39  C   UNK N   1      35.289  13.939  12.402  0.00  0.00     0.309 C 
HETATM   40  C   UNK N   1      37.213  13.497  11.166  0.00  0.00     0.309 C 
ENDBRANCH  37  38
ENDBRANCH  36  37
ENDBRANCH  31  36
ENDBRANCH  29  30
ENDBRANCH  28  29
ENDBRANCH   8  28
TORSDOF 12
ENDMDL
MODEL 3
REMARK VINA RESULT:      -7.2      1.741      2.512
REMARK  12 active torsions:
REMARK  status: ('A' for Active; 'I' for Inactive)
REMARK    1  A    between atoms: S_2  and  C_25 
REMARK    2  A    between atoms: S_2  and  C_30 
REMARK    3  A    between atoms: O_5  and  C_26 
REMARK    4  A    between atoms: C_20  and  N_9 
REMARK       I    between atoms: N_9  and  C_27 
REMARK    5  A    between atoms: N_10  and  C_31 
REMARK    6  A    between atoms: N_11  and  C_32 
REMARK    7  A    between atoms: N_18  and  C_34 
REMARK    8  A    between atoms: C_22  and  C_26 
REMARK    9  A    between atoms: C_23  and  C_25 
REMARK   10  A    between atoms: C_27  and  C_28 
REMARK   11  A    between atoms: C_28  and  C_29 
REMARK   12  A    between atoms: C_31  and  C_32 
ROOT
HETATM    1  S   UNK N   1      30.784  17.922   9.024  0.00  0.00    -0.136 SA
HETATM    2  O   UNK N   1      34.233  17.996   6.272  0.00  0.00    -0.271 OA
HETATM    3  N   UNK N   1      32.220  17.203   6.991  0.00  0.00    -0.293 N 
HETATM    4  C   UNK N   1      32.056  16.848   8.359  0.00  0.00     0.187 A 
HETATM    5  C   UNK N   1      33.589  17.324   8.586  0.00  0.00     0.210 A 
HETATM    6  C   UNK N   1      33.474  17.542   7.114  0.00  0.00     0.251 A 
HETATM    7  C   UNK N   1      31.227  17.156   5.961  0.00  0.00     0.116 C 
HETATM    8  C   UNK N   1      29.907  17.115   6.369  0.00  0.00    -0.027 C 
HETATM    9  C   UNK N   1      29.548  17.225   7.852  0.00  0.00     0.113 C 
ENDROOT
BRANCH   5  10
HETATM   10  N   UNK N   1      34.481  16.244   9.000  0.00  0.00    -0.345 N 
HETATM   11  C   UNK N   1      35.282  16.206  10.099  0.00  0.00     0.224 C 
HETATM   12  O   UNK N   1      35.292  17.119  10.910  0.00  0.00    -0.273 OA
HETATM   13  H   UNK N   1      34.504  15.452   8.416  0.00  0.00     0.163 HD
BRANCH  11  14
HETATM   14  C   UNK N   1      36.187  15.027  10.302  0.00  0.00     0.160 C 
BRANCH  14  15
HETATM   15  C   UNK N   1      36.021  14.403  11.652  0.00  0.00     0.026 A 
HETATM   16  N   UNK N   1      36.738  14.826  12.754  0.00  0.00    -0.340 N 
HETATM   17  C   UNK N   1      36.406  14.130  13.862  0.00  0.00     0.142 A 
ATOM     18  HN  UNK N   1      37.433  15.573  12.733  1.00  0.00     0.168 HD
HETATM   19  S   UNK N   1      35.252  13.015  13.502  0.00  0.00    -0.064 SA
HETATM   20  C   UNK N   1      35.098  13.362  11.884  0.00  0.00     0.078 A 
BRANCH  17  21
HETATM   21  N   UNK N   1      36.974  14.352  15.131  0.00  0.00    -0.380 N 
HETATM   22  H   UNK N   1      36.745  13.863  15.954  0.00  0.00     0.158 HD
HETATM   23  H   UNK N   1      37.658  15.056  15.201  0.00  0.00     0.158 HD
ENDBRANCH  17  21
ENDBRANCH  14  15
ENDBRANCH  11  14
ENDBRANCH   5  10
BRANCH   7  24
HETATM   24  C   UNK N   1      31.678  17.076   4.533  0.00  0.00     0.194 C 
HETATM   25  O   UNK N   1      32.172  16.044   4.111  0.00  0.00    -0.645 OA
BRANCH  24  26
HETATM   26  O   UNK N   1      31.554  18.107   3.688  0.00  0.00    -0.772 OA
HETATM   27  H   UNK N   1      31.573  19.021   3.896  0.00  0.00     0.167 HD
ENDBRANCH  24  26
ENDBRANCH   7  24
BRANCH   8  28
HETATM   28  C   UNK N   1      28.700  16.786   5.503  0.00  0.00     0.120 C 
BRANCH  28  29
HETATM   29  S   UNK N   1      26.981  16.487   6.071  0.00  0.00    -0.087 SA
BRANCH  29  30
HETATM   30  C   UNK N   1      25.968  17.617   5.109  0.00  0.00     0.172 A 
HETATM   31  N   UNK N   1      25.211  17.358   4.028  0.00  0.00    -0.254 N 
HETATM   32  N   UNK N   1      24.644  18.504   3.689  0.00  0.00    -0.004 NA
HETATM   33  N   UNK N   1      25.051  19.448   4.523  0.00  0.00    -0.007 NA
HETATM   34  N   UNK N   1      25.877  18.922   5.418  0.00  0.00    -0.265 N 
ATOM     35  HN  UNK N   1      26.344  19.407   6.183  1.00  0.00     0.186 HD
BRANCH  31  36
HETATM   36  C   UNK N   1      24.989  16.096   3.344  0.00  0.00     0.179 C 
BRANCH  36  37
HETATM   37  C   UNK N   1      26.075  15.814   2.314  0.00  0.00     0.292 C 
BRANCH  37  38
HETATM   38  N   UNK N   1      27.050  14.864   2.834  0.00  0.00     0.081 N 
HETATM   39  C   UNK N   1      28.200  14.911   1.950  0.00  0.00     0.309 C 
HETATM   40  C   UNK N   1      26.511  13.515   2.739  0.00  0.00     0.309 C 
ENDBRANCH  37  38
ENDBRANCH  36  37
ENDBRANCH  31  36
ENDBRANCH  29  30
ENDBRANCH  28  29
ENDBRANCH   8  28
TORSDOF 12
ENDMDL
MODEL 4
REMARK VINA RESULT:      -7.2      2.946     11.726
REMARK  12 active torsions:
REMARK  status: ('A' for Active; 'I' for Inactive)
REMARK    1  A    between atoms: S_2  and  C_25 
REMARK    2  A    between atoms: S_2  and  C_30 
REMARK    3  A    between atoms: O_5  and  C_26 
REMARK    4  A    between atoms: C_20  and  N_9 
REMARK       I    between atoms: N_9  and  C_27 
REMARK    5  A    between atoms: N_10  and  C_31 
REMARK    6  A    between atoms: N_11  and  C_32 
REMARK    7  A    between atoms: N_18  and  C_34 
REMARK    8  A    between atoms: C_22  and  C_26 
REMARK    9  A    between atoms: C_23  and  C_25 
REMARK   10  A    between atoms: C_27  and  C_28 
REMARK   11  A    between atoms: C_28  and  C_29 
REMARK   12  A    between atoms: C_31  and  C_32 
ROOT
HETATM    1  S   UNK N   1      30.853  17.260   4.967  0.00  0.00    -0.136 SA
HETATM    2  O   UNK N   1      27.545  19.641   6.661  0.00  0.00    -0.271 OA
HETATM    3  N   UNK N   1      28.982  17.871   6.653  0.00  0.00    -0.293 N 
HETATM    4  C   UNK N   1      29.138  17.101   5.466  0.00  0.00     0.187 A 
HETATM    5  C   UNK N   1      28.089  18.116   4.762  0.00  0.00     0.210 A 
HETATM    6  C   UNK N   1      28.090  18.677   6.146  0.00  0.00     0.251 A 
HETATM    7  C   UNK N   1      29.669  17.690   7.896  0.00  0.00     0.116 C 
HETATM    8  C   UNK N   1      30.839  16.955   7.861  0.00  0.00    -0.027 C 
HETATM    9  C   UNK N   1      31.407  16.461   6.530  0.00  0.00     0.113 C 
ENDROOT
BRANCH   5  10
HETATM   10  N   UNK N   1      26.848  17.472   4.340  0.00  0.00    -0.345 N 
HETATM   11  C   UNK N   1      25.745  18.066   3.807  0.00  0.00     0.224 C 
HETATM   12  O   UNK N   1      25.716  19.266   3.583  0.00  0.00    -0.273 OA
HETATM   13  H   UNK N   1      26.804  16.496   4.454  0.00  0.00     0.163 HD
BRANCH  11  14
HETATM   14  C   UNK N   1      24.537  17.229   3.511  0.00  0.00     0.160 C 
BRANCH  14  15
HETATM   15  C   UNK N   1      23.281  17.818   4.072  0.00  0.00     0.026 A 
HETATM   16  N   UNK N   1      22.553  18.782   3.401  0.00  0.00    -0.340 N 
HETATM   17  C   UNK N   1      21.452  19.146   4.092  0.00  0.00     0.142 A 
ATOM     18  HN  UNK N   1      22.816  19.170   2.495  1.00  0.00     0.168 HD
HETATM   19  S   UNK N   1      21.367  18.303   5.501  0.00  0.00    -0.064 SA
HETATM   20  C   UNK N   1      22.749  17.402   5.310  0.00  0.00     0.078 A 
BRANCH  17  21
HETATM   21  N   UNK N   1      20.524  20.106   3.644  0.00  0.00    -0.380 N 
HETATM   22  H   UNK N   1      20.134  20.824   4.192  0.00  0.00     0.158 HD
HETATM   23  H   UNK N   1      20.240  20.053   2.703  0.00  0.00     0.158 HD
ENDBRANCH  17  21
ENDBRANCH  14  15
ENDBRANCH  11  14
ENDBRANCH   5  10
BRANCH   7  24
HETATM   24  C   UNK N   1      29.044  18.234   9.145  0.00  0.00     0.194 C 
HETATM   25  O   UNK N   1      29.739  18.795   9.976  0.00  0.00    -0.645 OA
BRANCH  24  26
HETATM   26  O   UNK N   1      27.731  18.132   9.388  0.00  0.00    -0.772 OA
HETATM   27  H   UNK N   1      27.142  17.475   9.072  0.00  0.00     0.167 HD
ENDBRANCH  24  26
ENDBRANCH   7  24
BRANCH   8  28
HETATM   28  C   UNK N   1      31.593  16.393   9.058  0.00  0.00     0.120 C 
BRANCH  28  29
HETATM   29  S   UNK N   1      32.925  15.133   9.031  0.00  0.00    -0.087 SA
BRANCH  29  30
HETATM   30  C   UNK N   1      34.365  15.960   9.720  0.00  0.00     0.172 A 
HETATM   31  N   UNK N   1      35.522  15.422  10.146  0.00  0.00    -0.254 N 
HETATM   32  N   UNK N   1      36.274  16.434  10.548  0.00  0.00    -0.004 NA
HETATM   33  N   UNK N   1      35.598  17.561  10.393  0.00  0.00    -0.007 NA
HETATM   34  N   UNK N   1      34.404  17.294   9.879  0.00  0.00    -0.265 N 
ATOM     35  HN  UNK N   1      33.670  17.962   9.649  1.00  0.00     0.186 HD
BRANCH  31  36
HETATM   36  C   UNK N   1      35.939  14.032  10.155  0.00  0.00     0.179 C 
BRANCH  36  37
HETATM   37  C   UNK N   1      36.662  13.670  11.447  0.00  0.00     0.292 C 
BRANCH  37  38
HETATM   38  N   UNK N   1      35.956  12.609  12.157  0.00  0.00     0.081 N 
HETATM   39  C   UNK N   1      36.953  11.633  12.556  0.00  0.00     0.309 C 
HETATM   40  C   UNK N   1      35.055  11.928  11.239  0.00  0.00     0.309 C 
ENDBRANCH  37  38
ENDBRANCH  36  37
ENDBRANCH  31  36
ENDBRANCH  29  30
ENDBRANCH  28  29
ENDBRANCH   8  28
TORSDOF 12
ENDMDL
MODEL 5
REMARK VINA RESULT:      -7.1      2.889      4.282
REMARK  12 active torsions:
REMARK  status: ('A' for Active; 'I' for Inactive)
REMARK    1  A    between atoms: S_2  and  C_25 
REMARK    2  A    between atoms: S_2  and  C_30 
REMARK    3  A    between atoms: O_5  and  C_26 
REMARK    4  A    between atoms: C_20  and  N_9 
REMARK       I    between atoms: N_9  and  C_27 
REMARK    5  A    between atoms: N_10  and  C_31 
REMARK    6  A    between atoms: N_11  and  C_32 
REMARK    7  A    between atoms: N_18  and  C_34 
REMARK    8  A    between atoms: C_22  and  C_26 
REMARK    9  A    between atoms: C_23  and  C_25 
REMARK   10  A    between atoms: C_27  and  C_28 
REMARK   11  A    between atoms: C_28  and  C_29 
REMARK   12  A    between atoms: C_31  and  C_32 
ROOT
HETATM    1  S   UNK N   1      28.048  15.756   6.376  0.00  0.00    -0.136 SA
HETATM    2  O   UNK N   1      28.830  19.037   9.222  0.00  0.00    -0.271 OA
HETATM    3  N   UNK N   1      28.458  18.199   7.135  0.00  0.00    -0.293 N 
HETATM    4  C   UNK N   1      29.216  17.081   6.684  0.00  0.00     0.187 A 
HETATM    5  C   UNK N   1      29.934  17.081   8.136  0.00  0.00     0.210 A 
HETATM    6  C   UNK N   1      29.052  18.274   8.294  0.00  0.00     0.251 A 
HETATM    7  C   UNK N   1      27.419  18.882   6.424  0.00  0.00     0.116 C 
HETATM    8  C   UNK N   1      26.834  18.203   5.372  0.00  0.00    -0.027 C 
HETATM    9  C   UNK N   1      27.221  16.755   5.069  0.00  0.00     0.113 C 
ENDROOT
BRANCH   5  10
HETATM   10  N   UNK N   1      31.368  17.356   8.078  0.00  0.00    -0.345 N 
HETATM   11  C   UNK N   1      32.377  16.614   8.611  0.00  0.00     0.224 C 
HETATM   12  O   UNK N   1      32.154  15.560   9.187  0.00  0.00    -0.273 OA
HETATM   13  H   UNK N   1      31.635  18.172   7.598  0.00  0.00     0.163 HD
BRANCH  11  14
HETATM   14  C   UNK N   1      33.786  17.116   8.506  0.00  0.00     0.160 C 
BRANCH  14  15
HETATM   15  C   UNK N   1      34.752  16.277   9.282  0.00  0.00     0.026 A 
HETATM   16  N   UNK N   1      34.885  16.382  10.653  0.00  0.00    -0.340 N 
HETATM   17  C   UNK N   1      35.801  15.514  11.132  0.00  0.00     0.142 A 
ATOM     18  HN  UNK N   1      34.357  17.035  11.231  1.00  0.00     0.168 HD
HETATM   19  S   UNK N   1      36.438  14.630   9.900  0.00  0.00    -0.064 SA
HETATM   20  C   UNK N   1      35.565  15.307   8.660  0.00  0.00     0.078 A 
BRANCH  17  21
HETATM   21  N   UNK N   1      36.138  15.396  12.495  0.00  0.00    -0.380 N 
HETATM   22  H   UNK N   1      37.023  15.149  12.846  0.00  0.00     0.158 HD
HETATM   23  H   UNK N   1      35.427  15.577  13.151  0.00  0.00     0.158 HD
ENDBRANCH  17  21
ENDBRANCH  14  15
ENDBRANCH  11  14
ENDBRANCH   5  10
BRANCH   7  24
HETATM   24  C   UNK N   1      27.093  20.292   6.813  0.00  0.00     0.194 C 
HETATM   25  O   UNK N   1      27.523  21.219   6.146  0.00  0.00    -0.645 OA
BRANCH  24  26
HETATM   26  O   UNK N   1      26.333  20.581   7.877  0.00  0.00    -0.772 OA
HETATM   27  H   UNK N   1      25.413  20.435   7.977  0.00  0.00     0.167 HD
ENDBRANCH  24  26
ENDBRANCH   7  24
BRANCH   8  28
HETATM   28  C   UNK N   1      25.924  18.795   4.305  0.00  0.00     0.120 C 
BRANCH  28  29
HETATM   29  S   UNK N   1      24.298  18.146   3.756  0.00  0.00    -0.087 SA
BRANCH  29  30
HETATM   30  C   UNK N   1      23.317  19.604   3.379  0.00  0.00     0.172 A 
HETATM   31  N   UNK N   1      21.979  19.739   3.364  0.00  0.00    -0.254 N 
HETATM   32  N   UNK N   1      21.737  21.000   3.047  0.00  0.00    -0.004 NA
HETATM   33  N   UNK N   1      22.888  21.623   2.853  0.00  0.00    -0.007 NA
HETATM   34  N   UNK N   1      23.889  20.776   3.053  0.00  0.00    -0.265 N 
ATOM     35  HN  UNK N   1      24.887  20.973   2.978  1.00  0.00     0.186 HD
BRANCH  31  36
HETATM   36  C   UNK N   1      20.954  18.754   3.662  0.00  0.00     0.179 C 
BRANCH  36  37
HETATM   37  C   UNK N   1      20.152  18.383   2.420  0.00  0.00     0.292 C 
BRANCH  37  38
HETATM   38  N   UNK N   1      20.653  17.148   1.829  0.00  0.00     0.081 N 
HETATM   39  C   UNK N   1      19.964  16.977   0.563  0.00  0.00     0.309 C 
HETATM   40  C   UNK N   1      20.268  16.019   2.665  0.00  0.00     0.309 C 
ENDBRANCH  37  38
ENDBRANCH  36  37
ENDBRANCH  31  36
ENDBRANCH  29  30
ENDBRANCH  28  29
ENDBRANCH   8  28
TORSDOF 12
ENDMDL
MODEL 6
REMARK VINA RESULT:      -7.1      7.559     11.119
REMARK  12 active torsions:
REMARK  status: ('A' for Active; 'I' for Inactive)
REMARK    1  A    between atoms: S_2  and  C_25 
REMARK    2  A    between atoms: S_2  and  C_30 
REMARK    3  A    between atoms: O_5  and  C_26 
REMARK    4  A    between atoms: C_20  and  N_9 
REMARK       I    between atoms: N_9  and  C_27 
REMARK    5  A    between atoms: N_10  and  C_31 
REMARK    6  A    between atoms: N_11  and  C_32 
REMARK    7  A    between atoms: N_18  and  C_34 
REMARK    8  A    between atoms: C_22  and  C_26 
REMARK    9  A    between atoms: C_23  and  C_25 
REMARK   10  A    between atoms: C_27  and  C_28 
REMARK   11  A    between atoms: C_28  and  C_29 
REMARK   12  A    between atoms: C_31  and  C_32 
ROOT
HETATM    1  S   UNK N   1      20.966  17.119   5.620  0.00  0.00    -0.136 SA
HETATM    2  O   UNK N   1      20.914  19.473   1.887  0.00  0.00    -0.271 OA
HETATM    3  N   UNK N   1      21.153  17.539   3.070  0.00  0.00    -0.293 N 
HETATM    4  C   UNK N   1      22.003  17.517   4.212  0.00  0.00     0.187 A 
HETATM    5  C   UNK N   1      22.275  19.092   3.943  0.00  0.00     0.210 A 
HETATM    6  C   UNK N   1      21.389  18.789   2.780  0.00  0.00     0.251 A 
HETATM    7  C   UNK N   1      20.364  16.459   2.559  0.00  0.00     0.116 C 
HETATM    8  C   UNK N   1      20.102  15.415   3.426  0.00  0.00    -0.027 C 
HETATM    9  C   UNK N   1      20.553  15.483   4.885  0.00  0.00     0.113 C 
ENDROOT
BRANCH   5  10
HETATM   10  N   UNK N   1      23.666  19.396   3.618  0.00  0.00    -0.345 N 
HETATM   11  C   UNK N   1      24.166  20.560   3.121  0.00  0.00     0.224 C 
HETATM   12  O   UNK N   1      23.448  21.530   2.931  0.00  0.00    -0.273 OA
HETATM   13  H   UNK N   1      24.318  18.676   3.778  0.00  0.00     0.163 HD
BRANCH  11  14
HETATM   14  C   UNK N   1      25.624  20.642   2.780  0.00  0.00     0.160 C 
BRANCH  14  15
HETATM   15  C   UNK N   1      26.502  20.189   3.905  0.00  0.00     0.026 A 
HETATM   16  N   UNK N   1      27.500  19.250   3.730  0.00  0.00    -0.340 N 
HETATM   17  C   UNK N   1      28.170  19.015   4.878  0.00  0.00     0.142 A 
ATOM     18  HN  UNK N   1      27.705  18.791   2.842  1.00  0.00     0.168 HD
HETATM   19  S   UNK N   1      27.554  19.942   6.089  0.00  0.00    -0.064 SA
HETATM   20  C   UNK N   1      26.379  20.716   5.207  0.00  0.00     0.078 A 
BRANCH  17  21
HETATM   21  N   UNK N   1      29.242  18.109   4.993  0.00  0.00    -0.380 N 
HETATM   22  H   UNK N   1      29.160  17.144   5.165  0.00  0.00     0.158 HD
HETATM   23  H   UNK N   1      30.151  18.473   4.894  0.00  0.00     0.158 HD
ENDBRANCH  17  21
ENDBRANCH  14  15
ENDBRANCH  11  14
ENDBRANCH   5  10
BRANCH   7  24
HETATM   24  C   UNK N   1      19.946  16.495   1.120  0.00  0.00     0.194 C 
HETATM   25  O   UNK N   1      20.580  15.866   0.290  0.00  0.00    -0.645 OA
BRANCH  24  26
HETATM   26  O   UNK N   1      18.885  17.198   0.703  0.00  0.00    -0.772 OA
HETATM   27  H   UNK N   1      18.751  17.581  -0.141  0.00  0.00     0.167 HD
ENDBRANCH  24  26
ENDBRANCH   7  24
BRANCH   8  28
HETATM   28  C   UNK N   1      19.538  14.050   3.056  0.00  0.00     0.120 C 
BRANCH  28  29
HETATM   29  S   UNK N   1      20.489  12.542   2.623  0.00  0.00    -0.087 SA
BRANCH  29  30
HETATM   30  C   UNK N   1      21.926  13.139   1.722  0.00  0.00     0.172 A 
HETATM   31  N   UNK N   1      23.077  13.637   2.207  0.00  0.00    -0.254 N 
HETATM   32  N   UNK N   1      23.829  13.920   1.156  0.00  0.00    -0.004 NA
HETATM   33  N   UNK N   1      23.159  13.624   0.055  0.00  0.00    -0.007 NA
HETATM   34  N   UNK N   1      21.968  13.135   0.379  0.00  0.00    -0.265 N 
ATOM     35  HN  UNK N   1      21.238  12.819  -0.258  1.00  0.00     0.186 HD
BRANCH  31  36
HETATM   36  C   UNK N   1      23.489  13.819   3.587  0.00  0.00     0.179 C 
BRANCH  36  37
HETATM   37  C   UNK N   1      24.967  14.177   3.691  0.00  0.00     0.292 C 
BRANCH  37  38
HETATM   38  N   UNK N   1      25.139  15.518   4.238  0.00  0.00     0.081 N 
HETATM   39  C   UNK N   1      25.545  16.374   3.138  0.00  0.00     0.309 C 
HETATM   40  C   UNK N   1      26.241  15.516   5.189  0.00  0.00     0.309 C 
ENDBRANCH  37  38
ENDBRANCH  36  37
ENDBRANCH  31  36
ENDBRANCH  29  30
ENDBRANCH  28  29
ENDBRANCH   8  28
TORSDOF 12
ENDMDL
MODEL 7
REMARK VINA RESULT:      -7.0      1.497      1.869
REMARK  12 active torsions:
REMARK  status: ('A' for Active; 'I' for Inactive)
REMARK    1  A    between atoms: S_2  and  C_25 
REMARK    2  A    between atoms: S_2  and  C_30 
REMARK    3  A    between atoms: O_5  and  C_26 
REMARK    4  A    between atoms: C_20  and  N_9 
REMARK       I    between atoms: N_9  and  C_27 
REMARK    5  A    between atoms: N_10  and  C_31 
REMARK    6  A    between atoms: N_11  and  C_32 
REMARK    7  A    between atoms: N_18  and  C_34 
REMARK    8  A    between atoms: C_22  and  C_26 
REMARK    9  A    between atoms: C_23  and  C_25 
REMARK   10  A    between atoms: C_27  and  C_28 
REMARK   11  A    between atoms: C_28  and  C_29 
REMARK   12  A    between atoms: C_31  and  C_32 
ROOT
HETATM    1  S   UNK N   1      30.662  17.941   9.077  0.00  0.00    -0.136 SA
HETATM    2  O   UNK N   1      34.168  17.928   6.397  0.00  0.00    -0.271 OA
HETATM    3  N   UNK N   1      32.110  17.205   7.058  0.00  0.00    -0.293 N 
HETATM    4  C   UNK N   1      31.902  16.828   8.415  0.00  0.00     0.187 A 
HETATM    5  C   UNK N   1      33.448  17.235   8.682  0.00  0.00     0.210 A 
HETATM    6  C   UNK N   1      33.374  17.488   7.213  0.00  0.00     0.251 A 
HETATM    7  C   UNK N   1      31.137  17.221   6.007  0.00  0.00     0.116 C 
HETATM    8  C   UNK N   1      29.808  17.228   6.388  0.00  0.00    -0.027 C 
HETATM    9  C   UNK N   1      29.423  17.321   7.865  0.00  0.00     0.113 C 
ENDROOT
BRANCH   5  10
HETATM   10  N   UNK N   1      34.285  16.110   9.091  0.00  0.00    -0.345 N 
HETATM   11  C   UNK N   1      35.150  16.057  10.140  0.00  0.00     0.224 C 
HETATM   12  O   UNK N   1      35.276  16.999  10.907  0.00  0.00    -0.273 OA
HETATM   13  H   UNK N   1      34.215  15.295   8.543  0.00  0.00     0.163 HD
BRANCH  11  14
HETATM   14  C   UNK N   1      35.979  14.824  10.341  0.00  0.00     0.160 C 
BRANCH  14  15
HETATM   15  C   UNK N   1      35.911  14.311  11.745  0.00  0.00     0.026 A 
HETATM   16  N   UNK N   1      36.678  14.842  12.763  0.00  0.00    -0.340 N 
HETATM   17  C   UNK N   1      36.433  14.232  13.942  0.00  0.00     0.142 A 
ATOM     18  HN  UNK N   1      37.348  15.601  12.639  1.00  0.00     0.168 HD
HETATM   19  S   UNK N   1      35.294  13.062  13.745  0.00  0.00    -0.064 SA
HETATM   20  C   UNK N   1      35.036  13.270  12.117  0.00  0.00     0.078 A 
BRANCH  17  21
HETATM   21  N   UNK N   1      37.067  14.572  15.152  0.00  0.00    -0.380 N 
HETATM   22  H   UNK N   1      37.235  13.959  15.903  0.00  0.00     0.158 HD
HETATM   23  H   UNK N   1      37.369  15.504  15.256  0.00  0.00     0.158 HD
ENDBRANCH  17  21
ENDBRANCH  14  15
ENDBRANCH  11  14
ENDBRANCH   5  10
BRANCH   7  24
HETATM   24  C   UNK N   1      31.614  17.153   4.587  0.00  0.00     0.194 C 
HETATM   25  O   UNK N   1      32.054  16.104   4.147  0.00  0.00    -0.645 OA
BRANCH  24  26
HETATM   26  O   UNK N   1      31.572  18.213   3.770  0.00  0.00    -0.772 OA
HETATM   27  H   UNK N   1      30.947  18.910   3.772  0.00  0.00     0.167 HD
ENDBRANCH  24  26
ENDBRANCH   7  24
BRANCH   8  28
HETATM   28  C   UNK N   1      28.607  16.968   5.491  0.00  0.00     0.120 C 
BRANCH  28  29
HETATM   29  S   UNK N   1      27.143  18.050   5.264  0.00  0.00    -0.087 SA
BRANCH  29  30
HETATM   30  C   UNK N   1      25.796  16.933   4.849  0.00  0.00     0.172 A 
HETATM   31  N   UNK N   1      24.620  17.214   4.260  0.00  0.00    -0.254 N 
HETATM   32  N   UNK N   1      23.976  16.063   4.153  0.00  0.00    -0.004 NA
HETATM   33  N   UNK N   1      24.721  15.103   4.677  0.00  0.00    -0.007 NA
HETATM   34  N   UNK N   1      25.861  15.618   5.118  0.00  0.00    -0.265 N 
ATOM     35  HN  UNK N   1      26.629  15.119   5.567  1.00  0.00     0.186 HD
BRANCH  31  36
HETATM   36  C   UNK N   1      24.115  18.487   3.780  0.00  0.00     0.179 C 
BRANCH  36  37
HETATM   37  C   UNK N   1      22.669  18.715   4.204  0.00  0.00     0.292 C 
BRANCH  37  38
HETATM   38  N   UNK N   1      21.843  19.077   3.059  0.00  0.00     0.081 N 
HETATM   39  C   UNK N   1      22.202  20.435   2.692  0.00  0.00     0.309 C 
HETATM   40  C   UNK N   1      20.444  19.115   3.462  0.00  0.00     0.309 C 
ENDBRANCH  37  38
ENDBRANCH  36  37
ENDBRANCH  31  36
ENDBRANCH  29  30
ENDBRANCH  28  29
ENDBRANCH   8  28
TORSDOF 12
ENDMDL
MODEL 8
REMARK VINA RESULT:      -7.0      2.596     11.256
REMARK  12 active torsions:
REMARK  status: ('A' for Active; 'I' for Inactive)
REMARK    1  A    between atoms: S_2  and  C_25 
REMARK    2  A    between atoms: S_2  and  C_30 
REMARK    3  A    between atoms: O_5  and  C_26 
REMARK    4  A    between atoms: C_20  and  N_9 
REMARK       I    between atoms: N_9  and  C_27 
REMARK    5  A    between atoms: N_10  and  C_31 
REMARK    6  A    between atoms: N_11  and  C_32 
REMARK    7  A    between atoms: N_18  and  C_34 
REMARK    8  A    between atoms: C_22  and  C_26 
REMARK    9  A    between atoms: C_23  and  C_25 
REMARK   10  A    between atoms: C_27  and  C_28 
REMARK   11  A    between atoms: C_28  and  C_29 
REMARK   12  A    between atoms: C_31  and  C_32 
ROOT
HETATM    1  S   UNK N   1      34.796  14.995   5.991  0.00  0.00    -0.136 SA
HETATM    2  O   UNK N   1      33.427  18.327   8.539  0.00  0.00    -0.271 OA
HETATM    3  N   UNK N   1      34.084  16.174   8.186  0.00  0.00    -0.293 N 
HETATM    4  C   UNK N   1      33.485  15.421   7.136  0.00  0.00     0.187 A 
HETATM    5  C   UNK N   1      32.625  16.749   6.782  0.00  0.00     0.210 A 
HETATM    6  C   UNK N   1      33.372  17.246   7.974  0.00  0.00     0.251 A 
HETATM    7  C   UNK N   1      35.123  15.743   9.073  0.00  0.00     0.116 C 
HETATM    8  C   UNK N   1      35.872  14.653   8.672  0.00  0.00    -0.027 C 
HETATM    9  C   UNK N   1      35.654  14.022   7.296  0.00  0.00     0.113 C 
ENDROOT
BRANCH   5  10
HETATM   10  N   UNK N   1      31.186  16.578   6.961  0.00  0.00    -0.345 N 
HETATM   11  C   UNK N   1      30.190  17.020   6.146  0.00  0.00     0.224 C 
HETATM   12  O   UNK N   1      30.436  17.602   5.101  0.00  0.00    -0.273 OA
HETATM   13  H   UNK N   1      30.903  16.085   7.765  0.00  0.00     0.163 HD
BRANCH  11  14
HETATM   14  C   UNK N   1      28.763  16.806   6.554  0.00  0.00     0.160 C 
BRANCH  14  15
HETATM   15  C   UNK N   1      27.868  17.920   6.113  0.00  0.00     0.026 A 
HETATM   16  N   UNK N   1      28.069  19.229   6.506  0.00  0.00    -0.340 N 
HETATM   17  C   UNK N   1      27.149  20.058   5.969  0.00  0.00     0.142 A 
ATOM     18  HN  UNK N   1      28.820  19.531   7.127  1.00  0.00     0.168 HD
HETATM   19  S   UNK N   1      26.106  19.206   5.025  0.00  0.00    -0.064 SA
HETATM   20  C   UNK N   1      26.779  17.703   5.243  0.00  0.00     0.078 A 
BRANCH  17  21
HETATM   21  N   UNK N   1      27.115  21.448   6.193  0.00  0.00    -0.380 N 
HETATM   22  H   UNK N   1      27.236  22.142   5.506  0.00  0.00     0.158 HD
HETATM   23  H   UNK N   1      26.957  21.751   7.116  0.00  0.00     0.158 HD
ENDBRANCH  17  21
ENDBRANCH  14  15
ENDBRANCH  11  14
ENDBRANCH   5  10
BRANCH   7  24
HETATM   24  C   UNK N   1      35.274  16.442  10.391  0.00  0.00     0.194 C 
HETATM   25  O   UNK N   1      35.956  17.450  10.465  0.00  0.00    -0.645 OA
BRANCH  24  26
HETATM   26  O   UNK N   1      34.679  15.999  11.505  0.00  0.00    -0.772 OA
HETATM   27  H   UNK N   1      34.651  16.419  12.342  0.00  0.00     0.167 HD
ENDBRANCH  24  26
ENDBRANCH   7  24
BRANCH   8  28
HETATM   28  C   UNK N   1      36.827  13.842   9.537  0.00  0.00     0.120 C 
BRANCH  28  29
HETATM   29  S   UNK N   1      36.407  12.405  10.598  0.00  0.00    -0.087 SA
BRANCH  29  30
HETATM   30  C   UNK N   1      36.098  13.101  12.226  0.00  0.00     0.172 A 
HETATM   31  N   UNK N   1      35.255  12.669  13.181  0.00  0.00    -0.254 N 
HETATM   32  N   UNK N   1      35.396  13.499  14.202  0.00  0.00    -0.004 NA
HETATM   33  N   UNK N   1      36.284  14.426  13.883  0.00  0.00    -0.007 NA
HETATM   34  N   UNK N   1      36.738  14.202  12.657  0.00  0.00    -0.265 N 
ATOM     35  HN  UNK N   1      37.430  14.750  12.147  1.00  0.00     0.186 HD
BRANCH  31  36
HETATM   36  C   UNK N   1      34.372  11.517  13.173  0.00  0.00     0.179 C 
BRANCH  36  37
HETATM   37  C   UNK N   1      34.909  10.389  14.046  0.00  0.00     0.292 C 
BRANCH  37  38
HETATM   38  N   UNK N   1      35.212   9.210  13.244  0.00  0.00     0.081 N 
HETATM   39  C   UNK N   1      36.622   9.282  12.904  0.00  0.00     0.309 C 
HETATM   40  C   UNK N   1      34.481   9.278  11.987  0.00  0.00     0.309 C 
ENDBRANCH  37  38
ENDBRANCH  36  37
ENDBRANCH  31  36
ENDBRANCH  29  30
ENDBRANCH  28  29
ENDBRANCH   8  28
TORSDOF 12
ENDMDL
MODEL 9
REMARK VINA RESULT:      -6.9      4.430     10.906
REMARK  12 active torsions:
REMARK  status: ('A' for Active; 'I' for Inactive)
REMARK    1  A    between atoms: S_2  and  C_25 
REMARK    2  A    between atoms: S_2  and  C_30 
REMARK    3  A    between atoms: O_5  and  C_26 
REMARK    4  A    between atoms: C_20  and  N_9 
REMARK       I    between atoms: N_9  and  C_27 
REMARK    5  A    between atoms: N_10  and  C_31 
REMARK    6  A    between atoms: N_11  and  C_32 
REMARK    7  A    between atoms: N_18  and  C_34 
REMARK    8  A    between atoms: C_22  and  C_26 
REMARK    9  A    between atoms: C_23  and  C_25 
REMARK   10  A    between atoms: C_27  and  C_28 
REMARK   11  A    between atoms: C_28  and  C_29 
REMARK   12  A    between atoms: C_31  and  C_32 
ROOT
HETATM    1  S   UNK N   1      37.955  13.367   9.386  0.00  0.00    -0.136 SA
HETATM    2  O   UNK N   1      35.150  16.105  11.412  0.00  0.00    -0.271 OA
HETATM    3  N   UNK N   1      36.103  14.065  11.058  0.00  0.00    -0.293 N 
HETATM    4  C   UNK N   1      36.207  13.562   9.730  0.00  0.00     0.187 A 
HETATM    5  C   UNK N   1      35.527  14.947   9.235  0.00  0.00     0.210 A 
HETATM    6  C   UNK N   1      35.500  15.169  10.711  0.00  0.00     0.251 A 
HETATM    7  C   UNK N   1      36.572  13.440  12.258  0.00  0.00     0.116 C 
HETATM    8  C   UNK N   1      37.524  12.449  12.113  0.00  0.00    -0.027 C 
HETATM    9  C   UNK N   1      38.109  12.127  10.737  0.00  0.00     0.113 C 
ENDROOT
BRANCH   5  10
HETATM   10  N   UNK N   1      34.226  14.764   8.597  0.00  0.00    -0.345 N 
HETATM   11  C   UNK N   1      33.523  15.675   7.870  0.00  0.00     0.224 C 
HETATM   12  O   UNK N   1      33.973  16.786   7.638  0.00  0.00    -0.273 OA
HETATM   13  H   UNK N   1      33.809  13.880   8.706  0.00  0.00     0.163 HD
BRANCH  11  14
HETATM   14  C   UNK N   1      32.160  15.309   7.364  0.00  0.00     0.160 C 
BRANCH  14  15
HETATM   15  C   UNK N   1      31.126  16.333   7.713  0.00  0.00     0.026 A 
HETATM   16  N   UNK N   1      31.115  16.986   8.930  0.00  0.00    -0.340 N 
HETATM   17  C   UNK N   1      30.103  17.876   9.009  0.00  0.00     0.142 A 
ATOM     18  HN  UNK N   1      31.788  16.815   9.677  1.00  0.00     0.168 HD
HETATM   19  S   UNK N   1      29.235  17.867   7.613  0.00  0.00    -0.064 SA
HETATM   20  C   UNK N   1      30.116  16.713   6.806  0.00  0.00     0.078 A 
BRANCH  17  21
HETATM   21  N   UNK N   1      29.854  18.687  10.133  0.00  0.00    -0.380 N 
HETATM   22  H   UNK N   1      29.361  18.412  10.939  0.00  0.00     0.158 HD
HETATM   23  H   UNK N   1      30.202  19.607  10.110  0.00  0.00     0.158 HD
ENDBRANCH  17  21
ENDBRANCH  14  15
ENDBRANCH  11  14
ENDBRANCH   5  10
BRANCH   7  24
HETATM   24  C   UNK N   1      35.954  13.842  13.563  0.00  0.00     0.194 C 
HETATM   25  O   UNK N   1      36.569  14.569  14.325  0.00  0.00    -0.645 OA
BRANCH  24  26
HETATM   26  O   UNK N   1      34.733  13.433  13.929  0.00  0.00    -0.772 OA
HETATM   27  H   UNK N   1      33.911  13.831  13.718  0.00  0.00     0.167 HD
ENDBRANCH  24  26
ENDBRANCH   7  24
BRANCH   8  28
HETATM   28  C   UNK N   1      37.970  11.458  13.179  0.00  0.00     0.120 C 
BRANCH  28  29
HETATM   29  S   UNK N   1      37.198   9.844  13.580  0.00  0.00    -0.087 SA
BRANCH  29  30
HETATM   30  C   UNK N   1      35.450  10.203  13.797  0.00  0.00     0.172 A 
HETATM   31  N   UNK N   1      34.485  10.285  12.864  0.00  0.00    -0.254 N 
HETATM   32  N   UNK N   1      33.364  10.553  13.514  0.00  0.00    -0.004 NA
HETATM   33  N   UNK N   1      33.629  10.652  14.806  0.00  0.00    -0.007 NA
HETATM   34  N   UNK N   1      34.923  10.438  15.010  0.00  0.00    -0.265 N 
ATOM     35  HN  UNK N   1      35.415  10.448  15.903  1.00  0.00     0.186 HD
BRANCH  31  36
HETATM   36  C   UNK N   1      34.578  10.094  11.428  0.00  0.00     0.179 C 
BRANCH  36  37
HETATM   37  C   UNK N   1      33.407   9.279  10.891  0.00  0.00     0.292 C 
BRANCH  37  38
HETATM   38  N   UNK N   1      32.566  10.091  10.019  0.00  0.00     0.081 N 
HETATM   39  C   UNK N   1      32.071   9.215   8.974  0.00  0.00     0.309 C 
HETATM   40  C   UNK N   1      33.383  11.100   9.360  0.00  0.00     0.309 C 
ENDBRANCH  37  38
ENDBRANCH  36  37
ENDBRANCH  31  36
ENDBRANCH  29  30
ENDBRANCH  28  29
ENDBRANCH   8  28
TORSDOF 12
ENDMDL
