MODEL 1
REMARK VINA RESULT:      -4.3      0.000      0.000
REMARK  7 active torsions:
REMARK  status: ('A' for Active; 'I' for Inactive)
REMARK    1  A    between atoms: O_1  and  C_11 
REMARK    2  A    between atoms: N_3  and  C_8 
REMARK    3  A    between atoms: C_4  and  C_5 
REMARK    4  A    between atoms: C_4  and  C_7 
REMARK    5  A    between atoms: C_4  and  C_8 
REMARK    6  A    between atoms: C_5  and  C_6 
REMARK    7  A    between atoms: C_7  and  C_11 
ROOT
HETATM    1  C   UNK N   1      32.192  17.116   8.619  0.00  0.00     0.013 C 
ENDROOT
BRANCH   1   2
HETATM    2  C   UNK N   1      30.956  17.558   7.833  0.00  0.00     0.010 C 
BRANCH   2   3
HETATM    3  C   UNK N   1      29.670  17.530   8.654  0.00  0.00    -0.022 C 
HETATM    4  C   UNK N   1      28.499  17.790   7.731  0.00  0.00     0.009 C 
HETATM    5  C   UNK N   1      29.674  18.596   9.735  0.00  0.00     0.009 C 
ENDBRANCH   2   3
ENDBRANCH   1   2
BRANCH   1   6
HETATM    6  C   UNK N   1      33.450  17.424   7.808  0.00  0.00     0.116 C 
BRANCH   6   7
HETATM    7  C   UNK N   1      34.544  18.035   8.630  0.00  0.00     0.139 C 
HETATM    8  O   UNK N   1      35.037  19.103   8.308  0.00  0.00    -0.650 OA
BRANCH   7   9
HETATM    9  O   UNK N   1      34.952  17.421   9.756  0.00  0.00    -0.776 OA
HETATM   10  H   UNK N   1      35.678  17.722  10.267  0.00  0.00     0.167 HD
ENDBRANCH   7   9
ENDBRANCH   6   7
ENDBRANCH   1   6
BRANCH   1  11
HETATM   11  C   UNK N   1      32.121  15.610   8.848  0.00  0.00     0.116 C 
BRANCH  11  12
HETATM   12  N   UNK N   1      32.653  15.260  10.155  0.00  0.00    -0.430 N 
HETATM   13  H   UNK N   1      32.232  14.658  10.863  0.00  0.00     0.149 HD
HETATM   14  H   UNK N   1      33.558  15.666  10.393  0.00  0.00     0.149 HD
ENDBRANCH  11  12
ENDBRANCH   1  11
TORSDOF 7
ENDMDL
MODEL 2
REMARK VINA RESULT:      -4.2     11.599     13.172
REMARK  7 active torsions:
REMARK  status: ('A' for Active; 'I' for Inactive)
REMARK    1  A    between atoms: O_1  and  C_11 
REMARK    2  A    between atoms: N_3  and  C_8 
REMARK    3  A    between atoms: C_4  and  C_5 
REMARK    4  A    between atoms: C_4  and  C_7 
REMARK    5  A    between atoms: C_4  and  C_8 
REMARK    6  A    between atoms: C_5  and  C_6 
REMARK    7  A    between atoms: C_7  and  C_11 
ROOT
HETATM    1  C   UNK N   1      20.734  18.252   2.538  0.00  0.00     0.013 C 
ENDROOT
BRANCH   1   2
HETATM    2  C   UNK N   1      20.532  17.831   3.994  0.00  0.00     0.010 C 
BRANCH   2   3
HETATM    3  C   UNK N   1      21.457  18.551   4.971  0.00  0.00    -0.022 C 
HETATM    4  C   UNK N   1      22.885  18.398   4.491  0.00  0.00     0.009 C 
HETATM    5  C   UNK N   1      21.358  17.967   6.369  0.00  0.00     0.009 C 
ENDBRANCH   2   3
ENDBRANCH   1   2
BRANCH   1   6
HETATM    6  C   UNK N   1      20.093  19.619   2.306  0.00  0.00     0.116 C 
BRANCH   6   7
HETATM    7  C   UNK N   1      21.052  20.635   1.767  0.00  0.00     0.139 C 
HETATM    8  O   UNK N   1      21.308  20.675   0.575  0.00  0.00    -0.650 OA
BRANCH   7   9
HETATM    9  O   UNK N   1      21.600  21.540   2.600  0.00  0.00    -0.776 OA
HETATM   10  H   UNK N   1      21.106  21.998   3.253  0.00  0.00     0.167 HD
ENDBRANCH   7   9
ENDBRANCH   6   7
ENDBRANCH   1   6
BRANCH   1  11
HETATM   11  C   UNK N   1      20.050  17.236   1.629  0.00  0.00     0.116 C 
BRANCH  11  12
HETATM   12  N   UNK N   1      20.042  17.698   0.251  0.00  0.00    -0.430 N 
HETATM   13  H   UNK N   1      20.666  17.423  -0.508  0.00  0.00     0.149 HD
HETATM   14  H   UNK N   1      19.322  18.381   0.012  0.00  0.00     0.149 HD
ENDBRANCH  11  12
ENDBRANCH   1  11
TORSDOF 7
ENDMDL
MODEL 3
REMARK VINA RESULT:      -4.2      8.952     10.206
REMARK  7 active torsions:
REMARK  status: ('A' for Active; 'I' for Inactive)
REMARK    1  A    between atoms: O_1  and  C_11 
REMARK    2  A    between atoms: N_3  and  C_8 
REMARK    3  A    between atoms: C_4  and  C_5 
REMARK    4  A    between atoms: C_4  and  C_7 
REMARK    5  A    between atoms: C_4  and  C_8 
REMARK    6  A    between atoms: C_5  and  C_6 
REMARK    7  A    between atoms: C_7  and  C_11 
ROOT
HETATM    1  C   UNK N   1      36.194  12.950  15.970  0.00  0.00     0.013 C 
ENDROOT
BRANCH   1   2
HETATM    2  C   UNK N   1      35.975  11.526  15.455  0.00  0.00     0.010 C 
BRANCH   2   3
HETATM    3  C   UNK N   1      34.623  10.938  15.847  0.00  0.00    -0.022 C 
HETATM    4  C   UNK N   1      34.852   9.611  16.538  0.00  0.00     0.009 C 
HETATM    5  C   UNK N   1      33.743  10.699  14.633  0.00  0.00     0.009 C 
ENDBRANCH   2   3
ENDBRANCH   1   2
BRANCH   1   6
HETATM    6  C   UNK N   1      35.000  13.376  16.823  0.00  0.00     0.116 C 
BRANCH   6   7
HETATM    7  C   UNK N   1      35.400  14.048  18.101  0.00  0.00     0.139 C 
HETATM    8  O   UNK N   1      35.119  13.549  19.177  0.00  0.00    -0.650 OA
BRANCH   7   9
HETATM    9  O   UNK N   1      36.115  15.187  18.057  0.00  0.00    -0.776 OA
HETATM   10  H   UNK N   1      36.129  15.809  18.759  0.00  0.00     0.167 HD
ENDBRANCH   7   9
ENDBRANCH   6   7
ENDBRANCH   1   6
BRANCH   1  11
HETATM   11  C   UNK N   1      36.299  13.897  14.778  0.00  0.00     0.116 C 
BRANCH  11  12
HETATM   12  N   UNK N   1      37.243  14.969  15.051  0.00  0.00    -0.430 N 
HETATM   13  H   UNK N   1      37.741  15.160  15.921  0.00  0.00     0.149 HD
HETATM   14  H   UNK N   1      37.431  15.607  14.278  0.00  0.00     0.149 HD
ENDBRANCH  11  12
ENDBRANCH   1  11
TORSDOF 7
ENDMDL
MODEL 4
REMARK VINA RESULT:      -4.2      2.816      3.523
REMARK  7 active torsions:
REMARK  status: ('A' for Active; 'I' for Inactive)
REMARK    1  A    between atoms: O_1  and  C_11 
REMARK    2  A    between atoms: N_3  and  C_8 
REMARK    3  A    between atoms: C_4  and  C_5 
REMARK    4  A    between atoms: C_4  and  C_7 
REMARK    5  A    between atoms: C_4  and  C_8 
REMARK    6  A    between atoms: C_5  and  C_6 
REMARK    7  A    between atoms: C_7  and  C_11 
ROOT
HETATM    1  C   UNK N   1      33.954  15.853   8.860  0.00  0.00     0.013 C 
ENDROOT
BRANCH   1   2
HETATM    2  C   UNK N   1      34.327  15.974   7.381  0.00  0.00     0.010 C 
BRANCH   2   3
HETATM    3  C   UNK N   1      34.073  17.362   6.800  0.00  0.00    -0.022 C 
HETATM    4  C   UNK N   1      33.831  18.329   7.940  0.00  0.00     0.009 C 
HETATM    5  C   UNK N   1      32.855  17.376   5.895  0.00  0.00     0.009 C 
ENDBRANCH   2   3
ENDBRANCH   1   2
BRANCH   1   6
HETATM    6  C   UNK N   1      35.113  15.222   9.629  0.00  0.00     0.116 C 
BRANCH   6   7
HETATM    7  C   UNK N   1      35.817  16.191  10.530  0.00  0.00     0.139 C 
HETATM    8  O   UNK N   1      35.224  17.152  10.991  0.00  0.00    -0.650 OA
BRANCH   7   9
HETATM    9  O   UNK N   1      37.101  15.971  10.868  0.00  0.00    -0.776 OA
HETATM   10  H   UNK N   1      37.782  16.601  10.726  0.00  0.00     0.167 HD
ENDBRANCH   7   9
ENDBRANCH   6   7
ENDBRANCH   1   6
BRANCH   1  11
HETATM   11  C   UNK N   1      32.735  14.945   8.990  0.00  0.00     0.116 C 
BRANCH  11  12
HETATM   12  N   UNK N   1      32.094  15.123  10.282  0.00  0.00    -0.430 N 
HETATM   13  H   UNK N   1      31.097  15.196  10.484  0.00  0.00     0.149 HD
HETATM   14  H   UNK N   1      32.718  15.182  11.087  0.00  0.00     0.149 HD
ENDBRANCH  11  12
ENDBRANCH   1  11
TORSDOF 7
ENDMDL
MODEL 5
REMARK VINA RESULT:      -4.2      4.258      5.531
REMARK  7 active torsions:
REMARK  status: ('A' for Active; 'I' for Inactive)
REMARK    1  A    between atoms: O_1  and  C_11 
REMARK    2  A    between atoms: N_3  and  C_8 
REMARK    3  A    between atoms: C_4  and  C_5 
REMARK    4  A    between atoms: C_4  and  C_7 
REMARK    5  A    between atoms: C_4  and  C_8 
REMARK    6  A    between atoms: C_5  and  C_6 
REMARK    7  A    between atoms: C_7  and  C_11 
ROOT
HETATM    1  C   UNK N   1      28.005  18.096   6.585  0.00  0.00     0.013 C 
ENDROOT
BRANCH   1   2
HETATM    2  C   UNK N   1      28.510  18.778   5.312  0.00  0.00     0.010 C 
BRANCH   2   3
HETATM    3  C   UNK N   1      27.831  20.114   5.026  0.00  0.00    -0.022 C 
HETATM    4  C   UNK N   1      26.948  20.472   6.203  0.00  0.00     0.009 C 
HETATM    5  C   UNK N   1      26.965  20.047   3.781  0.00  0.00     0.009 C 
ENDBRANCH   2   3
ENDBRANCH   1   2
BRANCH   1   6
HETATM    6  C   UNK N   1      29.145  17.993   7.597  0.00  0.00     0.116 C 
BRANCH   6   7
HETATM    7  C   UNK N   1      28.730  18.354   8.990  0.00  0.00     0.139 C 
HETATM    8  O   UNK N   1      29.554  18.741   9.802  0.00  0.00    -0.650 OA
BRANCH   7   9
HETATM    9  O   UNK N   1      27.430  18.293   9.333  0.00  0.00    -0.776 OA
HETATM   10  H   UNK N   1      26.748  18.102   8.719  0.00  0.00     0.167 HD
ENDBRANCH   7   9
ENDBRANCH   6   7
ENDBRANCH   1   6
BRANCH   1  11
HETATM   11  C   UNK N   1      27.536  16.686   6.240  0.00  0.00     0.116 C 
BRANCH  11  12
HETATM   12  N   UNK N   1      26.484  16.255   7.145  0.00  0.00    -0.430 N 
HETATM   13  H   UNK N   1      26.355  15.334   7.565  0.00  0.00     0.149 HD
HETATM   14  H   UNK N   1      25.790  16.961   7.394  0.00  0.00     0.149 HD
ENDBRANCH  11  12
ENDBRANCH   1  11
TORSDOF 7
ENDMDL
MODEL 6
REMARK VINA RESULT:      -4.1     11.202     13.148
REMARK  7 active torsions:
REMARK  status: ('A' for Active; 'I' for Inactive)
REMARK    1  A    between atoms: O_1  and  C_11 
REMARK    2  A    between atoms: N_3  and  C_8 
REMARK    3  A    between atoms: C_4  and  C_5 
REMARK    4  A    between atoms: C_4  and  C_7 
REMARK    5  A    between atoms: C_4  and  C_8 
REMARK    6  A    between atoms: C_5  and  C_6 
REMARK    7  A    between atoms: C_7  and  C_11 
ROOT
HETATM    1  C   UNK N   1      21.172  18.951   2.734  0.00  0.00     0.013 C 
ENDROOT
BRANCH   1   2
HETATM    2  C   UNK N   1      22.088  19.122   3.946  0.00  0.00     0.010 C 
BRANCH   2   3
HETATM    3  C   UNK N   1      23.573  19.076   3.599  0.00  0.00    -0.022 C 
HETATM    4  C   UNK N   1      24.340  18.581   4.808  0.00  0.00     0.009 C 
HETATM    5  C   UNK N   1      24.103  20.449   3.226  0.00  0.00     0.009 C 
ENDBRANCH   2   3
ENDBRANCH   1   2
BRANCH   1   6
HETATM    6  C   UNK N   1      20.422  20.255   2.470  0.00  0.00     0.116 C 
BRANCH   6   7
HETATM    7  C   UNK N   1      20.600  20.764   1.072  0.00  0.00     0.139 C 
HETATM    8  O   UNK N   1      20.748  21.956   0.861  0.00  0.00    -0.650 OA
BRANCH   7   9
HETATM    9  O   UNK N   1      20.642  19.892   0.048  0.00  0.00    -0.776 OA
HETATM   10  H   UNK N   1      19.875  19.493  -0.315  0.00  0.00     0.167 HD
ENDBRANCH   7   9
ENDBRANCH   6   7
ENDBRANCH   1   6
BRANCH   1  11
HETATM   11  C   UNK N   1      20.151  17.858   3.035  0.00  0.00     0.116 C 
BRANCH  11  12
HETATM   12  N   UNK N   1      19.047  17.907   2.090  0.00  0.00    -0.430 N 
HETATM   13  H   UNK N   1      18.163  18.407   2.183  0.00  0.00     0.149 HD
HETATM   14  H   UNK N   1      19.174  17.378   1.227  0.00  0.00     0.149 HD
ENDBRANCH  11  12
ENDBRANCH   1  11
TORSDOF 7
ENDMDL
MODEL 7
REMARK VINA RESULT:      -4.1      1.955      3.363
REMARK  7 active torsions:
REMARK  status: ('A' for Active; 'I' for Inactive)
REMARK    1  A    between atoms: O_1  and  C_11 
REMARK    2  A    between atoms: N_3  and  C_8 
REMARK    3  A    between atoms: C_4  and  C_5 
REMARK    4  A    between atoms: C_4  and  C_7 
REMARK    5  A    between atoms: C_4  and  C_8 
REMARK    6  A    between atoms: C_5  and  C_6 
REMARK    7  A    between atoms: C_7  and  C_11 
ROOT
HETATM    1  C   UNK N   1      32.394  17.829   7.794  0.00  0.00     0.013 C 
ENDROOT
BRANCH   1   2
HETATM    2  C   UNK N   1      32.121  17.047   6.507  0.00  0.00     0.010 C 
BRANCH   2   3
HETATM    3  C   UNK N   1      33.148  17.304   5.409  0.00  0.00    -0.022 C 
HETATM    4  C   UNK N   1      32.415  17.632   4.125  0.00  0.00     0.009 C 
HETATM    5  C   UNK N   1      34.021  16.087   5.163  0.00  0.00     0.009 C 
ENDBRANCH   2   3
ENDBRANCH   1   2
BRANCH   1   6
HETATM    6  C   UNK N   1      33.442  17.093   8.627  0.00  0.00     0.116 C 
BRANCH   6   7
HETATM    7  C   UNK N   1      34.684  17.899   8.854  0.00  0.00     0.139 C 
HETATM    8  O   UNK N   1      35.400  17.676   9.817  0.00  0.00    -0.650 OA
BRANCH   7   9
HETATM    9  O   UNK N   1      35.035  18.845   7.964  0.00  0.00    -0.776 OA
HETATM   10  H   UNK N   1      35.241  19.727   8.209  0.00  0.00     0.167 HD
ENDBRANCH   7   9
ENDBRANCH   6   7
ENDBRANCH   1   6
BRANCH   1  11
HETATM   11  C   UNK N   1      31.104  17.915   8.604  0.00  0.00     0.116 C 
BRANCH  11  12
HETATM   12  N   UNK N   1      30.911  16.712   9.398  0.00  0.00    -0.430 N 
HETATM   13  H   UNK N   1      30.372  16.608  10.258  0.00  0.00     0.149 HD
HETATM   14  H   UNK N   1      31.370  15.869   9.052  0.00  0.00     0.149 HD
ENDBRANCH  11  12
ENDBRANCH   1  11
TORSDOF 7
ENDMDL
MODEL 8
REMARK VINA RESULT:      -4.1      7.185      8.647
REMARK  7 active torsions:
REMARK  status: ('A' for Active; 'I' for Inactive)
REMARK    1  A    between atoms: O_1  and  C_11 
REMARK    2  A    between atoms: N_3  and  C_8 
REMARK    3  A    between atoms: C_4  and  C_5 
REMARK    4  A    between atoms: C_4  and  C_7 
REMARK    5  A    between atoms: C_4  and  C_8 
REMARK    6  A    between atoms: C_5  and  C_6 
REMARK    7  A    between atoms: C_7  and  C_11 
ROOT
HETATM    1  C   UNK N   1      26.711  19.455   3.718  0.00  0.00     0.013 C 
ENDROOT
BRANCH   1   2
HETATM    2  C   UNK N   1      27.473  20.321   4.723  0.00  0.00     0.010 C 
BRANCH   2   3
HETATM    3  C   UNK N   1      26.889  20.277   6.132  0.00  0.00    -0.022 C 
HETATM    4  C   UNK N   1      26.635  21.695   6.598  0.00  0.00     0.009 C 
HETATM    5  C   UNK N   1      27.842  19.615   7.112  0.00  0.00     0.009 C 
ENDBRANCH   2   3
ENDBRANCH   1   2
BRANCH   1   6
HETATM    6  C   UNK N   1      25.211  19.556   3.989  0.00  0.00     0.116 C 
BRANCH   6   7
HETATM    7  C   UNK N   1      24.491  20.417   2.998  0.00  0.00     0.139 C 
HETATM    8  O   UNK N   1      23.341  20.768   3.202  0.00  0.00    -0.650 OA
BRANCH   7   9
HETATM    9  O   UNK N   1      25.136  20.844   1.896  0.00  0.00    -0.776 OA
HETATM   10  H   UNK N   1      25.633  21.639   1.870  0.00  0.00     0.167 HD
ENDBRANCH   7   9
ENDBRANCH   6   7
ENDBRANCH   1   6
BRANCH   1  11
HETATM   11  C   UNK N   1      27.138  18.001   3.894  0.00  0.00     0.116 C 
BRANCH  11  12
HETATM   12  N   UNK N   1      28.576  17.861   3.733  0.00  0.00    -0.430 N 
HETATM   13  H   UNK N   1      29.247  17.470   4.395  0.00  0.00     0.149 HD
HETATM   14  H   UNK N   1      28.962  18.194   2.850  0.00  0.00     0.149 HD
ENDBRANCH  11  12
ENDBRANCH   1  11
TORSDOF 7
ENDMDL
MODEL 9
REMARK VINA RESULT:      -4.0     16.161     17.385
REMARK  7 active torsions:
REMARK  status: ('A' for Active; 'I' for Inactive)
REMARK    1  A    between atoms: O_1  and  C_11 
REMARK    2  A    between atoms: N_3  and  C_8 
REMARK    3  A    between atoms: C_4  and  C_5 
REMARK    4  A    between atoms: C_4  and  C_7 
REMARK    5  A    between atoms: C_4  and  C_8 
REMARK    6  A    between atoms: C_5  and  C_6 
REMARK    7  A    between atoms: C_7  and  C_11 
ROOT
HETATM    1  C   UNK N   1      26.096  24.558  -5.715  0.00  0.00     0.013 C 
ENDROOT
BRANCH   1   2
HETATM    2  C   UNK N   1      26.501  25.520  -6.834  0.00  0.00     0.010 C 
BRANCH   2   3
HETATM    3  C   UNK N   1      25.919  26.921  -6.674  0.00  0.00    -0.022 C 
HETATM    4  C   UNK N   1      26.987  27.828  -6.099  0.00  0.00     0.009 C 
HETATM    5  C   UNK N   1      24.729  26.928  -5.731  0.00  0.00     0.009 C 
ENDBRANCH   2   3
ENDBRANCH   1   2
BRANCH   1   6
HETATM    6  C   UNK N   1      27.265  24.373  -4.750  0.00  0.00     0.116 C 
BRANCH   6   7
HETATM    7  C   UNK N   1      26.896  24.634  -3.322  0.00  0.00     0.139 C 
HETATM    8  O   UNK N   1      27.086  23.784  -2.468  0.00  0.00    -0.650 OA
BRANCH   7   9
HETATM    9  O   UNK N   1      26.392  25.832  -2.973  0.00  0.00    -0.776 OA
HETATM   10  H   UNK N   1      26.926  26.588  -2.824  0.00  0.00     0.167 HD
ENDBRANCH   7   9
ENDBRANCH   6   7
ENDBRANCH   1   6
BRANCH   1  11
HETATM   11  C   UNK N   1      25.755  23.203  -6.327  0.00  0.00     0.116 C 
BRANCH  11  12
HETATM   12  N   UNK N   1      25.153  23.365  -7.640  0.00  0.00    -0.430 N 
HETATM   13  H   UNK N   1      24.297  22.938  -7.995  0.00  0.00     0.149 HD
HETATM   14  H   UNK N   1      25.646  23.983  -8.285  0.00  0.00     0.149 HD
ENDBRANCH  11  12
ENDBRANCH   1  11
TORSDOF 7
ENDMDL
