MODEL 1
REMARK VINA RESULT:      -6.8      0.000      0.000
REMARK  2 active torsions:
REMARK  status: ('A' for Active; 'I' for Inactive)
REMARK    1  A    between atoms: O_2  and  C_10 
REMARK    2  A    between atoms: C_9  and  C_12 
ROOT
HETATM    1 Cl   UNK N   1      27.876  21.027  -9.518  0.00  0.00    -0.084 Cl
HETATM    2  O   UNK N   1      31.992  21.438  -2.448  0.00  0.00    -0.268 OA
HETATM    3  N   UNK N   1      31.146  20.948  -4.452  0.00  0.00    -0.318 N 
HETATM    4  N   UNK N   1      29.327  23.522  -3.837  0.00  0.00    -0.355 N 
ATOM      5  HN  UNK N   1      28.909  24.339  -3.392  1.00  0.00     0.162 HD
HETATM    6  C   UNK N   1      30.291  21.089  -5.615  0.00  0.00     0.049 A 
HETATM    7  C   UNK N   1      29.273  22.093  -5.862  0.00  0.00     0.020 A 
HETATM    8  C   UNK N   1      28.827  23.258  -4.988  0.00  0.00     0.053 A 
HETATM    9  C   UNK N   1      30.346  22.914  -3.051  0.00  0.00     0.312 A 
HETATM   10  C   UNK N   1      31.189  21.725  -3.329  0.00  0.00     0.272 A 
HETATM   11  C   UNK N   1      28.584  21.995  -7.086  0.00  0.00     0.040 A 
HETATM   12  C   UNK N   1      30.490  20.110  -6.628  0.00  0.00     0.032 A 
HETATM   13  C   UNK N   1      32.089  19.835  -4.471  0.00  0.00     0.159 C 
HETATM   14  C   UNK N   1      28.811  21.027  -8.040  0.00  0.00     0.035 A 
HETATM   15  C   UNK N   1      29.773  20.073  -7.813  0.00  0.00     0.026 A 
ENDROOT
BRANCH   8  16
HETATM   16  C   UNK N   1      27.727  24.223  -5.419  0.00  0.00    -0.009 A 
HETATM   17  C   UNK N   1      26.418  24.021  -4.934  0.00  0.00     0.014 A 
HETATM   18  C   UNK N   1      25.371  24.875  -5.297  0.00  0.00     0.001 A 
HETATM   19  C   UNK N   1      25.610  25.951  -6.152  0.00  0.00     0.000 A 
HETATM   20  C   UNK N   1      26.893  26.173  -6.644  0.00  0.00     0.001 A 
HETATM   21  C   UNK N   1      27.935  25.318  -6.280  0.00  0.00     0.014 A 
ENDBRANCH   8  16
BRANCH   9  22
HETATM   22  O   UNK N   1      30.561  23.561  -1.832  0.00  0.00    -0.368 OA
HETATM   23  H   UNK N   1      31.405  23.452  -1.366  0.00  0.00     0.212 HD
ENDBRANCH   9  22
TORSDOF 2
ENDMDL
MODEL 2
REMARK VINA RESULT:      -6.7      3.850      4.797
REMARK  2 active torsions:
REMARK  status: ('A' for Active; 'I' for Inactive)
REMARK    1  A    between atoms: O_2  and  C_10 
REMARK    2  A    between atoms: C_9  and  C_12 
ROOT
HETATM    1 Cl   UNK N   1      31.185  24.502  -3.922  0.00  0.00    -0.084 Cl
HETATM    2  O   UNK N   1      25.893  20.619  -8.822  0.00  0.00    -0.268 OA
HETATM    3  N   UNK N   1      27.632  21.333  -7.623  0.00  0.00    -0.318 N 
HETATM    4  N   UNK N   1      25.548  23.619  -6.759  0.00  0.00    -0.355 N 
ATOM      5  HN  UNK N   1      24.709  24.191  -6.666  1.00  0.00     0.162 HD
HETATM    6  C   UNK N   1      28.368  22.187  -6.711  0.00  0.00     0.049 A 
HETATM    7  C   UNK N   1      27.902  23.376  -6.022  0.00  0.00     0.020 A 
HETATM    8  C   UNK N   1      26.535  24.047  -6.062  0.00  0.00     0.053 A 
HETATM    9  C   UNK N   1      25.377  22.511  -7.636  0.00  0.00     0.312 A 
HETATM   10  C   UNK N   1      26.335  21.452  -8.039  0.00  0.00     0.272 A 
HETATM   11  C   UNK N   1      28.835  24.020  -5.188  0.00  0.00     0.040 A 
HETATM   12  C   UNK N   1      29.716  21.793  -6.477  0.00  0.00     0.032 A 
HETATM   13  C   UNK N   1      28.357  20.195  -8.175  0.00  0.00     0.159 C 
HETATM   14  C   UNK N   1      30.134  23.601  -4.991  0.00  0.00     0.035 A 
HETATM   15  C   UNK N   1      30.582  22.477  -5.640  0.00  0.00     0.026 A 
ENDROOT
BRANCH   8  16
HETATM   16  C   UNK N   1      26.224  25.307  -5.260  0.00  0.00    -0.009 A 
HETATM   17  C   UNK N   1      25.496  26.344  -5.879  0.00  0.00     0.014 A 
HETATM   18  C   UNK N   1      25.183  27.520  -5.191  0.00  0.00     0.001 A 
HETATM   19  C   UNK N   1      25.592  27.687  -3.868  0.00  0.00     0.000 A 
HETATM   20  C   UNK N   1      26.312  26.679  -3.233  0.00  0.00     0.001 A 
HETATM   21  C   UNK N   1      26.622  25.506  -3.924  0.00  0.00     0.014 A 
ENDBRANCH   8  16
BRANCH   9  22
HETATM   22  O   UNK N   1      24.096  22.438  -8.187  0.00  0.00    -0.368 OA
HETATM   23  H   UNK N   1      23.962  22.017  -9.051  0.00  0.00     0.212 HD
ENDBRANCH   9  22
TORSDOF 2
ENDMDL
MODEL 3
REMARK VINA RESULT:      -6.7     20.026     22.603
REMARK  2 active torsions:
REMARK  status: ('A' for Active; 'I' for Inactive)
REMARK    1  A    between atoms: O_2  and  C_10 
REMARK    2  A    between atoms: C_9  and  C_12 
ROOT
HETATM    1 Cl   UNK N   1      33.558   9.798  12.106  0.00  0.00    -0.084 Cl
HETATM    2  O   UNK N   1      36.516  15.048  17.654  0.00  0.00    -0.268 OA
HETATM    3  N   UNK N   1      35.515  13.409  16.521  0.00  0.00    -0.318 N 
HETATM    4  N   UNK N   1      36.877  14.890  14.018  0.00  0.00    -0.355 N 
ATOM      5  HN  UNK N   1      37.408  15.541  13.438  1.00  0.00     0.162 HD
HETATM    6  C   UNK N   1      35.120  12.630  15.364  0.00  0.00     0.049 A 
HETATM    7  C   UNK N   1      35.459  12.858  13.972  0.00  0.00     0.020 A 
HETATM    8  C   UNK N   1      36.310  13.957  13.347  0.00  0.00     0.053 A 
HETATM    9  C   UNK N   1      36.922  15.211  15.405  0.00  0.00     0.312 A 
HETATM   10  C   UNK N   1      36.295  14.531  16.565  0.00  0.00     0.272 A 
HETATM   11  C   UNK N   1      34.936  11.938  13.043  0.00  0.00     0.040 A 
HETATM   12  C   UNK N   1      34.295  11.506  15.651  0.00  0.00     0.032 A 
HETATM   13  C   UNK N   1      35.023  12.946  17.814  0.00  0.00     0.159 C 
HETATM   14  C   UNK N   1      34.139  10.861  13.368  0.00  0.00     0.035 A 
HETATM   15  C   UNK N   1      33.813  10.639  14.683  0.00  0.00     0.026 A 
ENDROOT
BRANCH   8  16
HETATM   16  C   UNK N   1      36.561  14.037  11.845  0.00  0.00    -0.009 A 
HETATM   17  C   UNK N   1      35.770  14.910  11.070  0.00  0.00     0.014 A 
HETATM   18  C   UNK N   1      35.956  15.023   9.688  0.00  0.00     0.001 A 
HETATM   19  C   UNK N   1      36.938  14.265   9.050  0.00  0.00     0.000 A 
HETATM   20  C   UNK N   1      37.733  13.395   9.792  0.00  0.00     0.001 A 
HETATM   21  C   UNK N   1      37.543  13.285  11.171  0.00  0.00     0.014 A 
ENDBRANCH   8  16
BRANCH   9  22
HETATM   22  O   UNK N   1      37.682  16.348  15.683  0.00  0.00    -0.368 OA
HETATM   23  H   UNK N   1      38.607  16.397  15.393  0.00  0.00     0.212 HD
ENDBRANCH   9  22
TORSDOF 2
ENDMDL
MODEL 4
REMARK VINA RESULT:      -6.6     10.873     12.677
REMARK  2 active torsions:
REMARK  status: ('A' for Active; 'I' for Inactive)
REMARK    1  A    between atoms: O_2  and  C_10 
REMARK    2  A    between atoms: C_9  and  C_12 
ROOT
HETATM    1 Cl   UNK N   1      28.016  17.929   9.650  0.00  0.00    -0.084 Cl
HETATM    2  O   UNK N   1      33.710  16.085   4.058  0.00  0.00    -0.268 OA
HETATM    3  N   UNK N   1      32.477  16.413   5.887  0.00  0.00    -0.318 N 
HETATM    4  N   UNK N   1      30.384  17.573   3.746  0.00  0.00    -0.355 N 
ATOM      5  HN  UNK N   1      29.937  17.869   2.877  1.00  0.00     0.162 HD
HETATM    6  C   UNK N   1      31.328  16.825   6.670  0.00  0.00     0.049 A 
HETATM    7  C   UNK N   1      30.090  17.419   6.202  0.00  0.00     0.020 A 
HETATM    8  C   UNK N   1      29.659  17.771   4.784  0.00  0.00     0.053 A 
HETATM    9  C   UNK N   1      31.685  17.028   3.550  0.00  0.00     0.312 A 
HETATM   10  C   UNK N   1      32.655  16.491   4.534  0.00  0.00     0.272 A 
HETATM   11  C   UNK N   1      29.132  17.725   7.187  0.00  0.00     0.040 A 
HETATM   12  C   UNK N   1      31.450  16.610   8.072  0.00  0.00     0.032 A 
HETATM   13  C   UNK N   1      33.595  15.839   6.627  0.00  0.00     0.159 C 
HETATM   14  C   UNK N   1      29.295  17.499   8.537  0.00  0.00     0.035 A 
HETATM   15  C   UNK N   1      30.464  16.936   8.988  0.00  0.00     0.026 A 
ENDROOT
BRANCH   8  16
HETATM   16  C   UNK N   1      28.302  18.399   4.479  0.00  0.00    -0.009 A 
HETATM   17  C   UNK N   1      27.236  17.559   4.094  0.00  0.00     0.014 A 
HETATM   18  C   UNK N   1      25.972  18.080   3.803  0.00  0.00     0.001 A 
HETATM   19  C   UNK N   1      25.744  19.454   3.890  0.00  0.00     0.000 A 
HETATM   20  C   UNK N   1      26.779  20.305   4.268  0.00  0.00     0.001 A 
HETATM   21  C   UNK N   1      28.040  19.780   4.557  0.00  0.00     0.014 A 
ENDBRANCH   8  16
BRANCH   9  22
HETATM   22  O   UNK N   1      32.078  17.010   2.209  0.00  0.00    -0.368 OA
HETATM   23  H   UNK N   1      32.088  17.833   1.696  0.00  0.00     0.212 HD
ENDBRANCH   9  22
TORSDOF 2
ENDMDL
MODEL 5
REMARK VINA RESULT:      -6.5     11.389     12.951
REMARK  2 active torsions:
REMARK  status: ('A' for Active; 'I' for Inactive)
REMARK    1  A    between atoms: O_2  and  C_10 
REMARK    2  A    between atoms: C_9  and  C_12 
ROOT
HETATM    1 Cl   UNK N   1      25.324  14.681   6.187  0.00  0.00    -0.084 Cl
HETATM    2  O   UNK N   1      19.857  19.565   2.532  0.00  0.00    -0.268 OA
HETATM    3  N   UNK N   1      20.990  17.922   3.528  0.00  0.00    -0.318 N 
HETATM    4  N   UNK N   1      23.347  20.103   3.486  0.00  0.00    -0.355 N 
ATOM      5  HN  UNK N   1      23.885  20.958   3.342  1.00  0.00     0.162 HD
HETATM    6  C   UNK N   1      22.121  17.263   4.151  0.00  0.00     0.049 A 
HETATM    7  C   UNK N   1      23.449  17.797   4.390  0.00  0.00     0.020 A 
HETATM    8  C   UNK N   1      24.016  19.172   4.059  0.00  0.00     0.053 A 
HETATM    9  C   UNK N   1      22.009  20.194   3.008  0.00  0.00     0.312 A 
HETATM   10  C   UNK N   1      20.916  19.191   3.024  0.00  0.00     0.272 A 
HETATM   11  C   UNK N   1      24.366  16.933   5.019  0.00  0.00     0.040 A 
HETATM   12  C   UNK N   1      21.878  15.927   4.575  0.00  0.00     0.032 A 
HETATM   13  C   UNK N   1      19.764  17.140   3.416  0.00  0.00     0.159 C 
HETATM   14  C   UNK N   1      24.084  15.642   5.413  0.00  0.00     0.035 A 
HETATM   15  C   UNK N   1      22.829  15.130   5.191  0.00  0.00     0.026 A 
ENDROOT
BRANCH   8  16
HETATM   16  C   UNK N   1      25.455  19.559   4.390  0.00  0.00    -0.009 A 
HETATM   17  C   UNK N   1      25.702  20.331   5.544  0.00  0.00     0.014 A 
HETATM   18  C   UNK N   1      27.000  20.714   5.895  0.00  0.00     0.001 A 
HETATM   19  C   UNK N   1      28.082  20.334   5.099  0.00  0.00     0.000 A 
HETATM   20  C   UNK N   1      27.864  19.572   3.954  0.00  0.00     0.001 A 
HETATM   21  C   UNK N   1      26.566  19.192   3.607  0.00  0.00     0.014 A 
ENDBRANCH   8  16
BRANCH   9  22
HETATM   22  O   UNK N   1      21.711  21.435   2.441  0.00  0.00    -0.368 OA
HETATM   23  H   UNK N   1      21.180  21.483   1.630  0.00  0.00     0.212 HD
ENDBRANCH   9  22
TORSDOF 2
ENDMDL
MODEL 6
REMARK VINA RESULT:      -6.4     12.783     15.155
REMARK  2 active torsions:
REMARK  status: ('A' for Active; 'I' for Inactive)
REMARK    1  A    between atoms: O_2  and  C_10 
REMARK    2  A    between atoms: C_9  and  C_12 
ROOT
HETATM    1 Cl   UNK N   1      32.560  11.483   5.875  0.00  0.00    -0.084 Cl
HETATM    2  O   UNK N   1      35.659  17.641  10.300  0.00  0.00    -0.268 OA
HETATM    3  N   UNK N   1      34.993  15.693   9.441  0.00  0.00    -0.318 N 
HETATM    4  N   UNK N   1      33.817  17.600   7.141  0.00  0.00    -0.355 N 
ATOM      5  HN  UNK N   1      33.562  18.416   6.583  1.00  0.00     0.162 HD
HETATM    6  C   UNK N   1      34.365  14.794   8.493  0.00  0.00     0.049 A 
HETATM    7  C   UNK N   1      33.676  15.129   7.261  0.00  0.00     0.020 A 
HETATM    8  C   UNK N   1      33.425  16.492   6.630  0.00  0.00     0.053 A 
HETATM    9  C   UNK N   1      34.535  17.932   8.325  0.00  0.00     0.312 A 
HETATM   10  C   UNK N   1      35.080  17.056   9.391  0.00  0.00     0.272 A 
HETATM   11  C   UNK N   1      33.155  14.049   6.523  0.00  0.00     0.040 A 
HETATM   12  C   UNK N   1      34.445  13.414   8.833  0.00  0.00     0.032 A 
HETATM   13  C   UNK N   1      35.618  15.076  10.606  0.00  0.00     0.159 C 
HETATM   14  C   UNK N   1      33.257  12.724   6.892  0.00  0.00     0.035 A 
HETATM   15  C   UNK N   1      33.907  12.399   8.057  0.00  0.00     0.026 A 
ENDROOT
BRANCH   8  16
HETATM   16  C   UNK N   1      32.672  16.652   5.312  0.00  0.00    -0.009 A 
HETATM   17  C   UNK N   1      33.401  16.615   4.105  0.00  0.00     0.014 A 
HETATM   18  C   UNK N   1      32.762  16.756   2.869  0.00  0.00     0.001 A 
HETATM   19  C   UNK N   1      31.380  16.938   2.812  0.00  0.00     0.000 A 
HETATM   20  C   UNK N   1      30.637  16.978   3.989  0.00  0.00     0.001 A 
HETATM   21  C   UNK N   1      31.279  16.836   5.221  0.00  0.00     0.014 A 
ENDBRANCH   8  16
BRANCH   9  22
HETATM   22  O   UNK N   1      34.740  19.305   8.477  0.00  0.00    -0.368 OA
HETATM   23  H   UNK N   1      35.636  19.649   8.622  0.00  0.00     0.212 HD
ENDBRANCH   9  22
TORSDOF 2
ENDMDL
MODEL 7
REMARK VINA RESULT:      -6.3     10.947     12.926
REMARK  2 active torsions:
REMARK  status: ('A' for Active; 'I' for Inactive)
REMARK    1  A    between atoms: O_2  and  C_10 
REMARK    2  A    between atoms: C_9  and  C_12 
ROOT
HETATM    1 Cl   UNK N   1      24.734  14.173   7.018  0.00  0.00    -0.084 Cl
HETATM    2  O   UNK N   1      22.764  20.895   2.772  0.00  0.00    -0.268 OA
HETATM    3  N   UNK N   1      22.835  19.047   4.018  0.00  0.00    -0.318 N 
HETATM    4  N   UNK N   1      25.972  19.241   3.360  0.00  0.00    -0.355 N 
ATOM      5  HN  UNK N   1      26.879  19.543   3.002  1.00  0.00     0.162 HD
HETATM    6  C   UNK N   1      23.431  17.910   4.692  0.00  0.00     0.049 A 
HETATM    7  C   UNK N   1      24.827  17.518   4.725  0.00  0.00     0.020 A 
HETATM    8  C   UNK N   1      26.036  18.178   4.073  0.00  0.00     0.053 A 
HETATM    9  C   UNK N   1      24.900  20.090   2.962  0.00  0.00     0.312 A 
HETATM   10  C   UNK N   1      23.450  20.006   3.263  0.00  0.00     0.272 A 
HETATM   11  C   UNK N   1      25.134  16.359   5.463  0.00  0.00     0.040 A 
HETATM   12  C   UNK N   1      22.514  17.088   5.406  0.00  0.00     0.032 A 
HETATM   13  C   UNK N   1      21.391  19.200   4.156  0.00  0.00     0.159 C 
HETATM   14  C   UNK N   1      24.210  15.592   6.140  0.00  0.00     0.035 A 
HETATM   15  C   UNK N   1      22.886  15.957   6.114  0.00  0.00     0.026 A 
ENDROOT
BRANCH   8  16
HETATM   16  C   UNK N   1      27.447  17.616   4.219  0.00  0.00    -0.009 A 
HETATM   17  C   UNK N   1      27.898  16.663   3.283  0.00  0.00     0.014 A 
HETATM   18  C   UNK N   1      29.182  16.115   3.369  0.00  0.00     0.001 A 
HETATM   19  C   UNK N   1      30.044  16.507   4.394  0.00  0.00     0.000 A 
HETATM   20  C   UNK N   1      29.622  17.446   5.331  0.00  0.00     0.001 A 
HETATM   21  C   UNK N   1      28.340  17.991   5.241  0.00  0.00     0.014 A 
ENDBRANCH   8  16
BRANCH   9  22
HETATM   22  O   UNK N   1      25.313  21.160   2.164  0.00  0.00    -0.368 OA
HETATM   23  H   UNK N   1      24.663  21.801   1.838  0.00  0.00     0.212 HD
ENDBRANCH   9  22
TORSDOF 2
ENDMDL
MODEL 8
REMARK VINA RESULT:      -6.2      3.332      5.917
REMARK  2 active torsions:
REMARK  status: ('A' for Active; 'I' for Inactive)
REMARK    1  A    between atoms: O_2  and  C_10 
REMARK    2  A    between atoms: C_9  and  C_12 
ROOT
HETATM    1 Cl   UNK N   1      32.584  21.821  -3.810  0.00  0.00    -0.084 Cl
HETATM    2  O   UNK N   1      25.147  24.789  -5.534  0.00  0.00    -0.268 OA
HETATM    3  N   UNK N   1      27.137  24.257  -4.681  0.00  0.00    -0.318 N 
HETATM    4  N   UNK N   1      27.289  22.412  -7.305  0.00  0.00    -0.355 N 
ATOM      5  HN  UNK N   1      27.069  21.944  -8.184  1.00  0.00     0.162 HD
HETATM    6  C   UNK N   1      28.426  23.597  -4.601  0.00  0.00     0.049 A 
HETATM    7  C   UNK N   1      29.006  22.649  -5.533  0.00  0.00     0.020 A 
HETATM    8  C   UNK N   1      28.437  22.092  -6.832  0.00  0.00     0.053 A 
HETATM    9  C   UNK N   1      26.255  23.284  -6.859  0.00  0.00     0.312 A 
HETATM   10  C   UNK N   1      26.180  24.139  -5.649  0.00  0.00     0.272 A 
HETATM   11  C   UNK N   1      30.285  22.157  -5.209  0.00  0.00     0.040 A 
HETATM   12  C   UNK N   1      29.202  23.934  -3.457  0.00  0.00     0.032 A 
HETATM   13  C   UNK N   1      26.807  25.171  -3.593  0.00  0.00     0.159 C 
HETATM   14  C   UNK N   1      31.002  22.513  -4.086  0.00  0.00     0.035 A 
HETATM   15  C   UNK N   1      30.458  23.410  -3.199  0.00  0.00     0.026 A 
ENDROOT
BRANCH   8  16
HETATM   16  C   UNK N   1      29.202  21.091  -7.692  0.00  0.00    -0.009 A 
HETATM   17  C   UNK N   1      28.998  19.712  -7.472  0.00  0.00     0.014 A 
HETATM   18  C   UNK N   1      29.673  18.751  -8.231  0.00  0.00     0.001 A 
HETATM   19  C   UNK N   1      30.566  19.145  -9.227  0.00  0.00     0.000 A 
HETATM   20  C   UNK N   1      30.785  20.500  -9.464  0.00  0.00     0.001 A 
HETATM   21  C   UNK N   1      30.109  21.457  -8.704  0.00  0.00     0.014 A 
ENDBRANCH   8  16
BRANCH   9  22
HETATM   22  O   UNK N   1      25.155  23.318  -7.719  0.00  0.00    -0.368 OA
HETATM   23  H   UNK N   1      25.251  23.673  -8.616  0.00  0.00     0.212 HD
ENDBRANCH   9  22
TORSDOF 2
ENDMDL
MODEL 9
REMARK VINA RESULT:      -6.2     12.516     15.182
REMARK  2 active torsions:
REMARK  status: ('A' for Active; 'I' for Inactive)
REMARK    1  A    between atoms: O_2  and  C_10 
REMARK    2  A    between atoms: C_9  and  C_12 
ROOT
HETATM    1 Cl   UNK N   1      33.544  15.029   3.830  0.00  0.00    -0.084 Cl
HETATM    2  O   UNK N   1      27.802  19.168   7.954  0.00  0.00    -0.268 OA
HETATM    3  N   UNK N   1      29.095  18.141   6.455  0.00  0.00    -0.318 N 
HETATM    4  N   UNK N   1      30.869  17.508   9.056  0.00  0.00    -0.355 N 
ATOM      5  HN  UNK N   1      31.215  17.459  10.014  1.00  0.00     0.162 HD
HETATM    6  C   UNK N   1      30.226  17.379   5.961  0.00  0.00     0.049 A 
HETATM    7  C   UNK N   1      31.339  16.836   6.717  0.00  0.00     0.020 A 
HETATM    8  C   UNK N   1      31.626  16.911   8.211  0.00  0.00     0.053 A 
HETATM    9  C   UNK N   1      29.644  18.224   8.937  0.00  0.00     0.312 A 
HETATM   10  C   UNK N   1      28.821  18.520   7.739  0.00  0.00     0.272 A 
HETATM   11  C   UNK N   1      32.309  16.130   5.980  0.00  0.00     0.040 A 
HETATM   12  C   UNK N   1      30.225  17.146   4.557  0.00  0.00     0.032 A 
HETATM   13  C   UNK N   1      28.115  18.565   5.462  0.00  0.00     0.159 C 
HETATM   14  C   UNK N   1      32.266  15.928   4.616  0.00  0.00     0.035 A 
HETATM   15  C   UNK N   1      31.215  16.440   3.894  0.00  0.00     0.026 A 
ENDROOT
BRANCH   8  16
HETATM   16  C   UNK N   1      32.863  16.272   8.834  0.00  0.00    -0.009 A 
HETATM   17  C   UNK N   1      32.811  14.912   9.205  0.00  0.00     0.014 A 
HETATM   18  C   UNK N   1      33.915  14.275   9.780  0.00  0.00     0.001 A 
HETATM   19  C   UNK N   1      35.097  14.983   9.998  0.00  0.00     0.000 A 
HETATM   20  C   UNK N   1      35.175  16.326   9.641  0.00  0.00     0.001 A 
HETATM   21  C   UNK N   1      34.070  16.959   9.067  0.00  0.00     0.014 A 
ENDBRANCH   8  16
BRANCH   9  22
HETATM   22  O   UNK N   1      29.171  18.712  10.157  0.00  0.00    -0.368 OA
HETATM   23  H   UNK N   1      28.445  18.258  10.613  0.00  0.00     0.212 HD
ENDBRANCH   9  22
TORSDOF 2
ENDMDL
