MODEL 1
REMARK VINA RESULT:      -6.3      0.000      0.000
REMARK  3 active torsions:
REMARK  status: ('A' for Active; 'I' for Inactive)
REMARK    1  A    between atoms: S_4  and  N_11 
REMARK    2  A    between atoms: S_4  and  C_19 
REMARK    3  A    between atoms: C_12  and  C_15 
ROOT
HETATM    1 Cl   UNK N   1      27.482  16.780   6.249  0.00  0.00    -0.083 Cl
HETATM    2  S   UNK N   1      33.737  16.699   7.102  0.00  0.00     0.247 S 
HETATM    3  O   UNK N   1      34.355  18.105   7.129  0.00  0.00    -0.206 OA
HETATM    4  O   UNK N   1      34.261  16.016   8.377  0.00  0.00    -0.206 OA
HETATM    5  N   UNK N   1      34.486  15.899   5.706  0.00  0.00    -0.187 NA
HETATM    6  N   UNK N   1      32.253  15.392   4.882  0.00  0.00    -0.370 N 
HETATM    7  C   UNK N   1      33.564  14.856   5.228  0.00  0.00     0.185 C 
HETATM    8  C   UNK N   1      31.979  16.709   6.929  0.00  0.00     0.102 A 
HETATM    9  C   UNK N   1      31.427  16.091   5.806  0.00  0.00     0.054 A 
HETATM   10  C   UNK N   1      31.165  17.337   7.869  0.00  0.00     0.054 A 
HETATM   11  C   UNK N   1      35.725  15.274   6.155  0.00  0.00     0.132 C 
HETATM   12  C   UNK N   1      30.045  16.144   5.601  0.00  0.00     0.056 A 
HETATM   13  C   UNK N   1      29.779  17.362   7.690  0.00  0.00     0.102 A 
HETATM   14  C   UNK N   1      29.215  16.776   6.536  0.00  0.00     0.059 A 
HETATM   15  H   UNK N   1      31.923  15.265   3.963  0.00  0.00     0.161 HD
ENDROOT
BRANCH  13  16
HETATM   16  S   UNK N   1      28.767  18.097   8.980  0.00  0.00     0.258 S 
HETATM   17  O   UNK N   1      28.013  17.029   9.786  0.00  0.00    -0.201 OA
HETATM   18  O   UNK N   1      29.611  18.770  10.074  0.00  0.00    -0.201 OA
BRANCH  16  19
HETATM   19  N   UNK N   1      27.545  19.296   8.555  0.00  0.00    -0.324 N 
HETATM   20  H   UNK N   1      27.710  20.274   8.317  0.00  0.00     0.169 HD
HETATM   21  H   UNK N   1      26.576  18.980   8.547  0.00  0.00     0.169 HD
ENDBRANCH  16  19
ENDBRANCH  13  16
BRANCH   7  22
HETATM   22  C   UNK N   1      34.141  14.144   4.008  0.00  0.00     0.156 C 
HETATM   23 Cl   UNK N   1      33.884  15.113   2.534  0.00  0.00    -0.127 Cl
ENDBRANCH   7  22
TORSDOF 3
ENDMDL
MODEL 2
REMARK VINA RESULT:      -5.9      9.445     10.724
REMARK  3 active torsions:
REMARK  status: ('A' for Active; 'I' for Inactive)
REMARK    1  A    between atoms: S_4  and  N_11 
REMARK    2  A    between atoms: S_4  and  C_19 
REMARK    3  A    between atoms: C_12  and  C_15 
ROOT
HETATM    1 Cl   UNK N   1      24.506  19.273   2.933  0.00  0.00    -0.083 Cl
HETATM    2  S   UNK N   1      20.732  16.432   7.122  0.00  0.00     0.247 S 
HETATM    3  O   UNK N   1      20.189  17.396   8.187  0.00  0.00    -0.206 OA
HETATM    4  O   UNK N   1      19.486  15.717   6.569  0.00  0.00    -0.206 OA
HETATM    5  N   UNK N   1      21.688  15.244   8.027  0.00  0.00    -0.187 NA
HETATM    6  N   UNK N   1      23.565  15.732   6.557  0.00  0.00    -0.370 N 
HETATM    7  C   UNK N   1      22.710  14.694   7.122  0.00  0.00     0.185 C 
HETATM    8  C   UNK N   1      21.737  17.226   5.905  0.00  0.00     0.102 A 
HETATM    9  C   UNK N   1      23.067  16.819   5.786  0.00  0.00     0.054 A 
HETATM   10  C   UNK N   1      21.231  18.247   5.104  0.00  0.00     0.054 A 
HETATM   11  C   UNK N   1      20.794  14.170   8.448  0.00  0.00     0.132 C 
HETATM   12  C   UNK N   1      23.909  17.476   4.885  0.00  0.00     0.056 A 
HETATM   13  C   UNK N   1      22.057  18.884   4.174  0.00  0.00     0.102 A 
HETATM   14  C   UNK N   1      23.414  18.507   4.076  0.00  0.00     0.059 A 
HETATM   15  H   UNK N   1      24.535  15.678   6.717  0.00  0.00     0.161 HD
ENDROOT
BRANCH  13  16
HETATM   16  S   UNK N   1      21.329  20.125   3.098  0.00  0.00     0.258 S 
HETATM   17  O   UNK N   1      20.164  20.855   3.782  0.00  0.00    -0.201 OA
HETATM   18  O   UNK N   1      22.293  21.286   2.807  0.00  0.00    -0.201 OA
BRANCH  16  19
HETATM   19  N   UNK N   1      20.707  19.652   1.517  0.00  0.00    -0.324 N 
HETATM   20  H   UNK N   1      21.185  19.078   0.822  0.00  0.00     0.169 HD
HETATM   21  H   UNK N   1      19.775  19.986   1.272  0.00  0.00     0.169 HD
ENDBRANCH  16  19
ENDBRANCH  13  16
BRANCH   7  22
HETATM   22  C   UNK N   1      23.587  13.679   7.850  0.00  0.00     0.156 C 
HETATM   23 Cl   UNK N   1      25.309  13.969   7.499  0.00  0.00    -0.127 Cl
ENDBRANCH   7  22
TORSDOF 3
ENDMDL
MODEL 3
REMARK VINA RESULT:      -5.8      3.676      4.172
REMARK  3 active torsions:
REMARK  status: ('A' for Active; 'I' for Inactive)
REMARK    1  A    between atoms: S_4  and  N_11 
REMARK    2  A    between atoms: S_4  and  C_19 
REMARK    3  A    between atoms: C_12  and  C_15 
ROOT
HETATM    1 Cl   UNK N   1      28.168  19.055   8.047  0.00  0.00    -0.083 Cl
HETATM    2  S   UNK N   1      32.556  14.697   6.780  0.00  0.00     0.247 S 
HETATM    3  O   UNK N   1      31.955  13.346   6.364  0.00  0.00    -0.206 OA
HETATM    4  O   UNK N   1      33.575  15.029   5.676  0.00  0.00    -0.206 OA
HETATM    5  N   UNK N   1      33.457  14.355   8.270  0.00  0.00    -0.187 NA
HETATM    6  N   UNK N   1      32.211  16.140   9.356  0.00  0.00    -0.370 N 
HETATM    7  C   UNK N   1      33.531  15.597   9.056  0.00  0.00     0.185 C 
HETATM    8  C   UNK N   1      31.341  15.945   7.075  0.00  0.00     0.102 A 
HETATM    9  C   UNK N   1      31.269  16.501   8.353  0.00  0.00     0.054 A 
HETATM   10  C   UNK N   1      30.460  16.345   6.073  0.00  0.00     0.054 A 
HETATM   11  C   UNK N   1      34.807  13.943   7.898  0.00  0.00     0.132 C 
HETATM   12  C   UNK N   1      30.272  17.438   8.639  0.00  0.00     0.056 A 
HETATM   13  C   UNK N   1      29.484  17.308   6.341  0.00  0.00     0.102 A 
HETATM   14  C   UNK N   1      29.377  17.847   7.642  0.00  0.00     0.059 A 
HETATM   15  H   UNK N   1      31.960  16.264  10.300  0.00  0.00     0.161 HD
ENDROOT
BRANCH  13  16
HETATM   16  S   UNK N   1      28.439  17.862   4.989  0.00  0.00     0.258 S 
HETATM   17  O   UNK N   1      28.709  17.067   3.703  0.00  0.00    -0.201 OA
HETATM   18  O   UNK N   1      26.953  17.558   5.234  0.00  0.00    -0.201 OA
BRANCH  16  19
HETATM   19  N   UNK N   1      28.475  19.555   4.495  0.00  0.00    -0.324 N 
HETATM   20  H   UNK N   1      29.283  20.069   4.143  0.00  0.00     0.169 HD
HETATM   21  H   UNK N   1      27.600  20.073   4.570  0.00  0.00     0.169 HD
ENDBRANCH  16  19
ENDBRANCH  13  16
BRANCH   7  22
HETATM   22  C   UNK N   1      34.275  15.363  10.367  0.00  0.00     0.156 C 
HETATM   23 Cl   UNK N   1      35.355  16.733  10.730  0.00  0.00    -0.127 Cl
ENDBRANCH   7  22
TORSDOF 3
ENDMDL
MODEL 4
REMARK VINA RESULT:      -5.8     13.665     15.115
REMARK  3 active torsions:
REMARK  status: ('A' for Active; 'I' for Inactive)
REMARK    1  A    between atoms: S_4  and  N_11 
REMARK    2  A    between atoms: S_4  and  C_19 
REMARK    3  A    between atoms: C_12  and  C_15 
ROOT
HETATM    1 Cl   UNK N   1      31.407  20.232  -6.750  0.00  0.00    -0.083 Cl
HETATM    2  S   UNK N   1      27.471  24.471  -4.221  0.00  0.00     0.247 S 
HETATM    3  O   UNK N   1      26.789  23.965  -2.942  0.00  0.00    -0.206 OA
HETATM    4  O   UNK N   1      28.067  25.836  -3.834  0.00  0.00    -0.206 OA
HETATM    5  N   UNK N   1      26.143  24.758  -5.362  0.00  0.00    -0.187 NA
HETATM    6  N   UNK N   1      27.297  23.334  -6.962  0.00  0.00    -0.370 N 
HETATM    7  C   UNK N   1      26.678  24.633  -6.728  0.00  0.00     0.185 C 
HETATM    8  C   UNK N   1      28.624  23.320  -4.904  0.00  0.00     0.102 A 
HETATM    9  C   UNK N   1      28.385  22.837  -6.191  0.00  0.00     0.054 A 
HETATM   10  C   UNK N   1      29.726  22.883  -4.172  0.00  0.00     0.054 A 
HETATM   11  C   UNK N   1      25.659  26.120  -5.160  0.00  0.00     0.132 C 
HETATM   12  C   UNK N   1      29.237  21.871  -6.732  0.00  0.00     0.056 A 
HETATM   13  C   UNK N   1      30.604  21.944  -4.721  0.00  0.00     0.102 A 
HETATM   14  C   UNK N   1      30.347  21.419  -6.007  0.00  0.00     0.059 A 
HETATM   15  H   UNK N   1      26.946  22.773  -7.691  0.00  0.00     0.161 HD
ENDROOT
BRANCH  13  16
HETATM   16  S   UNK N   1      32.063  21.489  -3.777  0.00  0.00     0.258 S 
HETATM   17  O   UNK N   1      33.288  22.315  -4.196  0.00  0.00    -0.201 OA
HETATM   18  O   UNK N   1      31.937  21.855  -2.290  0.00  0.00    -0.201 OA
BRANCH  16  19
HETATM   19  N   UNK N   1      32.618  19.814  -3.781  0.00  0.00    -0.324 N 
HETATM   20  H   UNK N   1      33.333  19.412  -4.388  0.00  0.00     0.169 HD
HETATM   21  H   UNK N   1      32.180  19.185  -3.110  0.00  0.00     0.169 HD
ENDBRANCH  16  19
ENDBRANCH  13  16
BRANCH   7  22
HETATM   22  C   UNK N   1      25.575  24.845  -7.761  0.00  0.00     0.156 C 
HETATM   23 Cl   UNK N   1      25.985  26.195  -8.850  0.00  0.00    -0.127 Cl
ENDBRANCH   7  22
TORSDOF 3
ENDMDL
MODEL 5
REMARK VINA RESULT:      -5.8      4.067      6.312
REMARK  3 active torsions:
REMARK  status: ('A' for Active; 'I' for Inactive)
REMARK    1  A    between atoms: S_4  and  N_11 
REMARK    2  A    between atoms: S_4  and  C_19 
REMARK    3  A    between atoms: C_12  and  C_15 
ROOT
HETATM    1 Cl   UNK N   1      29.907  18.763   9.865  0.00  0.00    -0.083 Cl
HETATM    2  S   UNK N   1      28.146  16.468   4.253  0.00  0.00     0.247 S 
HETATM    3  O   UNK N   1      29.189  16.714   3.153  0.00  0.00    -0.206 OA
HETATM    4  O   UNK N   1      27.843  14.961   4.177  0.00  0.00    -0.206 OA
HETATM    5  N   UNK N   1      26.701  17.344   3.715  0.00  0.00    -0.187 NA
HETATM    6  N   UNK N   1      26.671  18.486   5.863  0.00  0.00    -0.370 N 
HETATM    7  C   UNK N   1      25.908  17.696   4.904  0.00  0.00     0.185 C 
HETATM    8  C   UNK N   1      28.654  17.047   5.843  0.00  0.00     0.102 A 
HETATM    9  C   UNK N   1      27.882  18.034   6.459  0.00  0.00     0.054 A 
HETATM   10  C   UNK N   1      29.805  16.558   6.456  0.00  0.00     0.054 A 
HETATM   11  C   UNK N   1      25.920  16.450   2.866  0.00  0.00     0.132 C 
HETATM   12  C   UNK N   1      28.296  18.566   7.683  0.00  0.00     0.056 A 
HETATM   13  C   UNK N   1      30.205  17.059   7.698  0.00  0.00     0.102 A 
HETATM   14  C   UNK N   1      29.453  18.085   8.310  0.00  0.00     0.059 A 
HETATM   15  H   UNK N   1      26.332  19.376   6.111  0.00  0.00     0.161 HD
ENDROOT
BRANCH  13  16
HETATM   16  S   UNK N   1      31.639  16.323   8.491  0.00  0.00     0.258 S 
HETATM   17  O   UNK N   1      32.300  15.264   7.596  0.00  0.00    -0.201 OA
HETATM   18  O   UNK N   1      32.786  17.328   8.679  0.00  0.00    -0.201 OA
BRANCH  16  19
HETATM   19  N   UNK N   1      31.464  15.545  10.064  0.00  0.00    -0.324 N 
HETATM   20  H   UNK N   1      30.753  14.862  10.329  0.00  0.00     0.169 HD
HETATM   21  H   UNK N   1      32.140  15.804  10.782  0.00  0.00     0.169 HD
ENDBRANCH  16  19
ENDBRANCH  13  16
BRANCH   7  22
HETATM   22  C   UNK N   1      24.658  18.477   4.509  0.00  0.00     0.156 C 
HETATM   23 Cl   UNK N   1      25.097  19.962   3.627  0.00  0.00    -0.127 Cl
ENDBRANCH   7  22
TORSDOF 3
ENDMDL
MODEL 6
REMARK VINA RESULT:      -5.7      5.467      6.571
REMARK  3 active torsions:
REMARK  status: ('A' for Active; 'I' for Inactive)
REMARK    1  A    between atoms: S_4  and  N_11 
REMARK    2  A    between atoms: S_4  and  C_19 
REMARK    3  A    between atoms: C_12  and  C_15 
ROOT
HETATM    1 Cl   UNK N   1      31.912  15.374   7.178  0.00  0.00    -0.083 Cl
HETATM    2  S   UNK N   1      36.435  13.885  11.324  0.00  0.00     0.247 S 
HETATM    3  O   UNK N   1      37.846  13.957  10.721  0.00  0.00    -0.206 OA
HETATM    4  O   UNK N   1      36.513  14.730  12.607  0.00  0.00    -0.206 OA
HETATM    5  N   UNK N   1      36.228  12.188  11.798  0.00  0.00    -0.187 NA
HETATM    6  N   UNK N   1      34.174  12.142  10.494  0.00  0.00    -0.370 N 
HETATM    7  C   UNK N   1      34.788  11.883  11.791  0.00  0.00     0.185 C 
HETATM    8  C   UNK N   1      35.164  14.362  10.193  0.00  0.00     0.102 A 
HETATM    9  C   UNK N   1      34.191  13.417   9.863  0.00  0.00     0.054 A 
HETATM   10  C   UNK N   1      35.144  15.633   9.625  0.00  0.00     0.054 A 
HETATM   11  C   UNK N   1      36.744  12.031  13.154  0.00  0.00     0.132 C 
HETATM   12  C   UNK N   1      33.215  13.738   8.916  0.00  0.00     0.056 A 
HETATM   13  C   UNK N   1      34.148  15.974   8.705  0.00  0.00     0.102 A 
HETATM   14  C   UNK N   1      33.185  15.012   8.334  0.00  0.00     0.059 A 
HETATM   15  H   UNK N   1      33.725  11.397  10.032  0.00  0.00     0.161 HD
ENDROOT
BRANCH  13  16
HETATM   16  S   UNK N   1      34.109  17.657   8.078  0.00  0.00     0.258 S 
HETATM   17  O   UNK N   1      35.167  18.539   8.756  0.00  0.00    -0.201 OA
HETATM   18  O   UNK N   1      34.534  17.743   6.604  0.00  0.00    -0.201 OA
BRANCH  16  19
HETATM   19  N   UNK N   1      32.613  18.588   8.168  0.00  0.00    -0.324 N 
HETATM   20  H   UNK N   1      32.394  19.439   7.649  0.00  0.00     0.169 HD
HETATM   21  H   UNK N   1      31.895  18.241   8.803  0.00  0.00     0.169 HD
ENDBRANCH  16  19
ENDBRANCH  13  16
BRANCH   7  22
HETATM   22  C   UNK N   1      34.543  10.425  12.168  0.00  0.00     0.156 C 
HETATM   23 Cl   UNK N   1      33.722  10.312  13.745  0.00  0.00    -0.127 Cl
ENDBRANCH   7  22
TORSDOF 3
ENDMDL
MODEL 7
REMARK VINA RESULT:      -5.7      3.635      5.760
REMARK  3 active torsions:
REMARK  status: ('A' for Active; 'I' for Inactive)
REMARK    1  A    between atoms: S_4  and  N_11 
REMARK    2  A    between atoms: S_4  and  C_19 
REMARK    3  A    between atoms: C_12  and  C_15 
ROOT
HETATM    1 Cl   UNK N   1      34.566  12.047  10.540  0.00  0.00    -0.083 Cl
HETATM    2  S   UNK N   1      33.022  17.021   6.971  0.00  0.00     0.247 S 
HETATM    3  O   UNK N   1      32.465  18.195   7.790  0.00  0.00    -0.206 OA
HETATM    4  O   UNK N   1      34.139  17.638   6.111  0.00  0.00    -0.206 OA
HETATM    5  N   UNK N   1      31.697  16.550   5.891  0.00  0.00    -0.187 NA
HETATM    6  N   UNK N   1      31.916  14.273   6.721  0.00  0.00    -0.370 N 
HETATM    7  C   UNK N   1      31.872  15.131   5.542  0.00  0.00     0.185 C 
HETATM    8  C   UNK N   1      33.519  15.646   7.963  0.00  0.00     0.102 A 
HETATM    9  C   UNK N   1      32.875  14.425   7.761  0.00  0.00     0.054 A 
HETATM   10  C   UNK N   1      34.505  15.779   8.939  0.00  0.00     0.054 A 
HETATM   11  C   UNK N   1      31.793  17.356   4.678  0.00  0.00     0.132 C 
HETATM   12  C   UNK N   1      33.192  13.337   8.579  0.00  0.00     0.056 A 
HETATM   13  C   UNK N   1      34.854  14.685   9.736  0.00  0.00     0.102 A 
HETATM   14  C   UNK N   1      34.180  13.457   9.566  0.00  0.00     0.059 A 
HETATM   15  H   UNK N   1      31.250  13.553   6.801  0.00  0.00     0.161 HD
ENDROOT
BRANCH  13  16
HETATM   16  S   UNK N   1      36.200  14.882  10.909  0.00  0.00     0.258 S 
HETATM   17  O   UNK N   1      36.777  16.305  10.876  0.00  0.00    -0.201 OA
HETATM   18  O   UNK N   1      35.727  14.775  12.367  0.00  0.00    -0.201 OA
BRANCH  16  19
HETATM   19  N   UNK N   1      37.604  13.819  10.815  0.00  0.00    -0.324 N 
HETATM   20  H   UNK N   1      38.437  13.857  11.403  0.00  0.00     0.169 HD
HETATM   21  H   UNK N   1      37.582  13.093  10.099  0.00  0.00     0.169 HD
ENDBRANCH  16  19
ENDBRANCH  13  16
BRANCH   7  22
HETATM   22  C   UNK N   1      30.745  14.655   4.631  0.00  0.00     0.156 C 
HETATM   23 Cl   UNK N   1      29.161  14.895   5.411  0.00  0.00    -0.127 Cl
ENDBRANCH   7  22
TORSDOF 3
ENDMDL
MODEL 8
REMARK VINA RESULT:      -5.6     16.067     16.771
REMARK  3 active torsions:
REMARK  status: ('A' for Active; 'I' for Inactive)
REMARK    1  A    between atoms: S_4  and  N_11 
REMARK    2  A    between atoms: S_4  and  C_19 
REMARK    3  A    between atoms: C_12  and  C_15 
ROOT
HETATM    1 Cl   UNK N   1      28.711  25.941  -3.937  0.00  0.00    -0.083 Cl
HETATM    2  S   UNK N   1      25.479  22.921  -8.442  0.00  0.00     0.247 S 
HETATM    3  O   UNK N   1      24.120  22.397  -7.953  0.00  0.00    -0.206 OA
HETATM    4  O   UNK N   1      25.156  23.712  -9.722  0.00  0.00    -0.206 OA
HETATM    5  N   UNK N   1      26.386  21.470  -8.909  0.00  0.00    -0.187 NA
HETATM    6  N   UNK N   1      28.186  22.202  -7.445  0.00  0.00    -0.370 N 
HETATM    7  C   UNK N   1      27.821  21.769  -8.789  0.00  0.00     0.185 C 
HETATM    8  C   UNK N   1      26.366  23.825  -7.210  0.00  0.00     0.102 A 
HETATM    9  C   UNK N   1      27.611  23.338  -6.809  0.00  0.00     0.054 A 
HETATM   10  C   UNK N   1      25.831  24.974  -6.633  0.00  0.00     0.054 A 
HETATM   11  C   UNK N   1      26.073  21.171 -10.303  0.00  0.00     0.132 C 
HETATM   12  C   UNK N   1      28.305  23.987  -5.785  0.00  0.00     0.056 A 
HETATM   13  C   UNK N   1      26.537  25.651  -5.634  0.00  0.00     0.102 A 
HETATM   14  C   UNK N   1      27.778  25.143  -5.193  0.00  0.00     0.059 A 
HETATM   15  H   UNK N   1      28.863  21.684  -6.953  0.00  0.00     0.161 HD
ENDROOT
BRANCH  13  16
HETATM   16  S   UNK N   1      25.849  27.183  -4.995  0.00  0.00     0.258 S 
HETATM   17  O   UNK N   1      26.622  28.407  -5.508  0.00  0.00    -0.201 OA
HETATM   18  O   UNK N   1      24.437  27.461  -5.532  0.00  0.00    -0.201 OA
BRANCH  16  19
HETATM   19  N   UNK N   1      25.721  27.421  -3.252  0.00  0.00    -0.324 N 
HETATM   20  H   UNK N   1      26.479  27.358  -2.572  0.00  0.00     0.169 HD
HETATM   21  H   UNK N   1      24.796  27.644  -2.886  0.00  0.00     0.169 HD
ENDBRANCH  16  19
ENDBRANCH  13  16
BRANCH   7  22
HETATM   22  C   UNK N   1      28.660  20.547  -9.154  0.00  0.00     0.156 C 
HETATM   23 Cl   UNK N   1      28.886  19.492  -7.736  0.00  0.00    -0.127 Cl
ENDBRANCH   7  22
TORSDOF 3
ENDMDL
MODEL 9
REMARK VINA RESULT:      -5.5      5.610      7.595
REMARK  3 active torsions:
REMARK  status: ('A' for Active; 'I' for Inactive)
REMARK    1  A    between atoms: S_4  and  N_11 
REMARK    2  A    between atoms: S_4  and  C_19 
REMARK    3  A    between atoms: C_12  and  C_15 
ROOT
HETATM    1 Cl   UNK N   1      36.529  14.922  13.918  0.00  0.00    -0.083 Cl
HETATM    2  S   UNK N   1      33.781  14.006   8.309  0.00  0.00     0.247 S 
HETATM    3  O   UNK N   1      34.734  13.402   7.267  0.00  0.00    -0.206 OA
HETATM    4  O   UNK N   1      32.539  13.097   8.278  0.00  0.00    -0.206 OA
HETATM    5  N   UNK N   1      33.320  15.584   7.643  0.00  0.00    -0.187 NA
HETATM    6  N   UNK N   1      34.032  16.602   9.735  0.00  0.00    -0.370 N 
HETATM    7  C   UNK N   1      32.953  16.465   8.763  0.00  0.00     0.185 C 
HETATM    8  C   UNK N   1      34.518  14.207   9.902  0.00  0.00     0.102 A 
HETATM    9  C   UNK N   1      34.607  15.498  10.425  0.00  0.00     0.054 A 
HETATM   10  C   UNK N   1      35.023  13.117  10.607  0.00  0.00     0.054 A 
HETATM   11  C   UNK N   1      32.155  15.390   6.785  0.00  0.00     0.132 C 
HETATM   12  C   UNK N   1      35.250  15.701  11.649  0.00  0.00     0.056 A 
HETATM   13  C   UNK N   1      35.634  13.307  11.849  0.00  0.00     0.102 A 
HETATM   14  C   UNK N   1      35.765  14.614  12.367  0.00  0.00     0.059 A 
HETATM   15  H   UNK N   1      34.381  17.504   9.923  0.00  0.00     0.161 HD
ENDROOT
BRANCH  13  16
HETATM   16  S   UNK N   1      36.177  11.859  12.762  0.00  0.00     0.258 S 
HETATM   17  O   UNK N   1      35.308  11.613  14.004  0.00  0.00    -0.201 OA
HETATM   18  O   UNK N   1      35.966  10.557  11.974  0.00  0.00    -0.201 OA
BRANCH  16  19
HETATM   19  N   UNK N   1      37.840  11.766  13.343  0.00  0.00    -0.324 N 
HETATM   20  H   UNK N   1      38.567  12.471  13.221  0.00  0.00     0.169 HD
HETATM   21  H   UNK N   1      38.102  10.922  13.851  0.00  0.00     0.169 HD
ENDBRANCH  16  19
ENDBRANCH  13  16
BRANCH   7  22
HETATM   22  C   UNK N   1      32.569  17.852   8.257  0.00  0.00     0.156 C 
HETATM   23 Cl   UNK N   1      30.936  18.295   8.815  0.00  0.00    -0.127 Cl
ENDBRANCH   7  22
TORSDOF 3
ENDMDL
