MODEL 1
REMARK VINA RESULT:      -5.0      0.000      0.000
REMARK  4 active torsions:
REMARK  status: ('A' for Active; 'I' for Inactive)
REMARK    1  A    between atoms: O_1  and  C_6 
REMARK    2  A    between atoms: O_2  and  C_11 
REMARK    3  A    between atoms: N_4  and  C_7 
REMARK    4  A    between atoms: C_5  and  C_11 
ROOT
HETATM    1  C   UNK N   1      20.553  19.004   1.815  0.00  0.00     0.070 A 
HETATM    2  C   UNK N   1      20.283  17.862   1.023  0.00  0.00     0.084 A 
HETATM    3  C   UNK N   1      19.860  16.570   3.032  0.00  0.00     0.028 A 
HETATM    4  C   UNK N   1      19.939  16.653   1.639  0.00  0.00     0.066 A 
HETATM    5  C   UNK N   1      20.468  18.899   3.210  0.00  0.00     0.023 A 
HETATM    6  C   UNK N   1      20.124  17.691   3.815  0.00  0.00     0.030 A 
ENDROOT
BRANCH   1   7
HETATM    7  C   UNK N   1      20.923  20.317   1.238  0.00  0.00     0.178 C 
HETATM    8  O   UNK N   1      21.504  21.157   1.907  0.00  0.00    -0.646 OA
BRANCH   7   9
HETATM    9  O   UNK N   1      20.616  20.594  -0.044  0.00  0.00    -0.773 OA
HETATM   10  H   UNK N   1      21.299  20.760  -0.665  0.00  0.00     0.167 HD
ENDBRANCH   7   9
ENDBRANCH   1   7
BRANCH   2  11
HETATM   11  O   UNK N   1      20.352  17.913  -0.321  0.00  0.00    -0.360 OA
HETATM   12  H   UNK N   1      19.683  18.353  -0.807  0.00  0.00     0.217 HD
ENDBRANCH   2  11
BRANCH   3  13
HETATM   13  N   UNK N   1      19.513  15.353   3.647  0.00  0.00    -0.399 N 
HETATM   14  H   UNK N   1      18.588  15.020   3.594  0.00  0.00     0.156 HD
HETATM   15  H   UNK N   1      20.195  14.833   4.131  0.00  0.00     0.156 HD
ENDBRANCH   3  13
TORSDOF 4
ENDMDL
MODEL 2
REMARK VINA RESULT:      -4.9     10.545     11.672
REMARK  4 active torsions:
REMARK  status: ('A' for Active; 'I' for Inactive)
REMARK    1  A    between atoms: O_1  and  C_6 
REMARK    2  A    between atoms: O_2  and  C_11 
REMARK    3  A    between atoms: N_4  and  C_7 
REMARK    4  A    between atoms: C_5  and  C_11 
ROOT
HETATM    1  C   UNK N   1      23.121  12.232  11.324  0.00  0.00     0.070 A 
HETATM    2  C   UNK N   1      24.284  12.620  10.616  0.00  0.00     0.084 A 
HETATM    3  C   UNK N   1      22.965  12.892   8.598  0.00  0.00     0.028 A 
HETATM    4  C   UNK N   1      24.196  12.947   9.258  0.00  0.00     0.066 A 
HETATM    5  C   UNK N   1      21.896  12.184  10.643  0.00  0.00     0.023 A 
HETATM    6  C   UNK N   1      21.818  12.511   9.290  0.00  0.00     0.030 A 
ENDROOT
BRANCH   1   7
HETATM    7  C   UNK N   1      23.133  11.872  12.760  0.00  0.00     0.178 C 
HETATM    8  O   UNK N   1      24.006  12.289  13.506  0.00  0.00    -0.646 OA
BRANCH   7   9
HETATM    9  O   UNK N   1      22.169  11.074  13.257  0.00  0.00    -0.773 OA
HETATM   10  H   UNK N   1      22.095  10.188  12.961  0.00  0.00     0.167 HD
ENDBRANCH   7   9
ENDBRANCH   1   7
BRANCH   2  11
HETATM   11  O   UNK N   1      25.483  12.682  11.226  0.00  0.00    -0.360 OA
HETATM   12  H   UNK N   1      25.714  13.437  11.728  0.00  0.00     0.217 HD
ENDBRANCH   2  11
BRANCH   3  13
HETATM   13  N   UNK N   1      22.881  13.221   7.232  0.00  0.00    -0.399 N 
HETATM   14  H   UNK N   1      23.176  12.574   6.551  0.00  0.00     0.156 HD
HETATM   15  H   UNK N   1      22.528  14.098   6.958  0.00  0.00     0.156 HD
ENDBRANCH   3  13
TORSDOF 4
ENDMDL
MODEL 3
REMARK VINA RESULT:      -4.9     13.311     13.972
REMARK  4 active torsions:
REMARK  status: ('A' for Active; 'I' for Inactive)
REMARK    1  A    between atoms: O_1  and  C_6 
REMARK    2  A    between atoms: O_2  and  C_11 
REMARK    3  A    between atoms: N_4  and  C_7 
REMARK    4  A    between atoms: C_5  and  C_11 
ROOT
HETATM    1  C   UNK N   1      33.395  17.740   7.535  0.00  0.00     0.070 A 
HETATM    2  C   UNK N   1      32.030  17.525   7.844  0.00  0.00     0.084 A 
HETATM    3  C   UNK N   1      31.573  17.069   5.506  0.00  0.00     0.028 A 
HETATM    4  C   UNK N   1      31.130  17.191   6.825  0.00  0.00     0.066 A 
HETATM    5  C   UNK N   1      33.819  17.612   6.204  0.00  0.00     0.023 A 
HETATM    6  C   UNK N   1      32.915  17.279   5.197  0.00  0.00     0.030 A 
ENDROOT
BRANCH   1   7
HETATM    7  C   UNK N   1      34.407  18.096   8.556  0.00  0.00     0.178 C 
HETATM    8  O   UNK N   1      35.178  19.027   8.380  0.00  0.00    -0.646 OA
BRANCH   7   9
HETATM    9  O   UNK N   1      34.482  17.386   9.698  0.00  0.00    -0.773 OA
HETATM   10  H   UNK N   1      35.148  16.734   9.802  0.00  0.00     0.167 HD
ENDBRANCH   7   9
ENDBRANCH   1   7
BRANCH   2  11
HETATM   11  O   UNK N   1      31.575  17.636   9.106  0.00  0.00    -0.360 OA
HETATM   12  H   UNK N   1      30.818  18.156   9.287  0.00  0.00     0.217 HD
ENDBRANCH   2  11
BRANCH   3  13
HETATM   13  N   UNK N   1      30.664  16.733   4.485  0.00  0.00    -0.399 N 
HETATM   14  H   UNK N   1      30.623  15.809   4.146  0.00  0.00     0.156 HD
HETATM   15  H   UNK N   1      30.069  17.421   4.109  0.00  0.00     0.156 HD
ENDBRANCH   3  13
TORSDOF 4
ENDMDL
MODEL 4
REMARK VINA RESULT:      -4.9      0.832      2.084
REMARK  4 active torsions:
REMARK  status: ('A' for Active; 'I' for Inactive)
REMARK    1  A    between atoms: O_1  and  C_6 
REMARK    2  A    between atoms: O_2  and  C_11 
REMARK    3  A    between atoms: N_4  and  C_7 
REMARK    4  A    between atoms: C_5  and  C_11 
ROOT
HETATM    1  C   UNK N   1      20.565  19.147   1.868  0.00  0.00     0.070 A 
HETATM    2  C   UNK N   1      20.438  19.008   3.271  0.00  0.00     0.084 A 
HETATM    3  C   UNK N   1      19.882  16.663   2.988  0.00  0.00     0.028 A 
HETATM    4  C   UNK N   1      20.097  17.766   3.819  0.00  0.00     0.066 A 
HETATM    5  C   UNK N   1      20.345  18.028   1.052  0.00  0.00     0.023 A 
HETATM    6  C   UNK N   1      20.006  16.795   1.606  0.00  0.00     0.030 A 
ENDROOT
BRANCH   1   7
HETATM    7  C   UNK N   1      20.923  20.426   1.213  0.00  0.00     0.178 C 
HETATM    8  O   UNK N   1      21.483  21.316   1.835  0.00  0.00    -0.646 OA
BRANCH   7   9
HETATM    9  O   UNK N   1      20.628  20.616  -0.087  0.00  0.00    -0.773 OA
HETATM   10  H   UNK N   1      20.753  21.458  -0.479  0.00  0.00     0.167 HD
ENDBRANCH   7   9
ENDBRANCH   1   7
BRANCH   2  11
HETATM   11  O   UNK N   1      20.639  20.052   4.096  0.00  0.00    -0.360 OA
HETATM   12  H   UNK N   1      19.952  20.671   4.244  0.00  0.00     0.217 HD
ENDBRANCH   2  11
BRANCH   3  13
HETATM   13  N   UNK N   1      19.539  15.417   3.544  0.00  0.00    -0.399 N 
HETATM   14  H   UNK N   1      19.632  14.596   3.008  0.00  0.00     0.156 HD
HETATM   15  H   UNK N   1      19.206  15.365   4.469  0.00  0.00     0.156 HD
ENDBRANCH   3  13
TORSDOF 4
ENDMDL
MODEL 5
REMARK VINA RESULT:      -4.9     13.109     13.711
REMARK  4 active torsions:
REMARK  status: ('A' for Active; 'I' for Inactive)
REMARK    1  A    between atoms: O_1  and  C_6 
REMARK    2  A    between atoms: O_2  and  C_11 
REMARK    3  A    between atoms: N_4  and  C_7 
REMARK    4  A    between atoms: C_5  and  C_11 
ROOT
HETATM    1  C   UNK N   1      33.065  17.767   7.816  0.00  0.00     0.070 A 
HETATM    2  C   UNK N   1      33.135  17.493   6.429  0.00  0.00     0.084 A 
HETATM    3  C   UNK N   1      30.738  17.126   6.379  0.00  0.00     0.028 A 
HETATM    4  C   UNK N   1      31.970  17.175   5.722  0.00  0.00     0.066 A 
HETATM    5  C   UNK N   1      31.819  17.712   8.457  0.00  0.00     0.023 A 
HETATM    6  C   UNK N   1      30.664  17.394   7.745  0.00  0.00     0.030 A 
ENDROOT
BRANCH   1   7
HETATM    7  C   UNK N   1      34.252  18.111   8.632  0.00  0.00     0.178 C 
HETATM    8  O   UNK N   1      34.997  19.023   8.306  0.00  0.00    -0.646 OA
BRANCH   7   9
HETATM    9  O   UNK N   1      34.519  17.411   9.751  0.00  0.00    -0.773 OA
HETATM   10  H   UNK N   1      34.361  16.487   9.776  0.00  0.00     0.167 HD
ENDBRANCH   7   9
ENDBRANCH   1   7
BRANCH   2  11
HETATM   11  O   UNK N   1      34.308  17.533   5.769  0.00  0.00    -0.360 OA
HETATM   12  H   UNK N   1      35.104  17.690   6.238  0.00  0.00     0.217 HD
ENDBRANCH   2  11
BRANCH   3  13
HETATM   13  N   UNK N   1      29.569  16.805   5.665  0.00  0.00    -0.399 N 
HETATM   14  H   UNK N   1      29.514  16.993   4.700  0.00  0.00     0.156 HD
HETATM   15  H   UNK N   1      28.805  16.393   6.129  0.00  0.00     0.156 HD
ENDBRANCH   3  13
TORSDOF 4
ENDMDL
MODEL 6
REMARK VINA RESULT:      -4.7     11.182     12.011
REMARK  4 active torsions:
REMARK  status: ('A' for Active; 'I' for Inactive)
REMARK    1  A    between atoms: O_1  and  C_6 
REMARK    2  A    between atoms: O_2  and  C_11 
REMARK    3  A    between atoms: N_4  and  C_7 
REMARK    4  A    between atoms: C_5  and  C_11 
ROOT
HETATM    1  C   UNK N   1      25.952  25.047  -5.192  0.00  0.00     0.070 A 
HETATM    2  C   UNK N   1      26.394  25.274  -3.867  0.00  0.00     0.084 A 
HETATM    3  C   UNK N   1      25.775  27.611  -4.061  0.00  0.00     0.028 A 
HETATM    4  C   UNK N   1      26.302  26.556  -3.312  0.00  0.00     0.066 A 
HETATM    5  C   UNK N   1      25.426  26.120  -5.926  0.00  0.00     0.023 A 
HETATM    6  C   UNK N   1      25.338  27.393  -5.365  0.00  0.00     0.030 A 
ENDROOT
BRANCH   1   7
HETATM    7  C   UNK N   1      26.016  23.720  -5.848  0.00  0.00     0.178 C 
HETATM    8  O   UNK N   1      25.005  23.171  -6.258  0.00  0.00    -0.646 OA
BRANCH   7   9
HETATM    9  O   UNK N   1      27.206  23.107  -5.999  0.00  0.00    -0.773 OA
HETATM   10  H   UNK N   1      27.967  23.607  -6.221  0.00  0.00     0.167 HD
ENDBRANCH   7   9
ENDBRANCH   1   7
BRANCH   2  11
HETATM   11  O   UNK N   1      26.906  24.276  -3.122  0.00  0.00    -0.360 OA
HETATM   12  H   UNK N   1      27.034  23.428  -3.500  0.00  0.00     0.217 HD
ENDBRANCH   2  11
BRANCH   3  13
HETATM   13  N   UNK N   1      25.684  28.898  -3.499  0.00  0.00    -0.399 N 
HETATM   14  H   UNK N   1      25.505  29.004  -2.536  0.00  0.00     0.156 HD
HETATM   15  H   UNK N   1      25.801  29.694  -4.067  0.00  0.00     0.156 HD
ENDBRANCH   3  13
TORSDOF 4
ENDMDL
MODEL 7
REMARK VINA RESULT:      -4.6     21.906     22.717
REMARK  4 active torsions:
REMARK  status: ('A' for Active; 'I' for Inactive)
REMARK    1  A    between atoms: O_1  and  C_6 
REMARK    2  A    between atoms: O_2  and  C_11 
REMARK    3  A    between atoms: N_4  and  C_7 
REMARK    4  A    between atoms: C_5  and  C_11 
ROOT
HETATM    1  C   UNK N   1      42.006  21.371   2.621  0.00  0.00     0.070 A 
HETATM    2  C   UNK N   1      42.413  22.726   2.638  0.00  0.00     0.084 A 
HETATM    3  C   UNK N   1      44.528  22.077   3.635  0.00  0.00     0.028 A 
HETATM    4  C   UNK N   1      43.672  23.068   3.145  0.00  0.00     0.066 A 
HETATM    5  C   UNK N   1      42.879  20.392   3.116  0.00  0.00     0.023 A 
HETATM    6  C   UNK N   1      44.131  20.742   3.620  0.00  0.00     0.030 A 
ENDROOT
BRANCH   1   7
HETATM    7  C   UNK N   1      40.690  20.930   2.101  0.00  0.00     0.178 C 
HETATM    8  O   UNK N   1      40.614  20.158   1.157  0.00  0.00    -0.646 OA
BRANCH   7   9
HETATM    9  O   UNK N   1      39.559  21.384   2.673  0.00  0.00    -0.773 OA
HETATM   10  H   UNK N   1      39.440  22.304   2.811  0.00  0.00     0.167 HD
ENDBRANCH   7   9
ENDBRANCH   1   7
BRANCH   2  11
HETATM   11  O   UNK N   1      41.610  23.702   2.174  0.00  0.00    -0.360 OA
HETATM   12  H   UNK N   1      41.630  23.932   1.266  0.00  0.00     0.217 HD
ENDBRANCH   2  11
BRANCH   3  13
HETATM   13  N   UNK N   1      45.792  22.426   4.144  0.00  0.00    -0.399 N 
HETATM   14  H   UNK N   1      46.120  22.012   4.975  0.00  0.00     0.156 HD
HETATM   15  H   UNK N   1      46.350  23.084   3.669  0.00  0.00     0.156 HD
ENDBRANCH   3  13
TORSDOF 4
ENDMDL
MODEL 8
REMARK VINA RESULT:      -4.6     12.639     13.265
REMARK  4 active torsions:
REMARK  status: ('A' for Active; 'I' for Inactive)
REMARK    1  A    between atoms: O_1  and  C_6 
REMARK    2  A    between atoms: O_2  and  C_11 
REMARK    3  A    between atoms: N_4  and  C_7 
REMARK    4  A    between atoms: C_5  and  C_11 
ROOT
HETATM    1  C   UNK N   1      32.220  17.343   6.913  0.00  0.00     0.070 A 
HETATM    2  C   UNK N   1      33.327  17.559   6.058  0.00  0.00     0.084 A 
HETATM    3  C   UNK N   1      31.885  17.297   4.124  0.00  0.00     0.028 A 
HETATM    4  C   UNK N   1      33.150  17.534   4.669  0.00  0.00     0.066 A 
HETATM    5  C   UNK N   1      30.959  17.107   6.346  0.00  0.00     0.023 A 
HETATM    6  C   UNK N   1      30.792  17.084   4.962  0.00  0.00     0.030 A 
ENDROOT
BRANCH   1   7
HETATM    7  C   UNK N   1      32.327  17.354   8.390  0.00  0.00     0.178 C 
HETATM    8  O   UNK N   1      33.346  16.979   8.950  0.00  0.00    -0.646 OA
BRANCH   7   9
HETATM    9  O   UNK N   1      31.288  17.783   9.132  0.00  0.00    -0.773 OA
HETATM   10  H   UNK N   1      31.240  18.681   9.397  0.00  0.00     0.167 HD
ENDBRANCH   7   9
ENDBRANCH   1   7
BRANCH   2  11
HETATM   11  O   UNK N   1      34.557  17.790   6.555  0.00  0.00    -0.360 OA
HETATM   12  H   UNK N   1      34.671  17.939   7.472  0.00  0.00     0.217 HD
ENDBRANCH   2  11
BRANCH   3  13
HETATM   13  N   UNK N   1      31.712  17.273   2.728  0.00  0.00    -0.399 N 
HETATM   14  H   UNK N   1      31.754  16.419   2.241  0.00  0.00     0.156 HD
HETATM   15  H   UNK N   1      31.549  18.111   2.237  0.00  0.00     0.156 HD
ENDBRANCH   3  13
TORSDOF 4
ENDMDL
MODEL 9
REMARK VINA RESULT:      -4.6      9.854     10.624
REMARK  4 active torsions:
REMARK  status: ('A' for Active; 'I' for Inactive)
REMARK    1  A    between atoms: O_1  and  C_6 
REMARK    2  A    between atoms: O_2  and  C_11 
REMARK    3  A    between atoms: N_4  and  C_7 
REMARK    4  A    between atoms: C_5  and  C_11 
ROOT
HETATM    1  C   UNK N   1      29.030  18.094   7.626  0.00  0.00     0.070 A 
HETATM    2  C   UNK N   1      28.252  18.569   6.543  0.00  0.00     0.084 A 
HETATM    3  C   UNK N   1      29.811  17.562   4.981  0.00  0.00     0.028 A 
HETATM    4  C   UNK N   1      28.649  18.299   5.228  0.00  0.00     0.066 A 
HETATM    5  C   UNK N   1      30.192  17.357   7.356  0.00  0.00     0.023 A 
HETATM    6  C   UNK N   1      30.580  17.092   6.044  0.00  0.00     0.030 A 
ENDROOT
BRANCH   1   7
HETATM    7  C   UNK N   1      28.675  18.339   9.043  0.00  0.00     0.178 C 
HETATM    8  O   UNK N   1      29.516  18.715   9.846  0.00  0.00    -0.646 OA
BRANCH   7   9
HETATM    9  O   UNK N   1      27.409  18.145   9.458  0.00  0.00    -0.773 OA
HETATM   10  H   UNK N   1      27.242  17.811  10.317  0.00  0.00     0.167 HD
ENDBRANCH   7   9
ENDBRANCH   1   7
BRANCH   2  11
HETATM   11  O   UNK N   1      27.128  19.281   6.752  0.00  0.00    -0.360 OA
HETATM   12  H   UNK N   1      26.594  19.536   6.026  0.00  0.00     0.217 HD
ENDBRANCH   2  11
BRANCH   3  13
HETATM   13  N   UNK N   1      30.207  17.292   3.658  0.00  0.00    -0.399 N 
HETATM   14  H   UNK N   1      30.656  17.989   3.126  0.00  0.00     0.156 HD
HETATM   15  H   UNK N   1      30.035  16.407   3.263  0.00  0.00     0.156 HD
ENDBRANCH   3  13
TORSDOF 4
ENDMDL
