REMARK  4 active torsions:
REMARK  status: ('A' for Active; 'I' for Inactive)
REMARK    1  A    between atoms: O_1  and  C_6 
REMARK    2  A    between atoms: O_2  and  C_11 
REMARK    3  A    between atoms: N_4  and  C_7 
REMARK    4  A    between atoms: C_5  and  C_11 
ROOT
HETATM    1  C   UNK N   1       3.649   0.757   0.000  0.00  0.00     0.070 A 
HETATM    2  C   UNK N   1       2.496  -0.064  -0.000  0.00  0.00     0.084 A 
HETATM    3  C   UNK N   1       3.903  -2.040  -0.000  0.00  0.00     0.028 A 
HETATM    4  C   UNK N   1       2.633  -1.457  -0.000  0.00  0.00     0.066 A 
HETATM    5  C   UNK N   1       4.914   0.152   0.000  0.00  0.00     0.023 A 
HETATM    6  C   UNK N   1       5.041  -1.236   0.000  0.00  0.00     0.030 A 
ENDROOT
BRANCH   1   7
HETATM    7  C   UNK N   1       3.586   2.237   0.000  0.00  0.00     0.178 C 
HETATM    8  O   UNK N   1       2.513   2.821   0.000  0.00  0.00    -0.646 OA
BRANCH   7   9
HETATM    9  O   UNK N   1       4.726   2.954   0.000  0.00  0.00    -0.773 OA
HETATM   10  H   UNK N   1       5.555   2.517  -0.000  0.00  0.00     0.167 HD
ENDBRANCH   7   9
ENDBRANCH   1   7
BRANCH   2  11
HETATM   11  O   UNK N   1       1.260   0.470  -0.000  0.00  0.00    -0.360 OA
HETATM   12  H   UNK N   1       1.152   1.400   0.000  0.00  0.00     0.217 HD
ENDBRANCH   2  11
BRANCH   3  13
HETATM   13  N   UNK N   1       4.036  -3.441  -0.000  0.00  0.00    -0.399 N 
HETATM   14  H   UNK N   1       3.234  -4.012  -0.000  0.00  0.00     0.156 HD
HETATM   15  H   UNK N   1       4.931  -3.851  -0.000  0.00  0.00     0.156 HD
ENDBRANCH   3  13
TORSDOF 4
