REMARK  1 active torsions:
REMARK  status: ('A' for Active; 'I' for Inactive)
REMARK    1  A    between atoms: C_6  and  C_8 
ROOT
HETATM    1  O   UNK N   1       7.436  -1.881  -0.002  0.00  0.00    -0.267 OA
HETATM    2  N   UNK N   1       5.197  -2.054  -0.000  0.00  0.00    -0.326 N 
HETATM    3  N   UNK N   1       8.259   1.757  -0.001  0.00  0.00    -0.191 NA
HETATM    4  C   UNK N   1       3.872  -0.047   0.001  0.00  0.00    -0.002 A 
HETATM    5  C   UNK N   1       3.965  -1.465   0.001  0.00  0.00     0.019 A 
HETATM    6  C   UNK N   1       5.050   0.683   0.001  0.00  0.00     0.042 A 
HETATM    7  C   UNK N   1       6.281   0.086  -0.000  0.00  0.00     0.113 A 
HETATM    8  C   UNK N   1       2.761  -2.346   0.001  0.00  0.00     0.069 C 
HETATM    9  C   UNK N   1       6.357  -1.314  -0.001  0.00  0.00     0.266 A 
HETATM   10  C   UNK N   1       7.408   0.974  -0.001  0.00  0.00     0.105 C 
HETATM   11  H   UNK N   1       5.256  -3.037  -0.001  0.00  0.00     0.169 HD
ENDROOT
BRANCH   4  12
HETATM   12  C   UNK N   1       2.619   0.748   0.001  0.00  0.00    -0.021 A 
HETATM   13  C   UNK N   1       1.354   0.158   0.001  0.00  0.00     0.029 A 
HETATM   14  C   UNK N   1       0.217   0.966  -0.000  0.00  0.00     0.088 A 
HETATM   15  N   UNK N   1       0.337   2.321  -0.000  0.00  0.00    -0.375 N 
HETATM   16  C   UNK N   1       1.552   2.925   0.000  0.00  0.00     0.088 A 
ATOM     17  HN  UNK N   1      -0.506   2.896  -0.001  1.00  0.00     0.164 HD
HETATM   18  C   UNK N   1       2.706   2.153   0.001  0.00  0.00     0.029 A 
ENDBRANCH   4  12
TORSDOF 1
