MODEL 1
REMARK VINA RESULT:      -6.2      0.000      0.000
REMARK  1 active torsions:
REMARK  status: ('A' for Active; 'I' for Inactive)
REMARK    1  A    between atoms: C_6  and  C_8 
ROOT
HETATM    1  O   UNK N   1      19.350  16.136   6.109  0.00  0.00    -0.267 OA
HETATM    2  N   UNK N   1      20.365  14.187   6.571  0.00  0.00    -0.326 N 
HETATM    3  N   UNK N   1      19.747  18.321   9.107  0.00  0.00    -0.191 NA
HETATM    4  C   UNK N   1      21.419  13.899   8.714  0.00  0.00    -0.002 A 
HETATM    5  C   UNK N   1      21.070  13.395   7.431  0.00  0.00     0.019 A 
HETATM    6  C   UNK N   1      21.023  15.187   9.037  0.00  0.00     0.042 A 
HETATM    7  C   UNK N   1      20.317  15.975   8.170  0.00  0.00     0.113 A 
HETATM    8  C   UNK N   1      21.446  12.023   6.982  0.00  0.00     0.069 C 
HETATM    9  C   UNK N   1      19.979  15.464   6.908  0.00  0.00     0.266 A 
HETATM   10  C   UNK N   1      19.978  17.285   8.647  0.00  0.00     0.105 C 
HETATM   11  H   UNK N   1      20.125  13.833   5.684  0.00  0.00     0.169 HD
ENDROOT
BRANCH   4  12
HETATM   12  C   UNK N   1      22.177  13.174   9.763  0.00  0.00    -0.021 A 
HETATM   13  C   UNK N   1      21.562  12.607  10.880  0.00  0.00     0.029 A 
HETATM   14  C   UNK N   1      22.336  11.940  11.829  0.00  0.00     0.088 A 
HETATM   15  N   UNK N   1      23.683  11.839  11.669  0.00  0.00    -0.375 N 
HETATM   16  C   UNK N   1      24.311  12.378  10.594  0.00  0.00     0.088 A 
ATOM     17  HN  UNK N   1      24.233  11.347  12.373  1.00  0.00     0.164 HD
HETATM   18  C   UNK N   1      23.573  13.050   9.629  0.00  0.00     0.029 A 
ENDBRANCH   4  12
TORSDOF 1
ENDMDL
MODEL 2
REMARK VINA RESULT:      -5.9     16.667     18.156
REMARK  1 active torsions:
REMARK  status: ('A' for Active; 'I' for Inactive)
REMARK    1  A    between atoms: C_6  and  C_8 
ROOT
HETATM    1  O   UNK N   1      24.198  27.386  -5.720  0.00  0.00    -0.267 OA
HETATM    2  N   UNK N   1      25.126  25.348  -5.891  0.00  0.00    -0.326 N 
HETATM    3  N   UNK N   1      26.204  29.302  -3.227  0.00  0.00    -0.191 NA
HETATM    4  C   UNK N   1      27.059  24.830  -4.558  0.00  0.00    -0.002 A 
HETATM    5  C   UNK N   1      26.085  24.450  -5.520  0.00  0.00     0.019 A 
HETATM    6  C   UNK N   1      26.991  26.111  -4.034  0.00  0.00     0.042 A 
HETATM    7  C   UNK N   1      26.027  27.006  -4.410  0.00  0.00     0.113 A 
HETATM    8  C   UNK N   1      26.066  23.096  -6.147  0.00  0.00     0.069 C 
HETATM    9  C   UNK N   1      25.072  26.616  -5.360  0.00  0.00     0.266 A 
HETATM   10  C   UNK N   1      26.086  28.293  -3.779  0.00  0.00     0.105 C 
HETATM   11  H   UNK N   1      24.452  25.079  -6.558  0.00  0.00     0.169 HD
ENDROOT
BRANCH   4  12
HETATM   12  C   UNK N   1      28.163  23.980  -4.047  0.00  0.00    -0.021 A 
HETATM   13  C   UNK N   1      29.170  23.478  -4.872  0.00  0.00     0.029 A 
HETATM   14  C   UNK N   1      30.178  22.684  -4.325  0.00  0.00     0.088 A 
HETATM   15  N   UNK N   1      30.182  22.400  -2.995  0.00  0.00    -0.375 N 
HETATM   16  C   UNK N   1      29.218  22.873  -2.166  0.00  0.00     0.088 A 
ATOM     17  HN  UNK N   1      30.928  21.817  -2.612  1.00  0.00     0.164 HD
HETATM   18  C   UNK N   1      28.199  23.666  -2.675  0.00  0.00     0.029 A 
ENDBRANCH   4  12
TORSDOF 1
ENDMDL
MODEL 3
REMARK VINA RESULT:      -5.7      9.239     10.396
REMARK  1 active torsions:
REMARK  status: ('A' for Active; 'I' for Inactive)
REMARK    1  A    between atoms: C_6  and  C_8 
ROOT
HETATM    1  O   UNK N   1      27.095  18.292   5.830  0.00  0.00    -0.267 OA
HETATM    2  N   UNK N   1      28.372  18.389   7.675  0.00  0.00    -0.326 N 
HETATM    3  N   UNK N   1      29.122  16.634   3.174  0.00  0.00    -0.191 NA
HETATM    4  C   UNK N   1      30.602  17.490   7.599  0.00  0.00    -0.002 A 
HETATM    5  C   UNK N   1      29.553  18.132   8.311  0.00  0.00     0.019 A 
HETATM    6  C   UNK N   1      30.376  17.148   6.275  0.00  0.00     0.042 A 
HETATM    7  C   UNK N   1      29.190  17.408   5.644  0.00  0.00     0.113 A 
HETATM    8  C   UNK N   1      29.689  18.542   9.739  0.00  0.00     0.069 C 
HETATM    9  C   UNK N   1      28.165  18.043   6.359  0.00  0.00     0.266 A 
HETATM   10  C   UNK N   1      29.107  16.997   4.272  0.00  0.00     0.105 C 
HETATM   11  H   UNK N   1      27.649  18.835   8.173  0.00  0.00     0.169 HD
ENDROOT
BRANCH   4  12
HETATM   12  C   UNK N   1      31.940  17.141   8.138  0.00  0.00    -0.021 A 
HETATM   13  C   UNK N   1      32.204  15.921   8.764  0.00  0.00     0.029 A 
HETATM   14  C   UNK N   1      33.485  15.659   9.248  0.00  0.00     0.088 A 
HETATM   15  N   UNK N   1      34.474  16.583   9.112  0.00  0.00    -0.375 N 
HETATM   16  C   UNK N   1      34.249  17.777   8.508  0.00  0.00     0.088 A 
ATOM     17  HN  UNK N   1      35.405  16.374   9.472  1.00  0.00     0.164 HD
HETATM   18  C   UNK N   1      32.986  18.074   8.014  0.00  0.00     0.029 A 
ENDBRANCH   4  12
TORSDOF 1
ENDMDL
MODEL 4
REMARK VINA RESULT:      -5.6      2.080      5.276
REMARK  1 active torsions:
REMARK  status: ('A' for Active; 'I' for Inactive)
REMARK    1  A    between atoms: C_6  and  C_8 
ROOT
HETATM    1  O   UNK N   1      22.925  11.227   8.389  0.00  0.00    -0.267 OA
HETATM    2  N   UNK N   1      21.673  12.769   7.342  0.00  0.00    -0.326 N 
HETATM    3  N   UNK N   1      22.970  12.119  12.010  0.00  0.00    -0.191 NA
HETATM    4  C   UNK N   1      20.688  14.544   8.632  0.00  0.00    -0.002 A 
HETATM    5  C   UNK N   1      20.905  13.898   7.385  0.00  0.00     0.019 A 
HETATM    6  C   UNK N   1      21.272  13.993   9.762  0.00  0.00     0.042 A 
HETATM    7  C   UNK N   1      22.040  12.862   9.711  0.00  0.00     0.113 A 
HETATM    8  C   UNK N   1      20.324  14.406   6.109  0.00  0.00     0.069 C 
HETATM    9  C   UNK N   1      22.246  12.236   8.473  0.00  0.00     0.266 A 
HETATM   10  C   UNK N   1      22.578  12.413  10.963  0.00  0.00     0.105 C 
HETATM   11  H   UNK N   1      21.821  12.326   6.475  0.00  0.00     0.169 HD
ENDROOT
BRANCH   4  12
HETATM   12  C   UNK N   1      19.886  15.772   8.854  0.00  0.00    -0.021 A 
HETATM   13  C   UNK N   1      20.394  17.053   8.630  0.00  0.00     0.029 A 
HETATM   14  C   UNK N   1      19.583  18.165   8.860  0.00  0.00     0.088 A 
HETATM   15  N   UNK N   1      18.305  18.006   9.298  0.00  0.00    -0.375 N 
HETATM   16  C   UNK N   1      17.782  16.774   9.524  0.00  0.00     0.088 A 
ATOM     17  HN  UNK N   1      17.728  18.831   9.461  1.00  0.00     0.164 HD
HETATM   18  C   UNK N   1      18.559  15.644   9.307  0.00  0.00     0.029 A 
ENDBRANCH   4  12
TORSDOF 1
ENDMDL
MODEL 5
REMARK VINA RESULT:      -5.6     14.323     16.190
REMARK  1 active torsions:
REMARK  status: ('A' for Active; 'I' for Inactive)
REMARK    1  A    between atoms: C_6  and  C_8 
ROOT
HETATM    1  O   UNK N   1      36.207  13.371  11.728  0.00  0.00    -0.267 OA
HETATM    2  N   UNK N   1      36.706  14.139  13.779  0.00  0.00    -0.326 N 
HETATM    3  N   UNK N   1      33.982  10.411  12.172  0.00  0.00    -0.191 NA
HETATM    4  C   UNK N   1      35.796  13.013  15.699  0.00  0.00    -0.002 A 
HETATM    5  C   UNK N   1      36.589  14.049  15.136  0.00  0.00     0.019 A 
HETATM    6  C   UNK N   1      35.168  12.130  14.835  0.00  0.00     0.042 A 
HETATM    7  C   UNK N   1      35.289  12.227  13.475  0.00  0.00     0.113 A 
HETATM    8  C   UNK N   1      37.308  15.052  15.975  0.00  0.00     0.069 C 
HETATM    9  C   UNK N   1      36.076  13.254  12.934  0.00  0.00     0.266 A 
HETATM   10  C   UNK N   1      34.581  11.240  12.711  0.00  0.00     0.105 C 
HETATM   11  H   UNK N   1      37.257  14.858  13.394  0.00  0.00     0.169 HD
ENDROOT
BRANCH   4  12
HETATM   12  C   UNK N   1      35.566  12.774  17.146  0.00  0.00    -0.021 A 
HETATM   13  C   UNK N   1      35.658  11.506  17.722  0.00  0.00     0.029 A 
HETATM   14  C   UNK N   1      35.429  11.353  19.090  0.00  0.00     0.088 A 
HETATM   15  N   UNK N   1      35.118  12.430  19.859  0.00  0.00    -0.375 N 
HETATM   16  C   UNK N   1      35.021  13.676  19.329  0.00  0.00     0.088 A 
ATOM     17  HN  UNK N   1      34.953  12.299  20.858  1.00  0.00     0.164 HD
HETATM   18  C   UNK N   1      35.243  13.867  17.972  0.00  0.00     0.029 A 
ENDBRANCH   4  12
TORSDOF 1
ENDMDL
MODEL 6
REMARK VINA RESULT:      -5.6      9.581     11.286
REMARK  1 active torsions:
REMARK  status: ('A' for Active; 'I' for Inactive)
REMARK    1  A    between atoms: C_6  and  C_8 
ROOT
HETATM    1  O   UNK N   1      33.617  17.618   9.093  0.00  0.00    -0.267 OA
HETATM    2  N   UNK N   1      31.393  17.881   8.921  0.00  0.00    -0.326 N 
HETATM    3  N   UNK N   1      34.820  16.270   5.830  0.00  0.00    -0.191 NA
HETATM    4  C   UNK N   1      30.305  17.299   6.857  0.00  0.00    -0.002 A 
HETATM    5  C   UNK N   1      30.244  17.787   8.190  0.00  0.00     0.019 A 
HETATM    6  C   UNK N   1      31.544  16.937   6.352  0.00  0.00     0.042 A 
HETATM    7  C   UNK N   1      32.692  17.034   7.091  0.00  0.00     0.113 A 
HETATM    8  C   UNK N   1      28.963  18.204   8.831  0.00  0.00     0.069 C 
HETATM    9  C   UNK N   1      32.615  17.517   8.405  0.00  0.00     0.266 A 
HETATM   10  C   UNK N   1      33.898  16.621   6.432  0.00  0.00     0.105 C 
HETATM   11  H   UNK N   1      31.345  18.220   9.845  0.00  0.00     0.169 HD
ENDROOT
BRANCH   4  12
HETATM   12  C   UNK N   1      29.157  17.133   5.931  0.00  0.00    -0.021 A 
HETATM   13  C   UNK N   1      28.401  15.961   5.873  0.00  0.00     0.029 A 
HETATM   14  C   UNK N   1      27.335  15.872   4.978  0.00  0.00     0.088 A 
HETATM   15  N   UNK N   1      27.031  16.921   4.167  0.00  0.00    -0.375 N 
HETATM   16  C   UNK N   1      27.746  18.074   4.199  0.00  0.00     0.088 A 
ATOM     17  HN  UNK N   1      26.247  16.838   3.518  1.00  0.00     0.164 HD
HETATM   18  C   UNK N   1      28.814  18.198   5.077  0.00  0.00     0.029 A 
ENDBRANCH   4  12
TORSDOF 1
ENDMDL
MODEL 7
REMARK VINA RESULT:      -5.5     13.251     15.856
REMARK  1 active torsions:
REMARK  status: ('A' for Active; 'I' for Inactive)
REMARK    1  A    between atoms: C_6  and  C_8 
ROOT
HETATM    1  O   UNK N   1      37.688  11.414  15.000  0.00  0.00    -0.267 OA
HETATM    2  N   UNK N   1      37.708  12.212  12.901  0.00  0.00    -0.326 N 
HETATM    3  N   UNK N   1      34.898  13.116  16.798  0.00  0.00    -0.191 NA
HETATM    4  C   UNK N   1      36.078  13.862  12.265  0.00  0.00    -0.002 A 
HETATM    5  C   UNK N   1      37.186  13.033  11.942  0.00  0.00     0.019 A 
HETATM    6  C   UNK N   1      35.570  13.799  13.553  0.00  0.00     0.042 A 
HETATM    7  C   UNK N   1      36.098  12.973  14.508  0.00  0.00     0.113 A 
HETATM    8  C   UNK N   1      37.811  13.023  10.587  0.00  0.00     0.069 C 
HETATM    9  C   UNK N   1      37.191  12.162  14.175  0.00  0.00     0.266 A 
HETATM   10  C   UNK N   1      35.464  13.019  15.794  0.00  0.00     0.105 C 
HETATM   11  H   UNK N   1      38.476  11.640  12.672  0.00  0.00     0.169 HD
ENDROOT
BRANCH   4  12
HETATM   12  C   UNK N   1      35.396  14.808  11.347  0.00  0.00    -0.021 A 
HETATM   13  C   UNK N   1      35.864  16.103  11.117  0.00  0.00     0.029 A 
HETATM   14  C   UNK N   1      35.173  16.940  10.242  0.00  0.00     0.088 A 
HETATM   15  N   UNK N   1      34.050  16.500   9.613  0.00  0.00    -0.375 N 
HETATM   16  C   UNK N   1      33.569  15.247   9.815  0.00  0.00     0.088 A 
ATOM     17  HN  UNK N   1      33.557  17.126   8.976  1.00  0.00     0.164 HD
HETATM   18  C   UNK N   1      34.231  14.385  10.679  0.00  0.00     0.029 A 
ENDBRANCH   4  12
TORSDOF 1
ENDMDL
MODEL 8
REMARK VINA RESULT:      -5.5     14.580     16.558
REMARK  1 active torsions:
REMARK  status: ('A' for Active; 'I' for Inactive)
REMARK    1  A    between atoms: C_6  and  C_8 
ROOT
HETATM    1  O   UNK N   1      35.366  12.661  20.389  0.00  0.00    -0.267 OA
HETATM    2  N   UNK N   1      35.167  10.920  18.985  0.00  0.00    -0.326 N 
HETATM    3  N   UNK N   1      35.575  15.743  18.298  0.00  0.00    -0.191 NA
HETATM    4  C   UNK N   1      35.131  11.330  16.616  0.00  0.00    -0.002 A 
HETATM    5  C   UNK N   1      35.084  10.429  17.714  0.00  0.00     0.019 A 
HETATM    6  C   UNK N   1      35.259  12.683  16.888  0.00  0.00     0.042 A 
HETATM    7  C   UNK N   1      35.341  13.167  18.165  0.00  0.00     0.113 A 
HETATM    8  C   UNK N   1      34.948   8.954  17.533  0.00  0.00     0.069 C 
HETATM    9  C   UNK N   1      35.295  12.266  19.238  0.00  0.00     0.266 A 
HETATM   10  C   UNK N   1      35.472  14.591  18.287  0.00  0.00     0.105 C 
HETATM   11  H   UNK N   1      35.135  10.291  19.743  0.00  0.00     0.169 HD
ENDROOT
BRANCH   4  12
HETATM   12  C   UNK N   1      35.055  10.964  15.180  0.00  0.00    -0.021 A 
HETATM   13  C   UNK N   1      33.842  10.777  14.514  0.00  0.00     0.029 A 
HETATM   14  C   UNK N   1      33.844  10.433  13.162  0.00  0.00     0.088 A 
HETATM   15  N   UNK N   1      35.019  10.281  12.494  0.00  0.00    -0.375 N 
HETATM   16  C   UNK N   1      36.214  10.456  13.112  0.00  0.00     0.088 A 
ATOM     17  HN  UNK N   1      35.000  10.029  11.505  1.00  0.00     0.164 HD
HETATM   18  C   UNK N   1      36.251  10.799  14.457  0.00  0.00     0.029 A 
ENDBRANCH   4  12
TORSDOF 1
ENDMDL
MODEL 9
REMARK VINA RESULT:      -5.4      9.939     11.428
REMARK  1 active torsions:
REMARK  status: ('A' for Active; 'I' for Inactive)
REMARK    1  A    between atoms: C_6  and  C_8 
ROOT
HETATM    1  O   UNK N   1      34.538  16.908   5.986  0.00  0.00    -0.267 OA
HETATM    2  N   UNK N   1      32.689  17.363   7.177  0.00  0.00    -0.326 N 
HETATM    3  N   UNK N   1      33.439  16.099   2.515  0.00  0.00    -0.191 NA
HETATM    4  C   UNK N   1      30.546  17.252   6.092  0.00  0.00    -0.002 A 
HETATM    5  C   UNK N   1      31.331  17.490   7.252  0.00  0.00     0.019 A 
HETATM    6  C   UNK N   1      31.200  16.899   4.923  0.00  0.00     0.042 A 
HETATM    7  C   UNK N   1      32.561  16.773   4.855  0.00  0.00     0.113 A 
HETATM    8  C   UNK N   1      30.729  17.875   8.561  0.00  0.00     0.069 C 
HETATM    9  C   UNK N   1      33.323  17.010   6.008  0.00  0.00     0.266 A 
HETATM   10  C   UNK N   1      33.093  16.400   3.576  0.00  0.00     0.105 C 
HETATM   11  H   UNK N   1      33.229  17.528   7.984  0.00  0.00     0.169 HD
ENDROOT
BRANCH   4  12
HETATM   12  C   UNK N   1      29.067  17.345   6.002  0.00  0.00    -0.021 A 
HETATM   13  C   UNK N   1      28.408  18.521   5.640  0.00  0.00     0.029 A 
HETATM   14  C   UNK N   1      27.015  18.538   5.576  0.00  0.00     0.088 A 
HETATM   15  N   UNK N   1      26.300  17.417   5.863  0.00  0.00    -0.375 N 
HETATM   16  C   UNK N   1      26.911  16.258   6.218  0.00  0.00     0.088 A 
ATOM     17  HN  UNK N   1      25.281  17.449   5.812  1.00  0.00     0.164 HD
HETATM   18  C   UNK N   1      28.296  16.204   6.292  0.00  0.00     0.029 A 
ENDBRANCH   4  12
TORSDOF 1
ENDMDL
