MODEL 1
REMARK VINA RESULT:      -5.5      0.000      0.000
REMARK  4 active torsions:
REMARK  status: ('A' for Active; 'I' for Inactive)
REMARK       I    between atoms: N_5  and  C_11 
REMARK       I    between atoms: N_6  and  C_12 
REMARK    1  A    between atoms: C_11  and  C_13 
REMARK    2  A    between atoms: C_12  and  C_14 
REMARK    3  A    between atoms: C_13  and  C_15 
REMARK    4  A    between atoms: C_14  and  C_16 
ROOT
HETATM    1  O   UNK N   1      34.548  13.051  12.372  0.00  0.00    -0.273 OA
HETATM    2  O   UNK N   1      34.916  18.947   8.288  0.00  0.00    -0.273 OA
HETATM    3  N   UNK N   1      34.957  15.024  11.374  0.00  0.00    -0.349 N 
HETATM    4  N   UNK N   1      34.507  16.974   9.285  0.00  0.00    -0.349 N 
HETATM    5  C   UNK N   1      33.981  14.716  10.352  0.00  0.00     0.145 A 
HETATM    6  C   UNK N   1      35.719  16.257  11.403  0.00  0.00     0.145 A 
HETATM    7  C   UNK N   1      33.746  15.741   9.256  0.00  0.00     0.145 A 
HETATM    8  C   UNK N   1      35.484  17.282  10.307  0.00  0.00     0.145 A 
HETATM    9  C   UNK N   1      35.173  14.105  12.363  0.00  0.00     0.220 C 
HETATM   10  C   UNK N   1      34.291  17.893   8.296  0.00  0.00     0.220 C 
ENDROOT
BRANCH   9  11
HETATM   11  C   UNK N   1      36.183  14.385  13.450  0.00  0.00     0.114 C 
BRANCH  11  12
HETATM   12  C   UNK N   1      36.593  13.162  14.248  0.00  0.00     0.094 C 
HETATM   13 Br   UNK N   1      35.578  13.158  15.893  0.00  0.00    -0.096 Br
ENDBRANCH  11  12
ENDBRANCH   9  11
BRANCH  10  14
HETATM   14  C   UNK N   1      33.281  17.613   7.210  0.00  0.00     0.114 C 
BRANCH  14  15
HETATM   15  C   UNK N   1      33.889  17.132   5.905  0.00  0.00     0.094 C 
HETATM   16 Br   UNK N   1      32.641  17.534   4.485  0.00  0.00    -0.096 Br
ENDBRANCH  14  15
ENDBRANCH  10  14
TORSDOF 4
ENDMDL
MODEL 2
REMARK VINA RESULT:      -5.5      0.610      7.221
REMARK  4 active torsions:
REMARK  status: ('A' for Active; 'I' for Inactive)
REMARK       I    between atoms: N_5  and  C_11 
REMARK       I    between atoms: N_6  and  C_12 
REMARK    1  A    between atoms: C_11  and  C_13 
REMARK    2  A    between atoms: C_12  and  C_14 
REMARK    3  A    between atoms: C_13  and  C_15 
REMARK    4  A    between atoms: C_14  and  C_16 
ROOT
HETATM    1  O   UNK N   1      34.877  18.992   8.274  0.00  0.00    -0.273 OA
HETATM    2  O   UNK N   1      34.517  13.028  12.258  0.00  0.00    -0.273 OA
HETATM    3  N   UNK N   1      34.467  17.004   9.241  0.00  0.00    -0.349 N 
HETATM    4  N   UNK N   1      34.927  15.016  11.292  0.00  0.00    -0.349 N 
HETATM    5  C   UNK N   1      35.454  17.290  10.259  0.00  0.00     0.145 A 
HETATM    6  C   UNK N   1      33.700  15.776   9.197  0.00  0.00     0.145 A 
HETATM    7  C   UNK N   1      35.694  16.245  11.335  0.00  0.00     0.145 A 
HETATM    8  C   UNK N   1      33.940  14.730  10.273  0.00  0.00     0.145 A 
HETATM    9  C   UNK N   1      34.247  17.941   8.270  0.00  0.00     0.220 C 
HETATM   10  C   UNK N   1      35.147  14.080  12.262  0.00  0.00     0.220 C 
ENDROOT
BRANCH   9  11
HETATM   11  C   UNK N   1      33.226  17.684   7.187  0.00  0.00     0.114 C 
BRANCH  11  12
HETATM   12  C   UNK N   1      33.823  17.271   5.856  0.00  0.00     0.094 C 
HETATM   13 Br   UNK N   1      32.478  17.535   4.493  0.00  0.00    -0.096 Br
ENDBRANCH  11  12
ENDBRANCH   9  11
BRANCH  10  14
HETATM   14  C   UNK N   1      36.168  14.336  13.345  0.00  0.00     0.114 C 
BRANCH  14  15
HETATM   15  C   UNK N   1      35.911  13.578  14.634  0.00  0.00     0.094 C 
HETATM   16 Br   UNK N   1      37.098  12.054  14.674  0.00  0.00    -0.096 Br
ENDBRANCH  14  15
ENDBRANCH  10  14
TORSDOF 4
ENDMDL
MODEL 3
REMARK VINA RESULT:      -4.9      2.520      7.214
REMARK  4 active torsions:
REMARK  status: ('A' for Active; 'I' for Inactive)
REMARK       I    between atoms: N_5  and  C_11 
REMARK       I    between atoms: N_6  and  C_12 
REMARK    1  A    between atoms: C_11  and  C_13 
REMARK    2  A    between atoms: C_12  and  C_14 
REMARK    3  A    between atoms: C_13  and  C_15 
REMARK    4  A    between atoms: C_14  and  C_16 
ROOT
HETATM    1  O   UNK N   1      30.834  15.573   5.426  0.00  0.00    -0.273 OA
HETATM    2  O   UNK N   1      35.777  17.543  10.249  0.00  0.00    -0.273 OA
HETATM    3  N   UNK N   1      32.458  16.511   6.666  0.00  0.00    -0.349 N 
HETATM    4  N   UNK N   1      34.153  16.605   9.009  0.00  0.00    -0.349 N 
HETATM    5  C   UNK N   1      32.301  15.476   7.664  0.00  0.00     0.145 A 
HETATM    6  C   UNK N   1      33.419  17.589   6.781  0.00  0.00     0.145 A 
HETATM    7  C   UNK N   1      33.192  15.527   8.894  0.00  0.00     0.145 A 
HETATM    8  C   UNK N   1      34.311  17.640   8.011  0.00  0.00     0.145 A 
HETATM    9  C   UNK N   1      31.659  16.470   5.558  0.00  0.00     0.220 C 
HETATM   10  C   UNK N   1      34.952  16.646  10.117  0.00  0.00     0.220 C 
ENDROOT
BRANCH   9  11
HETATM   11  C   UNK N   1      31.789  17.530   4.491  0.00  0.00     0.114 C 
BRANCH  11  12
HETATM   12  C   UNK N   1      31.910  16.982   3.082  0.00  0.00     0.094 C 
HETATM   13 Br   UNK N   1      33.406  15.759   3.046  0.00  0.00    -0.096 Br
ENDBRANCH  11  12
ENDBRANCH   9  11
BRANCH  10  14
HETATM   14  C   UNK N   1      34.822  15.586  11.184  0.00  0.00     0.114 C 
BRANCH  14  15
HETATM   15  C   UNK N   1      36.128  14.902  11.543  0.00  0.00     0.094 C 
HETATM   16 Br   UNK N   1      35.894  14.034  13.254  0.00  0.00    -0.096 Br
ENDBRANCH  14  15
ENDBRANCH  10  14
TORSDOF 4
ENDMDL
MODEL 4
REMARK VINA RESULT:      -4.9     15.179     17.354
REMARK  4 active torsions:
REMARK  status: ('A' for Active; 'I' for Inactive)
REMARK       I    between atoms: N_5  and  C_11 
REMARK       I    between atoms: N_6  and  C_12 
REMARK    1  A    between atoms: C_11  and  C_13 
REMARK    2  A    between atoms: C_12  and  C_14 
REMARK    3  A    between atoms: C_13  and  C_15 
REMARK    4  A    between atoms: C_14  and  C_16 
ROOT
HETATM    1  O   UNK N   1      32.177  21.737  -2.083  0.00  0.00    -0.273 OA
HETATM    2  O   UNK N   1      26.820  24.107  -6.237  0.00  0.00    -0.273 OA
HETATM    3  N   UNK N   1      30.698  22.262  -3.692  0.00  0.00    -0.349 N 
HETATM    4  N   UNK N   1      28.299  23.582  -4.627  0.00  0.00    -0.349 N 
HETATM    5  C   UNK N   1      29.929  23.034  -2.741  0.00  0.00     0.145 A 
HETATM    6  C   UNK N   1      30.328  22.117  -5.086  0.00  0.00     0.145 A 
HETATM    7  C   UNK N   1      28.669  23.727  -3.234  0.00  0.00     0.145 A 
HETATM    8  C   UNK N   1      29.068  22.809  -5.579  0.00  0.00     0.145 A 
HETATM    9  C   UNK N   1      31.832  21.637  -3.255  0.00  0.00     0.220 C 
HETATM   10  C   UNK N   1      27.165  24.206  -5.065  0.00  0.00     0.220 C 
ENDROOT
BRANCH   9  11
HETATM   11  C   UNK N   1      32.665  20.820  -4.214  0.00  0.00     0.114 C 
BRANCH  11  12
HETATM   12  C   UNK N   1      33.973  20.322  -3.631  0.00  0.00     0.094 C 
HETATM   13 Br   UNK N   1      34.285  18.539  -4.308  0.00  0.00    -0.096 Br
ENDBRANCH  11  12
ENDBRANCH   9  11
BRANCH  10  14
HETATM   14  C   UNK N   1      26.332  25.023  -4.106  0.00  0.00     0.114 C 
BRANCH  14  15
HETATM   15  C   UNK N   1      26.461  26.523  -4.293  0.00  0.00     0.094 C 
HETATM   16 Br   UNK N   1      25.048  27.098  -5.479  0.00  0.00    -0.096 Br
ENDBRANCH  14  15
ENDBRANCH  10  14
TORSDOF 4
ENDMDL
MODEL 5
REMARK VINA RESULT:      -4.9      2.193      3.212
REMARK  4 active torsions:
REMARK  status: ('A' for Active; 'I' for Inactive)
REMARK       I    between atoms: N_5  and  C_11 
REMARK       I    between atoms: N_6  and  C_12 
REMARK    1  A    between atoms: C_11  and  C_13 
REMARK    2  A    between atoms: C_12  and  C_14 
REMARK    3  A    between atoms: C_13  and  C_15 
REMARK    4  A    between atoms: C_14  and  C_16 
ROOT
HETATM    1  O   UNK N   1      35.084  10.576  14.104  0.00  0.00    -0.273 OA
HETATM    2  O   UNK N   1      36.108  16.851  10.764  0.00  0.00    -0.273 OA
HETATM    3  N   UNK N   1      35.596  12.656  13.421  0.00  0.00    -0.349 N 
HETATM    4  N   UNK N   1      35.597  14.771  11.446  0.00  0.00    -0.349 N 
HETATM    5  C   UNK N   1      34.977  12.394  12.140  0.00  0.00     0.145 A 
HETATM    6  C   UNK N   1      36.214  13.921  13.763  0.00  0.00     0.145 A 
HETATM    7  C   UNK N   1      34.979  13.506  11.104  0.00  0.00     0.145 A 
HETATM    8  C   UNK N   1      36.215  15.033  12.728  0.00  0.00     0.145 A 
HETATM    9  C   UNK N   1      35.597  11.660  14.357  0.00  0.00     0.220 C 
HETATM   10  C   UNK N   1      35.595  15.767  10.511  0.00  0.00     0.220 C 
ENDROOT
BRANCH   9  11
HETATM   11  C   UNK N   1      36.232  11.890  15.707  0.00  0.00     0.114 C 
BRANCH  11  12
HETATM   12  C   UNK N   1      35.271  11.764  16.875  0.00  0.00     0.094 C 
HETATM   13 Br   UNK N   1      35.128  13.497  17.717  0.00  0.00    -0.096 Br
ENDBRANCH  11  12
ENDBRANCH   9  11
BRANCH  10  14
HETATM   14  C   UNK N   1      34.961  15.537   9.160  0.00  0.00     0.114 C 
BRANCH  14  15
HETATM   15  C   UNK N   1      33.698  16.342   8.921  0.00  0.00     0.094 C 
HETATM   16 Br   UNK N   1      34.143  17.813   7.749  0.00  0.00    -0.096 Br
ENDBRANCH  14  15
ENDBRANCH  10  14
TORSDOF 4
ENDMDL
MODEL 6
REMARK VINA RESULT:      -4.9      4.531      6.315
REMARK  4 active torsions:
REMARK  status: ('A' for Active; 'I' for Inactive)
REMARK       I    between atoms: N_5  and  C_11 
REMARK       I    between atoms: N_6  and  C_12 
REMARK    1  A    between atoms: C_11  and  C_13 
REMARK    2  A    between atoms: C_12  and  C_14 
REMARK    3  A    between atoms: C_13  and  C_15 
REMARK    4  A    between atoms: C_14  and  C_16 
ROOT
HETATM    1  O   UNK N   1      34.609  17.522   6.304  0.00  0.00    -0.273 OA
HETATM    2  O   UNK N   1      27.448  17.077   6.616  0.00  0.00    -0.273 OA
HETATM    3  N   UNK N   1      32.426  17.379   6.824  0.00  0.00    -0.349 N 
HETATM    4  N   UNK N   1      29.630  17.220   6.096  0.00  0.00    -0.349 N 
HETATM    5  C   UNK N   1      32.086  17.383   5.418  0.00  0.00     0.145 A 
HETATM    6  C   UNK N   1      31.440  17.300   7.883  0.00  0.00     0.145 A 
HETATM    7  C   UNK N   1      30.617  17.300   5.038  0.00  0.00     0.145 A 
HETATM    8  C   UNK N   1      29.971  17.216   7.502  0.00  0.00     0.145 A 
HETATM    9  C   UNK N   1      33.746  17.454   7.172  0.00  0.00     0.220 C 
HETATM   10  C   UNK N   1      28.311  17.145   5.748  0.00  0.00     0.220 C 
ENDROOT
BRANCH   9  11
HETATM   11  C   UNK N   1      34.146  17.453   8.628  0.00  0.00     0.114 C 
BRANCH  11  12
HETATM   12  C   UNK N   1      34.820  16.173   9.086  0.00  0.00     0.094 C 
HETATM   13 Br   UNK N   1      35.434  16.441  10.899  0.00  0.00    -0.096 Br
ENDBRANCH  11  12
ENDBRANCH   9  11
BRANCH  10  14
HETATM   14  C   UNK N   1      27.910  17.146   4.293  0.00  0.00     0.114 C 
BRANCH  14  15
HETATM   15  C   UNK N   1      26.881  18.201   3.932  0.00  0.00     0.094 C 
HETATM   16 Br   UNK N   1      27.592  19.924   4.441  0.00  0.00    -0.096 Br
ENDBRANCH  14  15
ENDBRANCH  10  14
TORSDOF 4
ENDMDL
MODEL 7
REMARK VINA RESULT:      -4.8      4.472      8.117
REMARK  4 active torsions:
REMARK  status: ('A' for Active; 'I' for Inactive)
REMARK       I    between atoms: N_5  and  C_11 
REMARK       I    between atoms: N_6  and  C_12 
REMARK    1  A    between atoms: C_11  and  C_13 
REMARK    2  A    between atoms: C_12  and  C_14 
REMARK    3  A    between atoms: C_13  and  C_15 
REMARK    4  A    between atoms: C_14  and  C_16 
ROOT
HETATM    1  O   UNK N   1      27.469  16.901   7.429  0.00  0.00    -0.273 OA
HETATM    2  O   UNK N   1      34.514  17.616   6.229  0.00  0.00    -0.273 OA
HETATM    3  N   UNK N   1      29.564  17.120   6.642  0.00  0.00    -0.349 N 
HETATM    4  N   UNK N   1      32.419  17.397   7.017  0.00  0.00    -0.349 N 
HETATM    5  C   UNK N   1      30.075  17.149   7.995  0.00  0.00     0.145 A 
HETATM    6  C   UNK N   1      30.408  17.222   5.469  0.00  0.00     0.145 A 
HETATM    7  C   UNK N   1      31.575  17.294   8.190  0.00  0.00     0.145 A 
HETATM    8  C   UNK N   1      31.908  17.368   5.663  0.00  0.00     0.145 A 
HETATM    9  C   UNK N   1      28.216  16.990   6.461  0.00  0.00     0.220 C 
HETATM   10  C   UNK N   1      33.768  17.527   7.198  0.00  0.00     0.220 C 
ENDROOT
BRANCH   9  11
HETATM   11  C   UNK N   1      27.638  16.955   5.066  0.00  0.00     0.114 C 
BRANCH  11  12
HETATM   12  C   UNK N   1      26.618  18.043   4.789  0.00  0.00     0.094 C 
HETATM   13 Br   UNK N   1      27.578  19.680   4.424  0.00  0.00    -0.096 Br
ENDBRANCH  11  12
ENDBRANCH   9  11
BRANCH  10  14
HETATM   14  C   UNK N   1      34.345  17.562   8.593  0.00  0.00     0.114 C 
BRANCH  14  15
HETATM   15  C   UNK N   1      34.832  16.217   9.097  0.00  0.00     0.094 C 
HETATM   16 Br   UNK N   1      35.464  16.454  10.908  0.00  0.00    -0.096 Br
ENDBRANCH  14  15
ENDBRANCH  10  14
TORSDOF 4
ENDMDL
MODEL 8
REMARK VINA RESULT:      -4.7     12.865     13.641
REMARK  4 active torsions:
REMARK  status: ('A' for Active; 'I' for Inactive)
REMARK       I    between atoms: N_5  and  C_11 
REMARK       I    between atoms: N_6  and  C_12 
REMARK    1  A    between atoms: C_11  and  C_13 
REMARK    2  A    between atoms: C_12  and  C_14 
REMARK    3  A    between atoms: C_13  and  C_15 
REMARK    4  A    between atoms: C_14  and  C_16 
ROOT
HETATM    1  O   UNK N   1      19.617  14.114   9.681  0.00  0.00    -0.273 OA
HETATM    2  O   UNK N   1      23.317  17.470   4.521  0.00  0.00    -0.273 OA
HETATM    3  N   UNK N   1      21.051  14.843   8.111  0.00  0.00    -0.349 N 
HETATM    4  N   UNK N   1      21.883  16.742   6.092  0.00  0.00    -0.349 N 
HETATM    5  C   UNK N   1      20.201  15.987   7.858  0.00  0.00     0.145 A 
HETATM    6  C   UNK N   1      22.294  14.602   7.405  0.00  0.00     0.145 A 
HETATM    7  C   UNK N   1      20.640  16.983   6.797  0.00  0.00     0.145 A 
HETATM    8  C   UNK N   1      22.732  15.598   6.344  0.00  0.00     0.145 A 
HETATM    9  C   UNK N   1      20.662  13.944   9.064  0.00  0.00     0.220 C 
HETATM   10  C   UNK N   1      22.272  17.641   5.139  0.00  0.00     0.220 C 
ENDROOT
BRANCH   9  11
HETATM   11  C   UNK N   1      21.518  12.736   9.360  0.00  0.00     0.114 C 
BRANCH  11  12
HETATM   12  C   UNK N   1      22.283  12.823  10.667  0.00  0.00     0.094 C 
HETATM   13 Br   UNK N   1      24.120  12.334  10.314  0.00  0.00    -0.096 Br
ENDBRANCH  11  12
ENDBRANCH   9  11
BRANCH  10  14
HETATM   14  C   UNK N   1      21.416  18.849   4.842  0.00  0.00     0.114 C 
BRANCH  14  15
HETATM   15  C   UNK N   1      20.774  18.833   3.468  0.00  0.00     0.094 C 
HETATM   16 Br   UNK N   1      21.168  20.520   2.609  0.00  0.00    -0.096 Br
ENDBRANCH  14  15
ENDBRANCH  10  14
TORSDOF 4
ENDMDL
MODEL 9
REMARK VINA RESULT:      -4.6      4.731      8.560
REMARK  4 active torsions:
REMARK  status: ('A' for Active; 'I' for Inactive)
REMARK       I    between atoms: N_5  and  C_11 
REMARK       I    between atoms: N_6  and  C_12 
REMARK    1  A    between atoms: C_11  and  C_13 
REMARK    2  A    between atoms: C_12  and  C_14 
REMARK    3  A    between atoms: C_13  and  C_15 
REMARK    4  A    between atoms: C_14  and  C_16 
ROOT
HETATM    1  O   UNK N   1      27.433  16.661   5.613  0.00  0.00    -0.273 OA
HETATM    2  O   UNK N   1      34.489  17.747   6.387  0.00  0.00    -0.273 OA
HETATM    3  N   UNK N   1      29.650  16.986   5.430  0.00  0.00    -0.349 N 
HETATM    4  N   UNK N   1      32.272  17.422   6.571  0.00  0.00    -0.349 N 
HETATM    5  C   UNK N   1      29.764  17.058   6.870  0.00  0.00     0.145 A 
HETATM    6  C   UNK N   1      30.780  17.121   4.533  0.00  0.00     0.145 A 
HETATM    7  C   UNK N   1      31.142  17.287   7.467  0.00  0.00     0.145 A 
HETATM    8  C   UNK N   1      32.158  17.350   5.130  0.00  0.00     0.145 A 
HETATM    9  C   UNK N   1      28.413  16.780   4.887  0.00  0.00     0.220 C 
HETATM   10  C   UNK N   1      33.510  17.628   7.114  0.00  0.00     0.220 C 
ENDROOT
BRANCH   9  11
HETATM   11  C   UNK N   1      28.247  16.698   3.388  0.00  0.00     0.114 C 
BRANCH  11  12
HETATM   12  C   UNK N   1      27.893  15.315   2.877  0.00  0.00     0.094 C 
HETATM   13 Br   UNK N   1      26.181  15.431   1.986  0.00  0.00    -0.096 Br
ENDBRANCH  11  12
ENDBRANCH   9  11
BRANCH  10  14
HETATM   14  C   UNK N   1      33.675  17.710   8.612  0.00  0.00     0.114 C 
BRANCH  14  15
HETATM   15  C   UNK N   1      34.643  16.693   9.187  0.00  0.00     0.094 C 
HETATM   16 Br   UNK N   1      33.794  14.958   9.118  0.00  0.00    -0.096 Br
ENDBRANCH  14  15
ENDBRANCH  10  14
TORSDOF 4
ENDMDL
