REMARK  4 active torsions:
REMARK  status: ('A' for Active; 'I' for Inactive)
REMARK       I    between atoms: N_5  and  C_11 
REMARK       I    between atoms: N_6  and  C_12 
REMARK    1  A    between atoms: C_11  and  C_13 
REMARK    2  A    between atoms: C_12  and  C_14 
REMARK    3  A    between atoms: C_13  and  C_15 
REMARK    4  A    between atoms: C_14  and  C_16 
ROOT
HETATM    1  O   UNK N   1       4.032  -3.462  -0.000  0.00  0.00    -0.273 OA
HETATM    2  O   UNK N   1       2.126   3.462  -0.000  0.00  0.00    -0.273 OA
HETATM    3  N   UNK N   1       3.037  -1.446   0.000  0.00  0.00    -0.349 N 
HETATM    4  N   UNK N   1       3.121   1.446   0.000  0.00  0.00    -0.349 N 
HETATM    5  C   UNK N   1       4.332  -0.801  -0.000  0.00  0.00     0.145 A 
HETATM    6  C   UNK N   1       1.784  -0.718   0.000  0.00  0.00     0.145 A 
HETATM    7  C   UNK N   1       4.374   0.718   0.000  0.00  0.00     0.145 A 
HETATM    8  C   UNK N   1       1.826   0.801  -0.000  0.00  0.00     0.145 A 
HETATM    9  C   UNK N   1       2.993  -2.812  -0.000  0.00  0.00     0.220 C 
HETATM   10  C   UNK N   1       3.165   2.812  -0.000  0.00  0.00     0.220 C 
ENDROOT
BRANCH   9  11
HETATM   11  C   UNK N   1       1.663  -3.527   0.000  0.00  0.00     0.114 C 
BRANCH  11  12
HETATM   12  C   UNK N   1       1.771  -5.040   0.000  0.00  0.00     0.094 C 
HETATM   13 Br   UNK N   1      -0.021  -5.764   0.000  0.00  0.00    -0.096 Br
ENDBRANCH  11  12
ENDBRANCH   9  11
BRANCH  10  14
HETATM   14  C   UNK N   1       4.495   3.527   0.000  0.00  0.00     0.114 C 
BRANCH  14  15
HETATM   15  C   UNK N   1       4.387   5.040   0.000  0.00  0.00     0.094 C 
HETATM   16 Br   UNK N   1       6.179   5.764   0.000  0.00  0.00    -0.096 Br
ENDBRANCH  14  15
ENDBRANCH  10  14
TORSDOF 4
