MODEL 1
REMARK VINA RESULT:      -5.3      0.000      0.000
REMARK  3 active torsions:
REMARK  status: ('A' for Active; 'I' for Inactive)
REMARK    1  A    between atoms: C_6  and  C_7 
REMARK    2  A    between atoms: C_6  and  C_8 
REMARK    3  A    between atoms: C_7  and  C_9 
ROOT
HETATM    1  O   UNK N   1      34.188  18.069   6.305  0.00  0.00    -0.272 OA
HETATM    2  O   UNK N   1      31.976  15.096   9.219  0.00  0.00    -0.272 OA
HETATM    3  O   UNK N   1      35.603  17.341  10.456  0.00  0.00    -0.247 OA
HETATM    4  N   UNK N   1      34.889  17.712   8.382  0.00  0.00    -0.278 N 
HETATM    5  N   UNK N   1      33.785  16.222   9.838  0.00  0.00    -0.278 N 
HETATM    6  C   UNK N   1      32.869  16.496   7.513  0.00  0.00     0.125 A 
HETATM    7  C   UNK N   1      34.024  17.481   7.364  0.00  0.00     0.244 A 
HETATM    8  C   UNK N   1      32.852  15.893   8.915  0.00  0.00     0.244 A 
HETATM    9  C   UNK N   1      34.785  17.099   9.586  0.00  0.00     0.329 A 
HETATM   10  H   UNK N   1      35.624  18.351   8.240  0.00  0.00     0.173 HD
HETATM   11  H   UNK N   1      33.736  15.807  10.728  0.00  0.00     0.173 HD
ENDROOT
BRANCH   6  12
HETATM   12  C   UNK N   1      31.505  17.205   7.264  0.00  0.00     0.008 C 
HETATM   13  C   UNK N   1      30.451  16.277   6.670  0.00  0.00     0.011 C 
BRANCH  12  14
HETATM   14  C   UNK N   1      30.923  17.918   8.478  0.00  0.00     0.001 C 
HETATM   15  C   UNK N   1      29.426  17.670   8.535  0.00  0.00     0.005 C 
ENDBRANCH  12  14
ENDBRANCH   6  12
BRANCH   6  16
HETATM   16  C   UNK N   1      33.113  15.371   6.483  0.00  0.00     0.025 C 
HETATM   17  C   UNK N   1      34.384  14.563   6.708  0.00  0.00     0.007 C 
ENDBRANCH   6  16
TORSDOF 3
ENDMDL
MODEL 2
REMARK VINA RESULT:      -5.2      1.546      3.492
REMARK  3 active torsions:
REMARK  status: ('A' for Active; 'I' for Inactive)
REMARK    1  A    between atoms: C_6  and  C_7 
REMARK    2  A    between atoms: C_6  and  C_8 
REMARK    3  A    between atoms: C_7  and  C_9 
ROOT
HETATM    1  O   UNK N   1      32.452  14.981   7.536  0.00  0.00    -0.272 OA
HETATM    2  O   UNK N   1      34.802  19.013   8.198  0.00  0.00    -0.272 OA
HETATM    3  O   UNK N   1      34.948  15.694  11.146  0.00  0.00    -0.247 OA
HETATM    4  N   UNK N   1      33.706  15.334   9.335  0.00  0.00    -0.278 N 
HETATM    5  N   UNK N   1      34.879  17.352   9.667  0.00  0.00    -0.278 N 
HETATM    6  C   UNK N   1      33.490  17.124   7.585  0.00  0.00     0.125 A 
HETATM    7  C   UNK N   1      33.187  15.740   8.150  0.00  0.00     0.244 A 
HETATM    8  C   UNK N   1      34.434  17.889   8.508  0.00  0.00     0.244 A 
HETATM    9  C   UNK N   1      34.525  16.114  10.083  0.00  0.00     0.329 A 
HETATM   10  H   UNK N   1      33.479  14.435   9.666  0.00  0.00     0.173 HD
HETATM   11  H   UNK N   1      35.484  17.883  10.232  0.00  0.00     0.173 HD
ENDROOT
BRANCH   6  12
HETATM   12  C   UNK N   1      34.157  17.012   6.182  0.00  0.00     0.008 C 
HETATM   13  C   UNK N   1      34.873  15.684   5.968  0.00  0.00     0.011 C 
BRANCH  12  14
HETATM   14  C   UNK N   1      33.225  17.278   5.005  0.00  0.00     0.001 C 
HETATM   15  C   UNK N   1      33.308  16.119   4.028  0.00  0.00     0.005 C 
ENDBRANCH  12  14
ENDBRANCH   6  12
BRANCH   6  16
HETATM   16  C   UNK N   1      32.142  17.874   7.507  0.00  0.00     0.025 C 
HETATM   17  C   UNK N   1      31.365  17.930   8.816  0.00  0.00     0.007 C 
ENDBRANCH   6  16
TORSDOF 3
ENDMDL
MODEL 3
REMARK VINA RESULT:      -5.1      7.188      8.804
REMARK  3 active torsions:
REMARK  status: ('A' for Active; 'I' for Inactive)
REMARK    1  A    between atoms: C_6  and  C_7 
REMARK    2  A    between atoms: C_6  and  C_8 
REMARK    3  A    between atoms: C_7  and  C_9 
ROOT
HETATM    1  O   UNK N   1      34.751  13.787  13.262  0.00  0.00    -0.272 OA
HETATM    2  O   UNK N   1      36.993  10.174  15.294  0.00  0.00    -0.272 OA
HETATM    3  O   UNK N   1      37.996  11.560  11.196  0.00  0.00    -0.247 OA
HETATM    4  N   UNK N   1      36.378  12.680  12.234  0.00  0.00    -0.278 N 
HETATM    5  N   UNK N   1      37.497  10.870  13.249  0.00  0.00    -0.278 N 
HETATM    6  C   UNK N   1      35.665  12.002  14.546  0.00  0.00     0.125 A 
HETATM    7  C   UNK N   1      35.573  12.884  13.305  0.00  0.00     0.244 A 
HETATM    8  C   UNK N   1      36.764  10.955  14.383  0.00  0.00     0.244 A 
HETATM    9  C   UNK N   1      37.312  11.699  12.195  0.00  0.00     0.329 A 
HETATM   10  H   UNK N   1      36.280  13.269  11.451  0.00  0.00     0.173 HD
HETATM   11  H   UNK N   1      38.193  10.178  13.188  0.00  0.00     0.173 HD
ENDROOT
BRANCH   6  12
HETATM   12  C   UNK N   1      35.984  12.858  15.808  0.00  0.00     0.008 C 
HETATM   13  C   UNK N   1      36.840  14.080  15.497  0.00  0.00     0.011 C 
BRANCH  12  14
HETATM   14  C   UNK N   1      34.766  13.288  16.616  0.00  0.00     0.001 C 
HETATM   15  C   UNK N   1      35.215  13.762  17.986  0.00  0.00     0.005 C 
ENDBRANCH  12  14
ENDBRANCH   6  12
BRANCH   6  16
HETATM   16  C   UNK N   1      34.303  11.288  14.683  0.00  0.00     0.025 C 
HETATM   17  C   UNK N   1      33.919  10.413  13.497  0.00  0.00     0.007 C 
ENDBRANCH   6  16
TORSDOF 3
ENDMDL
MODEL 4
REMARK VINA RESULT:      -5.0      7.002      8.845
REMARK  3 active torsions:
REMARK  status: ('A' for Active; 'I' for Inactive)
REMARK    1  A    between atoms: C_6  and  C_7 
REMARK    2  A    between atoms: C_6  and  C_8 
REMARK    3  A    between atoms: C_7  and  C_9 
ROOT
HETATM    1  O   UNK N   1      34.149  10.844  13.587  0.00  0.00    -0.272 OA
HETATM    2  O   UNK N   1      37.336  13.760  15.472  0.00  0.00    -0.272 OA
HETATM    3  O   UNK N   1      35.140  14.767  11.745  0.00  0.00    -0.247 OA
HETATM    4  N   UNK N   1      34.638  12.808  12.672  0.00  0.00    -0.278 N 
HETATM    5  N   UNK N   1      36.234  14.264  13.613  0.00  0.00    -0.278 N 
HETATM    6  C   UNK N   1      35.814  12.071  14.766  0.00  0.00     0.125 A 
HETATM    7  C   UNK N   1      34.809  11.871  13.637  0.00  0.00     0.244 A 
HETATM    8  C   UNK N   1      36.511  13.423  14.636  0.00  0.00     0.244 A 
HETATM    9  C   UNK N   1      35.332  13.972  12.648  0.00  0.00     0.329 A 
HETATM   10  H   UNK N   1      33.982  12.634  11.958  0.00  0.00     0.173 HD
HETATM   11  H   UNK N   1      36.710  15.125  13.568  0.00  0.00     0.173 HD
ENDROOT
BRANCH   6  12
HETATM   12  C   UNK N   1      35.106  12.014  16.152  0.00  0.00     0.008 C 
HETATM   13  C   UNK N   1      35.896  11.230  17.194  0.00  0.00     0.011 C 
BRANCH  12  14
HETATM   14  C   UNK N   1      34.716  13.369  16.729  0.00  0.00     0.001 C 
HETATM   15  C   UNK N   1      35.123  13.427  18.191  0.00  0.00     0.005 C 
ENDBRANCH  12  14
ENDBRANCH   6  12
BRANCH   6  16
HETATM   16  C   UNK N   1      36.864  10.947  14.627  0.00  0.00     0.025 C 
HETATM   17  C   UNK N   1      37.703  11.010  13.357  0.00  0.00     0.007 C 
ENDBRANCH   6  16
TORSDOF 3
ENDMDL
MODEL 5
REMARK VINA RESULT:      -5.0     16.578     18.101
REMARK  3 active torsions:
REMARK  status: ('A' for Active; 'I' for Inactive)
REMARK    1  A    between atoms: C_6  and  C_7 
REMARK    2  A    between atoms: C_6  and  C_8 
REMARK    3  A    between atoms: C_7  and  C_9 
ROOT
HETATM    1  O   UNK N   1      26.258  26.346  -2.863  0.00  0.00    -0.272 OA
HETATM    2  O   UNK N   1      27.613  28.573  -6.789  0.00  0.00    -0.272 OA
HETATM    3  O   UNK N   1      26.362  30.781  -3.145  0.00  0.00    -0.247 OA
HETATM    4  N   UNK N   1      26.319  28.562  -3.001  0.00  0.00    -0.278 N 
HETATM    5  N   UNK N   1      26.993  29.675  -4.967  0.00  0.00    -0.278 N 
HETATM    6  C   UNK N   1      26.964  27.162  -4.986  0.00  0.00     0.125 A 
HETATM    7  C   UNK N   1      26.495  27.332  -3.544  0.00  0.00     0.244 A 
HETATM    8  C   UNK N   1      27.210  28.520  -5.637  0.00  0.00     0.244 A 
HETATM    9  C   UNK N   1      26.552  29.707  -3.688  0.00  0.00     0.329 A 
HETATM   10  H   UNK N   1      26.008  28.625  -2.069  0.00  0.00     0.173 HD
HETATM   11  H   UNK N   1      27.163  30.528  -5.428  0.00  0.00     0.173 HD
ENDROOT
BRANCH   6  12
HETATM   12  C   UNK N   1      28.288  26.343  -5.041  0.00  0.00     0.008 C 
HETATM   13  C   UNK N   1      29.315  26.802  -4.012  0.00  0.00     0.011 C 
BRANCH  12  14
HETATM   14  C   UNK N   1      28.113  24.832  -4.940  0.00  0.00     0.001 C 
HETATM   15  C   UNK N   1      28.986  24.301  -3.818  0.00  0.00     0.005 C 
ENDBRANCH  12  14
ENDBRANCH   6  12
BRANCH   6  16
HETATM   16  C   UNK N   1      25.826  26.439  -5.739  0.00  0.00     0.025 C 
HETATM   17  C   UNK N   1      24.494  27.178  -5.744  0.00  0.00     0.007 C 
ENDBRANCH   6  16
TORSDOF 3
ENDMDL
MODEL 6
REMARK VINA RESULT:      -5.0     13.271     14.690
REMARK  3 active torsions:
REMARK  status: ('A' for Active; 'I' for Inactive)
REMARK    1  A    between atoms: C_6  and  C_7 
REMARK    2  A    between atoms: C_6  and  C_8 
REMARK    3  A    between atoms: C_7  and  C_9 
ROOT
HETATM    1  O   UNK N   1      29.512  24.474  -6.117  0.00  0.00    -0.272 OA
HETATM    2  O   UNK N   1      30.831  22.959  -1.853  0.00  0.00    -0.272 OA
HETATM    3  O   UNK N   1      26.607  23.962  -2.790  0.00  0.00    -0.247 OA
HETATM    4  N   UNK N   1      28.059  24.209  -4.457  0.00  0.00    -0.278 N 
HETATM    5  N   UNK N   1      28.720  23.455  -2.324  0.00  0.00    -0.278 N 
HETATM    6  C   UNK N   1      30.495  23.717  -4.085  0.00  0.00     0.125 A 
HETATM    7  C   UNK N   1      29.320  24.154  -4.954  0.00  0.00     0.244 A 
HETATM    8  C   UNK N   1      30.022  23.353  -2.680  0.00  0.00     0.244 A 
HETATM    9  C   UNK N   1      27.759  23.878  -3.178  0.00  0.00     0.329 A 
HETATM   10  H   UNK N   1      27.332  24.503  -5.052  0.00  0.00     0.173 HD
HETATM   11  H   UNK N   1      28.462  23.212  -1.406  0.00  0.00     0.173 HD
ENDROOT
BRANCH   6  12
HETATM   12  C   UNK N   1      31.205  22.475  -4.702  0.00  0.00     0.008 C 
HETATM   13  C   UNK N   1      32.600  22.244  -4.134  0.00  0.00     0.011 C 
BRANCH  12  14
HETATM   14  C   UNK N   1      30.408  21.179  -4.628  0.00  0.00     0.001 C 
HETATM   15  C   UNK N   1      30.184  20.648  -6.032  0.00  0.00     0.005 C 
ENDBRANCH  12  14
ENDBRANCH   6  12
BRANCH   6  16
HETATM   16  C   UNK N   1      31.453  24.925  -3.998  0.00  0.00     0.025 C 
HETATM   17  C   UNK N   1      30.828  26.196  -3.439  0.00  0.00     0.007 C 
ENDBRANCH   6  16
TORSDOF 3
ENDMDL
MODEL 7
REMARK VINA RESULT:      -4.8     14.335     15.559
REMARK  3 active torsions:
REMARK  status: ('A' for Active; 'I' for Inactive)
REMARK    1  A    between atoms: C_6  and  C_7 
REMARK    2  A    between atoms: C_6  and  C_8 
REMARK    3  A    between atoms: C_7  and  C_9 
ROOT
HETATM    1  O   UNK N   1      30.058  25.615  -5.434  0.00  0.00    -0.272 OA
HETATM    2  O   UNK N   1      26.375  23.873  -3.063  0.00  0.00    -0.272 OA
HETATM    3  O   UNK N   1      30.563  23.097  -1.804  0.00  0.00    -0.247 OA
HETATM    4  N   UNK N   1      30.310  24.364  -3.615  0.00  0.00    -0.278 N 
HETATM    5  N   UNK N   1      28.468  23.491  -2.432  0.00  0.00    -0.278 N 
HETATM    6  C   UNK N   1      28.006  24.871  -4.481  0.00  0.00     0.125 A 
HETATM    7  C   UNK N   1      29.527  24.977  -4.537  0.00  0.00     0.244 A 
HETATM    8  C   UNK N   1      27.566  24.043  -3.276  0.00  0.00     0.244 A 
HETATM    9  C   UNK N   1      29.804  23.634  -2.592  0.00  0.00     0.329 A 
HETATM   10  H   UNK N   1      31.287  24.454  -3.693  0.00  0.00     0.173 HD
HETATM   11  H   UNK N   1      28.138  22.962  -1.670  0.00  0.00     0.173 HD
ENDROOT
BRANCH   6  12
HETATM   12  C   UNK N   1      27.359  26.284  -4.370  0.00  0.00     0.008 C 
HETATM   13  C   UNK N   1      28.295  27.321  -3.759  0.00  0.00     0.011 C 
BRANCH  12  14
HETATM   14  C   UNK N   1      26.781  26.829  -5.670  0.00  0.00     0.001 C 
HETATM   15  C   UNK N   1      25.306  27.129  -5.475  0.00  0.00     0.005 C 
ENDBRANCH  12  14
ENDBRANCH   6  12
BRANCH   6  16
HETATM   16  C   UNK N   1      27.565  24.153  -5.775  0.00  0.00     0.025 C 
HETATM   17  C   UNK N   1      28.264  22.826  -6.038  0.00  0.00     0.007 C 
ENDBRANCH   6  16
TORSDOF 3
ENDMDL
MODEL 8
REMARK VINA RESULT:      -4.8     16.164     17.462
REMARK  3 active torsions:
REMARK  status: ('A' for Active; 'I' for Inactive)
REMARK    1  A    between atoms: C_6  and  C_7 
REMARK    2  A    between atoms: C_6  and  C_8 
REMARK    3  A    between atoms: C_7  and  C_9 
ROOT
HETATM    1  O   UNK N   1      29.488  26.205  -5.306  0.00  0.00    -0.272 OA
HETATM    2  O   UNK N   1      25.046  24.900  -6.189  0.00  0.00    -0.272 OA
HETATM    3  O   UNK N   1      27.090  23.862  -2.385  0.00  0.00    -0.247 OA
HETATM    4  N   UNK N   1      28.286  25.042  -3.843  0.00  0.00    -0.278 N 
HETATM    5  N   UNK N   1      26.066  24.386  -4.287  0.00  0.00    -0.278 N 
HETATM    6  C   UNK N   1      27.290  25.683  -6.059  0.00  0.00     0.125 A 
HETATM    7  C   UNK N   1      28.425  25.663  -5.040  0.00  0.00     0.244 A 
HETATM    8  C   UNK N   1      26.061  24.962  -5.512  0.00  0.00     0.244 A 
HETATM    9  C   UNK N   1      27.145  24.412  -3.471  0.00  0.00     0.329 A 
HETATM   10  H   UNK N   1      29.047  25.048  -3.218  0.00  0.00     0.173 HD
HETATM   11  H   UNK N   1      25.252  23.930  -3.977  0.00  0.00     0.173 HD
ENDROOT
BRANCH   6  12
HETATM   12  C   UNK N   1      26.887  27.147  -6.407  0.00  0.00     0.008 C 
HETATM   13  C   UNK N   1      26.689  28.019  -5.172  0.00  0.00     0.011 C 
BRANCH  12  14
HETATM   14  C   UNK N   1      27.821  27.855  -7.381  0.00  0.00     0.001 C 
HETATM   15  C   UNK N   1      28.238  29.191  -6.792  0.00  0.00     0.005 C 
ENDBRANCH  12  14
ENDBRANCH   6  12
BRANCH   6  16
HETATM   16  C   UNK N   1      27.802  24.931  -7.306  0.00  0.00     0.025 C 
HETATM   17  C   UNK N   1      28.126  23.461  -7.078  0.00  0.00     0.007 C 
ENDBRANCH   6  16
TORSDOF 3
ENDMDL
MODEL 9
REMARK VINA RESULT:      -4.8     16.394     17.832
REMARK  3 active torsions:
REMARK  status: ('A' for Active; 'I' for Inactive)
REMARK    1  A    between atoms: C_6  and  C_7 
REMARK    2  A    between atoms: C_6  and  C_8 
REMARK    3  A    between atoms: C_7  and  C_9 
ROOT
HETATM    1  O   UNK N   1      26.331  25.378  -3.125  0.00  0.00    -0.272 OA
HETATM    2  O   UNK N   1      27.431  26.709  -7.510  0.00  0.00    -0.272 OA
HETATM    3  O   UNK N   1      26.061  22.589  -6.577  0.00  0.00    -0.247 OA
HETATM    4  N   UNK N   1      26.188  23.987  -4.851  0.00  0.00    -0.278 N 
HETATM    5  N   UNK N   1      26.741  24.653  -7.044  0.00  0.00    -0.278 N 
HETATM    6  C   UNK N   1      26.978  26.347  -5.202  0.00  0.00     0.125 A 
HETATM    7  C   UNK N   1      26.473  25.204  -4.326  0.00  0.00     0.244 A 
HETATM    8  C   UNK N   1      27.065  25.910  -6.661  0.00  0.00     0.244 A 
HETATM    9  C   UNK N   1      26.322  23.708  -6.171  0.00  0.00     0.329 A 
HETATM   10  H   UNK N   1      25.870  23.277  -4.248  0.00  0.00     0.173 HD
HETATM   11  H   UNK N   1      26.815  24.415  -7.996  0.00  0.00     0.173 HD
ENDROOT
BRANCH   6  12
HETATM   12  C   UNK N   1      26.024  27.575  -5.111  0.00  0.00     0.008 C 
HETATM   13  C   UNK N   1      24.595  27.250  -5.529  0.00  0.00     0.011 C 
BRANCH  12  14
HETATM   14  C   UNK N   1      26.007  28.275  -3.757  0.00  0.00     0.001 C 
HETATM   15  C   UNK N   1      26.423  29.723  -3.938  0.00  0.00     0.005 C 
ENDBRANCH  12  14
ENDBRANCH   6  12
BRANCH   6  16
HETATM   16  C   UNK N   1      28.394  26.698  -4.695  0.00  0.00     0.025 C 
HETATM   17  C   UNK N   1      29.408  25.567  -4.800  0.00  0.00     0.007 C 
ENDBRANCH   6  16
TORSDOF 3
ENDMDL
