MODEL 1
REMARK VINA RESULT:      -6.8      0.000      0.000
REMARK  1 active torsions:
REMARK  status: ('A' for Active; 'I' for Inactive)
REMARK    1  A    between atoms: N_2  and  C_8 
ROOT
HETATM    1  O   UNK N   1      29.146  16.720   2.780  0.00  0.00    -0.267 OA
HETATM    2  N   UNK N   1      29.032  18.012   6.925  0.00  0.00    -0.312 N 
HETATM    3  N   UNK N   1      28.174  18.215   4.036  0.00  0.00    -0.319 N 
HETATM    4  N   UNK N   1      27.568  19.826   7.250  0.00  0.00    -0.350 N 
ATOM      5  HN  UNK N   1      27.840  19.781   8.232  1.00  0.00     0.166 HD
HETATM    6  N   UNK N   1      30.578  16.259   7.163  0.00  0.00    -0.351 N 
ATOM      7  HN  UNK N   1      30.594  16.515   8.151  1.00  0.00     0.166 HD
HETATM    8  C   UNK N   1      28.133  18.920   6.388  0.00  0.00     0.137 A 
HETATM    9  C   UNK N   1      29.761  16.989   6.333  0.00  0.00     0.125 A 
HETATM   10  C   UNK N   1      27.738  19.005   5.025  0.00  0.00     0.086 A 
HETATM   11  C   UNK N   1      29.753  16.611   4.948  0.00  0.00     0.076 A 
HETATM   12  C   UNK N   1      26.805  19.996   4.645  0.00  0.00    -0.030 A 
HETATM   13  C   UNK N   1      29.021  17.181   3.905  0.00  0.00     0.260 A 
HETATM   14  C   UNK N   1      30.579  15.531   4.561  0.00  0.00     0.022 A 
HETATM   15  C   UNK N   1      26.277  20.877   5.574  0.00  0.00     0.026 A 
HETATM   16  C   UNK N   1      26.674  20.777   6.889  0.00  0.00     0.090 A 
HETATM   17  C   UNK N   1      31.362  15.228   6.775  0.00  0.00     0.090 A 
HETATM   18  C   UNK N   1      26.360  20.123   3.224  0.00  0.00     0.050 C 
HETATM   19  C   UNK N   1      31.375  14.843   5.455  0.00  0.00     0.018 A 
HETATM   20  H   UNK N   1      27.764  18.457   3.174  0.00  0.00     0.169 HD
ENDROOT
BRANCH   2  21
HETATM   21  C   UNK N   1      29.258  18.153   8.385  0.00  0.00     0.093 A 
HETATM   22  C   UNK N   1      28.799  17.708   9.717  0.00  0.00     0.028 A 
HETATM   23  C   UNK N   1      29.991  18.743   9.521  0.00  0.00     0.028 A 
ENDBRANCH   2  21
TORSDOF 1
ENDMDL
MODEL 2
REMARK VINA RESULT:      -6.7      1.931      3.807
REMARK  1 active torsions:
REMARK  status: ('A' for Active; 'I' for Inactive)
REMARK    1  A    between atoms: N_2  and  C_8 
ROOT
HETATM    1  O   UNK N   1      29.124  18.750   9.507  0.00  0.00    -0.267 OA
HETATM    2  N   UNK N   1      29.443  17.572   5.339  0.00  0.00    -0.312 N 
HETATM    3  N   UNK N   1      28.287  19.263   7.558  0.00  0.00    -0.319 N 
HETATM    4  N   UNK N   1      28.020  18.830   3.948  0.00  0.00    -0.350 N 
ATOM      5  HN  UNK N   1      28.393  18.274   3.179  1.00  0.00     0.166 HD
HETATM    6  N   UNK N   1      31.006  16.063   6.234  0.00  0.00    -0.351 N 
ATOM      7  HN  UNK N   1      31.125  15.742   5.272  1.00  0.00     0.166 HD
HETATM    8  C   UNK N   1      28.493  18.572   5.211  0.00  0.00     0.137 A 
HETATM    9  C   UNK N   1      30.106  17.079   6.454  0.00  0.00     0.125 A 
HETATM   10  C   UNK N   1      27.957  19.362   6.265  0.00  0.00     0.086 A 
HETATM   11  C   UNK N   1      29.954  17.515   7.814  0.00  0.00     0.076 A 
HETATM   12  C   UNK N   1      26.990  20.345   5.958  0.00  0.00    -0.030 A 
HETATM   13  C   UNK N   1      29.116  18.518   8.307  0.00  0.00     0.260 A 
HETATM   14  C   UNK N   1      30.735  16.868   8.799  0.00  0.00     0.022 A 
HETATM   15  C   UNK N   1      26.561  20.547   4.657  0.00  0.00     0.026 A 
HETATM   16  C   UNK N   1      27.093  19.771   3.651  0.00  0.00     0.090 A 
HETATM   17  C   UNK N   1      31.745  15.456   7.190  0.00  0.00     0.090 A 
HETATM   18  C   UNK N   1      26.398  21.198   7.033  0.00  0.00     0.050 C 
HETATM   19  C   UNK N   1      31.621  15.852   8.500  0.00  0.00     0.018 A 
HETATM   20  H   UNK N   1      27.789  19.911   8.108  0.00  0.00     0.169 HD
ENDROOT
BRANCH   2  21
HETATM   21  C   UNK N   1      29.820  16.909   4.065  0.00  0.00     0.093 A 
HETATM   22  C   UNK N   1      29.377  15.938   3.043  0.00  0.00     0.028 A 
HETATM   23  C   UNK N   1      30.772  16.700   2.958  0.00  0.00     0.028 A 
ENDBRANCH   2  21
TORSDOF 1
ENDMDL
MODEL 3
REMARK VINA RESULT:      -6.5      4.909      6.582
REMARK  1 active torsions:
REMARK  status: ('A' for Active; 'I' for Inactive)
REMARK    1  A    between atoms: N_2  and  C_8 
ROOT
HETATM    1  O   UNK N   1      24.883  21.315   2.449  0.00  0.00    -0.267 OA
HETATM    2  N   UNK N   1      23.235  17.855   4.492  0.00  0.00    -0.312 N 
HETATM    3  N   UNK N   1      22.991  20.253   2.672  0.00  0.00    -0.319 N 
HETATM    4  N   UNK N   1      20.944  17.562   4.038  0.00  0.00    -0.350 N 
ATOM      5  HN  UNK N   1      20.997  16.747   4.648  1.00  0.00     0.166 HD
HETATM    6  N   UNK N   1      25.447  17.679   5.266  0.00  0.00    -0.351 N 
ATOM      7  HN  UNK N   1      25.119  16.855   5.772  1.00  0.00     0.166 HD
HETATM    8  C   UNK N   1      22.092  18.290   3.842  0.00  0.00     0.137 A 
HETATM    9  C   UNK N   1      24.528  18.359   4.502  0.00  0.00     0.125 A 
HETATM   10  C   UNK N   1      21.990  19.421   2.987  0.00  0.00     0.086 A 
HETATM   11  C   UNK N   1      25.011  19.515   3.800  0.00  0.00     0.076 A 
HETATM   12  C   UNK N   1      20.741  19.724   2.401  0.00  0.00    -0.030 A 
HETATM   13  C   UNK N   1      24.296  20.375   2.964  0.00  0.00     0.260 A 
HETATM   14  C   UNK N   1      26.376  19.850   3.954  0.00  0.00     0.022 A 
HETATM   15  C   UNK N   1      19.625  18.942   2.647  0.00  0.00     0.026 A 
HETATM   16  C   UNK N   1      19.746  17.851   3.478  0.00  0.00     0.090 A 
HETATM   17  C   UNK N   1      26.749  18.015   5.401  0.00  0.00     0.090 A 
HETATM   18  C   UNK N   1      20.587  20.904   1.496  0.00  0.00     0.050 C 
HETATM   19  C   UNK N   1      27.240  19.116   4.741  0.00  0.00     0.018 A 
HETATM   20  H   UNK N   1      22.689  20.966   2.064  0.00  0.00     0.169 HD
ENDROOT
BRANCH   2  21
HETATM   21  C   UNK N   1      23.051  16.640   5.325  0.00  0.00     0.093 A 
HETATM   22  C   UNK N   1      23.239  15.175   5.364  0.00  0.00     0.028 A 
HETATM   23  C   UNK N   1      22.609  15.993   6.575  0.00  0.00     0.028 A 
ENDBRANCH   2  21
TORSDOF 1
ENDMDL
MODEL 4
REMARK VINA RESULT:      -6.4      2.409      5.613
REMARK  1 active torsions:
REMARK  status: ('A' for Active; 'I' for Inactive)
REMARK    1  A    between atoms: N_2  and  C_8 
ROOT
HETATM    1  O   UNK N   1      32.351  16.089   8.966  0.00  0.00    -0.267 OA
HETATM    2  N   UNK N   1      29.905  17.619   5.720  0.00  0.00    -0.312 N 
HETATM    3  N   UNK N   1      32.402  16.305   6.796  0.00  0.00    -0.319 N 
HETATM    4  N   UNK N   1      30.943  17.355   3.624  0.00  0.00    -0.350 N 
ATOM      5  HN  UNK N   1      30.111  17.796   3.233  1.00  0.00     0.166 HD
HETATM    6  N   UNK N   1      28.452  18.118   7.498  0.00  0.00    -0.351 N 
ATOM      7  HN  UNK N   1      27.832  18.494   6.779  1.00  0.00     0.166 HD
HETATM    8  C   UNK N   1      30.994  17.180   4.984  0.00  0.00     0.137 A 
HETATM    9  C   UNK N   1      29.652  17.589   7.084  0.00  0.00     0.125 A 
HETATM   10  C   UNK N   1      32.164  16.562   5.504  0.00  0.00     0.086 A 
HETATM   11  C   UNK N   1      30.508  17.066   8.112  0.00  0.00     0.076 A 
HETATM   12  C   UNK N   1      33.186  16.173   4.609  0.00  0.00    -0.030 A 
HETATM   13  C   UNK N   1      31.767  16.479   7.966  0.00  0.00     0.260 A 
HETATM   14  C   UNK N   1      30.047  17.138   9.446  0.00  0.00     0.022 A 
HETATM   15  C   UNK N   1      33.062  16.383   3.246  0.00  0.00     0.026 A 
HETATM   16  C   UNK N   1      31.920  16.983   2.764  0.00  0.00     0.090 A 
HETATM   17  C   UNK N   1      28.027  18.179   8.780  0.00  0.00     0.090 A 
HETATM   18  C   UNK N   1      34.433  15.520   5.109  0.00  0.00     0.050 C 
HETATM   19  C   UNK N   1      28.825  17.685   9.785  0.00  0.00     0.018 A 
HETATM   20  H   UNK N   1      33.278  15.872   6.922  0.00  0.00     0.169 HD
ENDROOT
BRANCH   2  21
HETATM   21  C   UNK N   1      28.818  18.229   4.914  0.00  0.00     0.093 A 
HETATM   22  C   UNK N   1      27.658  17.931   4.047  0.00  0.00     0.028 A 
HETATM   23  C   UNK N   1      28.113  19.416   4.396  0.00  0.00     0.028 A 
ENDBRANCH   2  21
TORSDOF 1
ENDMDL
MODEL 5
REMARK VINA RESULT:      -6.4     10.590     12.331
REMARK  1 active torsions:
REMARK  status: ('A' for Active; 'I' for Inactive)
REMARK    1  A    between atoms: N_2  and  C_8 
ROOT
HETATM    1  O   UNK N   1      30.813  23.187  -1.812  0.00  0.00    -0.267 OA
HETATM    2  N   UNK N   1      30.011  21.576  -5.765  0.00  0.00    -0.312 N 
HETATM    3  N   UNK N   1      29.331  23.336  -3.407  0.00  0.00    -0.319 N 
HETATM    4  N   UNK N   1      28.025  22.438  -6.690  0.00  0.00    -0.350 N 
ATOM      5  HN  UNK N   1      28.230  21.853  -7.500  1.00  0.00     0.166 HD
HETATM    6  N   UNK N   1      32.016  20.428  -5.336  0.00  0.00    -0.351 N 
ATOM      7  HN  UNK N   1      31.882  20.014  -6.259  1.00  0.00     0.166 HD
HETATM    8  C   UNK N   1      28.908  22.405  -5.639  0.00  0.00     0.137 A 
HETATM    9  C   UNK N   1      31.066  21.322  -4.900  0.00  0.00     0.125 A 
HETATM   10  C   UNK N   1      28.599  23.229  -4.523  0.00  0.00     0.086 A 
HETATM   11  C   UNK N   1      31.274  21.891  -3.598  0.00  0.00     0.076 A 
HETATM   12  C   UNK N   1      27.427  24.017  -4.559  0.00  0.00    -0.030 A 
HETATM   13  C   UNK N   1      30.470  22.814  -2.925  0.00  0.00     0.260 A 
HETATM   14  C   UNK N   1      32.426  21.488  -2.885  0.00  0.00     0.022 A 
HETATM   15  C   UNK N   1      26.584  23.997  -5.657  0.00  0.00     0.026 A 
HETATM   16  C   UNK N   1      26.902  23.192  -6.727  0.00  0.00     0.090 A 
HETATM   17  C   UNK N   1      33.112  20.054  -4.639  0.00  0.00     0.090 A 
HETATM   18  C   UNK N   1      27.063  24.899  -3.408  0.00  0.00     0.050 C 
HETATM   19  C   UNK N   1      33.337  20.583  -3.390  0.00  0.00     0.018 A 
HETATM   20  H   UNK N   1      28.924  23.966  -2.768  0.00  0.00     0.169 HD
ENDROOT
BRANCH   2  21
HETATM   21  C   UNK N   1      30.081  20.827  -7.044  0.00  0.00     0.093 A 
HETATM   22  C   UNK N   1      29.672  19.581  -7.727  0.00  0.00     0.028 A 
HETATM   23  C   UNK N   1      30.529  20.714  -8.445  0.00  0.00     0.028 A 
ENDBRANCH   2  21
TORSDOF 1
ENDMDL
MODEL 6
REMARK VINA RESULT:      -6.3      7.727      9.411
REMARK  1 active torsions:
REMARK  status: ('A' for Active; 'I' for Inactive)
REMARK    1  A    between atoms: N_2  and  C_8 
ROOT
HETATM    1  O   UNK N   1      19.140  15.502   9.023  0.00  0.00    -0.267 OA
HETATM    2  N   UNK N   1      23.162  14.409   7.802  0.00  0.00    -0.312 N 
HETATM    3  N   UNK N   1      20.724  14.099   9.557  0.00  0.00    -0.319 N 
HETATM    4  N   UNK N   1      24.044  12.661   9.109  0.00  0.00    -0.350 N 
ATOM      5  HN  UNK N   1      24.880  12.743   8.531  1.00  0.00     0.166 HD
HETATM    6  N   UNK N   1      22.789  16.120   6.235  0.00  0.00    -0.351 N 
ATOM      7  HN  UNK N   1      23.730  15.909   5.901  1.00  0.00     0.166 HD
HETATM    8  C   UNK N   1      22.996  13.507   8.840  0.00  0.00     0.137 A 
HETATM    9  C   UNK N   1      22.311  15.378   7.289  0.00  0.00     0.125 A 
HETATM   10  C   UNK N   1      21.842  13.372   9.660  0.00  0.00     0.086 A 
HETATM   11  C   UNK N   1      20.984  15.691   7.742  0.00  0.00     0.076 A 
HETATM   12  C   UNK N   1      21.841  12.395  10.680  0.00  0.00    -0.030 A 
HETATM   13  C   UNK N   1      20.268  15.097   8.783  0.00  0.00     0.260 A 
HETATM   14  C   UNK N   1      20.292  16.725   7.070  0.00  0.00     0.022 A 
HETATM   15  C   UNK N   1      22.937  11.576  10.891  0.00  0.00     0.026 A 
HETATM   16  C   UNK N   1      24.045  11.724  10.086  0.00  0.00     0.090 A 
HETATM   17  C   UNK N   1      22.111  17.105   5.604  0.00  0.00     0.090 A 
HETATM   18  C   UNK N   1      20.650  12.216  11.566  0.00  0.00     0.050 C 
HETATM   19  C   UNK N   1      20.839  17.427   6.015  0.00  0.00     0.018 A 
HETATM   20  H   UNK N   1      20.056  13.831  10.229  0.00  0.00     0.169 HD
ENDROOT
BRANCH   2  21
HETATM   21  C   UNK N   1      24.475  14.329   7.114  0.00  0.00     0.093 A 
HETATM   22  C   UNK N   1      25.828  14.918   7.044  0.00  0.00     0.028 A 
HETATM   23  C   UNK N   1      25.366  13.712   6.114  0.00  0.00     0.028 A 
ENDBRANCH   2  21
TORSDOF 1
ENDMDL
MODEL 7
REMARK VINA RESULT:      -6.3     11.608     13.502
REMARK  1 active torsions:
REMARK  status: ('A' for Active; 'I' for Inactive)
REMARK    1  A    between atoms: N_2  and  C_8 
ROOT
HETATM    1  O   UNK N   1      25.156  23.742  -8.182  0.00  0.00    -0.267 OA
HETATM    2  N   UNK N   1      28.109  24.330  -5.053  0.00  0.00    -0.312 N 
HETATM    3  N   UNK N   1      25.603  25.113  -6.545  0.00  0.00    -0.319 N 
HETATM    4  N   UNK N   1      27.645  26.228  -3.738  0.00  0.00    -0.350 N 
ATOM      5  HN  UNK N   1      28.488  25.987  -3.216  1.00  0.00     0.166 HD
HETATM    6  N   UNK N   1      29.021  22.389  -6.012  0.00  0.00    -0.351 N 
ATOM      7  HN  UNK N   1      29.746  22.474  -5.298  1.00  0.00     0.166 HD
HETATM    8  C   UNK N   1      27.290  25.416  -4.787  0.00  0.00     0.137 A 
HETATM    9  C   UNK N   1      28.028  23.340  -6.022  0.00  0.00     0.125 A 
HETATM   10  C   UNK N   1      26.112  25.773  -5.498  0.00  0.00     0.086 A 
HETATM   11  C   UNK N   1      27.019  23.202  -7.034  0.00  0.00     0.076 A 
HETATM   12  C   UNK N   1      25.391  26.918  -5.093  0.00  0.00    -0.030 A 
HETATM   13  C   UNK N   1      25.912  24.021  -7.263  0.00  0.00     0.260 A 
HETATM   14  C   UNK N   1      27.134  22.110  -7.925  0.00  0.00     0.022 A 
HETATM   15  C   UNK N   1      25.812  27.689  -4.023  0.00  0.00     0.026 A 
HETATM   16  C   UNK N   1      26.956  27.325  -3.348  0.00  0.00     0.090 A 
HETATM   17  C   UNK N   1      29.114  21.351  -6.873  0.00  0.00     0.090 A 
HETATM   18  C   UNK N   1      24.147  27.332  -5.810  0.00  0.00     0.050 C 
HETATM   19  C   UNK N   1      28.163  21.192  -7.853  0.00  0.00     0.018 A 
HETATM   20  H   UNK N   1      24.781  25.542  -6.877  0.00  0.00     0.169 HD
ENDROOT
BRANCH   2  21
HETATM   21  C   UNK N   1      29.277  24.198  -4.146  0.00  0.00     0.093 A 
HETATM   22  C   UNK N   1      29.760  23.569  -2.899  0.00  0.00     0.028 A 
HETATM   23  C   UNK N   1      30.672  24.521  -3.791  0.00  0.00     0.028 A 
ENDBRANCH   2  21
TORSDOF 1
ENDMDL
MODEL 8
REMARK VINA RESULT:      -6.2      2.801      5.274
REMARK  1 active torsions:
REMARK  status: ('A' for Active; 'I' for Inactive)
REMARK    1  A    between atoms: N_2  and  C_8 
ROOT
HETATM    1  O   UNK N   1      27.788  16.485   5.932  0.00  0.00    -0.267 OA
HETATM    2  N   UNK N   1      31.896  17.025   7.235  0.00  0.00    -0.312 N 
HETATM    3  N   UNK N   1      29.819  16.020   5.286  0.00  0.00    -0.319 N 
HETATM    4  N   UNK N   1      33.438  16.092   5.720  0.00  0.00    -0.350 N 
ATOM      5  HN  UNK N   1      34.161  16.420   6.361  1.00  0.00     0.166 HD
HETATM    6  N   UNK N   1      30.831  18.098   9.033  0.00  0.00    -0.351 N 
ATOM      7  HN  UNK N   1      31.774  18.256   9.392  1.00  0.00     0.166 HD
HETATM    8  C   UNK N   1      32.130  16.343   6.052  0.00  0.00     0.137 A 
HETATM    9  C   UNK N   1      30.713  17.426   7.840  0.00  0.00     0.125 A 
HETATM   10  C   UNK N   1      31.142  15.875   5.142  0.00  0.00     0.086 A 
HETATM   11  C   UNK N   1      29.378  17.215   7.354  0.00  0.00     0.076 A 
HETATM   12  C   UNK N   1      31.556  15.193   3.976  0.00  0.00    -0.030 A 
HETATM   13  C   UNK N   1      28.982  16.569   6.181  0.00  0.00     0.260 A 
HETATM   14  C   UNK N   1      28.311  17.711   8.138  0.00  0.00     0.022 A 
HETATM   15  C   UNK N   1      32.897  14.977   3.710  0.00  0.00     0.026 A 
HETATM   16  C   UNK N   1      33.837  15.439   4.604  0.00  0.00     0.090 A 
HETATM   17  C   UNK N   1      29.798  18.565   9.770  0.00  0.00     0.090 A 
HETATM   18  C   UNK N   1      30.553  14.683   2.992  0.00  0.00     0.050 C 
HETATM   19  C   UNK N   1      28.509  18.378   9.330  0.00  0.00     0.018 A 
HETATM   20  H   UNK N   1      29.328  15.617   4.533  0.00  0.00     0.169 HD
ENDROOT
BRANCH   2  21
HETATM   21  C   UNK N   1      33.120  17.395   7.989  0.00  0.00     0.093 A 
HETATM   22  C   UNK N   1      34.205  18.392   8.098  0.00  0.00     0.028 A 
HETATM   23  C   UNK N   1      34.098  17.129   9.061  0.00  0.00     0.028 A 
ENDBRANCH   2  21
TORSDOF 1
ENDMDL
MODEL 9
REMARK VINA RESULT:      -6.2     11.120     13.794
REMARK  1 active torsions:
REMARK  status: ('A' for Active; 'I' for Inactive)
REMARK    1  A    between atoms: N_2  and  C_8 
ROOT
HETATM    1  O   UNK N   1      25.200  24.428  -7.779  0.00  0.00    -0.267 OA
HETATM    2  N   UNK N   1      28.394  23.637  -4.946  0.00  0.00    -0.312 N 
HETATM    3  N   UNK N   1      26.850  23.035  -7.470  0.00  0.00    -0.319 N 
HETATM    4  N   UNK N   1      29.703  21.784  -5.577  0.00  0.00    -0.350 N 
ATOM      5  HN  UNK N   1      30.243  21.964  -4.730  1.00  0.00     0.166 HD
HETATM    6  N   UNK N   1      27.449  25.501  -3.873  0.00  0.00    -0.351 N 
ATOM      7  HN  UNK N   1      28.179  25.366  -3.172  1.00  0.00     0.166 HD
HETATM    8  C   UNK N   1      28.645  22.615  -5.848  0.00  0.00     0.137 A 
HETATM    9  C   UNK N   1      27.421  24.626  -4.932  0.00  0.00     0.125 A 
HETATM   10  C   UNK N   1      27.909  22.343  -7.034  0.00  0.00     0.086 A 
HETATM   11  C   UNK N   1      26.386  24.834  -5.906  0.00  0.00     0.076 A 
HETATM   12  C   UNK N   1      28.302  21.256  -7.846  0.00  0.00    -0.030 A 
HETATM   13  C   UNK N   1      26.135  24.097  -7.066  0.00  0.00     0.260 A 
HETATM   14  C   UNK N   1      25.495  25.911  -5.693  0.00  0.00     0.022 A 
HETATM   15  C   UNK N   1      29.383  20.461  -7.506  0.00  0.00     0.026 A 
HETATM   16  C   UNK N   1      30.082  20.742  -6.353  0.00  0.00     0.090 A 
HETATM   17  C   UNK N   1      26.588  26.526  -3.685  0.00  0.00     0.090 A 
HETATM   18  C   UNK N   1      27.559  20.932  -9.102  0.00  0.00     0.050 C 
HETATM   19  C   UNK N   1      25.587  26.750  -4.600  0.00  0.00     0.018 A 
HETATM   20  H   UNK N   1      26.501  22.666  -8.314  0.00  0.00     0.169 HD
ENDROOT
BRANCH   2  21
HETATM   21  C   UNK N   1      29.326  23.686  -3.791  0.00  0.00     0.093 A 
HETATM   22  C   UNK N   1      30.582  24.282  -3.290  0.00  0.00     0.028 A 
HETATM   23  C   UNK N   1      29.711  23.263  -2.432  0.00  0.00     0.028 A 
ENDBRANCH   2  21
TORSDOF 1
ENDMDL
