MODEL 1
REMARK VINA RESULT:      -6.1      0.000      0.000
REMARK  4 active torsions:
REMARK  status: ('A' for Active; 'I' for Inactive)
REMARK    1  A    between atoms: C_6  and  C_7 
REMARK    2  A    between atoms: C_6  and  C_9 
REMARK    3  A    between atoms: C_7  and  C_8 
REMARK    4  A    between atoms: C_9  and  C_14 
ROOT
HETATM    1  O   UNK N   1      32.314  15.186   8.650  0.00  0.00    -0.272 OA
HETATM    2  O   UNK N   1      35.036  19.022   8.335  0.00  0.00    -0.272 OA
HETATM    3  O   UNK N   1      35.525  16.047  11.589  0.00  0.00    -0.247 OA
HETATM    4  N   UNK N   1      33.903  15.633  10.126  0.00  0.00    -0.278 N 
HETATM    5  N   UNK N   1      35.276  17.534   9.959  0.00  0.00    -0.278 N 
HETATM    6  C   UNK N   1      33.512  17.194   8.191  0.00  0.00     0.126 A 
HETATM    7  C   UNK N   1      33.194  15.947   9.014  0.00  0.00     0.244 A 
HETATM    8  C   UNK N   1      34.661  17.972   8.835  0.00  0.00     0.244 A 
HETATM    9  C   UNK N   1      34.919  16.394  10.589  0.00  0.00     0.329 A 
HETATM   10  H   UNK N   1      33.665  14.813  10.618  0.00  0.00     0.173 HD
HETATM   11  H   UNK N   1      36.014  18.068  10.331  0.00  0.00     0.173 HD
ENDROOT
BRANCH   6  12
HETATM   12  C   UNK N   1      32.302  18.172   8.150  0.00  0.00     0.033 C 
BRANCH  12  13
HETATM   13  C   UNK N   1      30.853  17.708   8.397  0.00  0.00    -0.021 C 
HETATM   14  C   UNK N   1      30.060  18.580   9.346  0.00  0.00     0.009 C 
HETATM   15  C   UNK N   1      30.052  17.346   7.164  0.00  0.00     0.009 C 
ENDBRANCH  12  13
ENDBRANCH   6  12
BRANCH   6  16
HETATM   16  C   UNK N   1      33.936  16.709   6.786  0.00  0.00     0.055 C 
BRANCH  16  17
HETATM   17  C   UNK N   1      33.462  17.557   5.642  0.00  0.00    -0.035 C 
HETATM   18  C   UNK N   1      32.855  17.014   4.593  0.00  0.00     0.007 C 
ENDBRANCH  16  17
ENDBRANCH   6  16
TORSDOF 4
ENDMDL
MODEL 2
REMARK VINA RESULT:      -5.8      6.067      9.045
REMARK  4 active torsions:
REMARK  status: ('A' for Active; 'I' for Inactive)
REMARK    1  A    between atoms: C_6  and  C_7 
REMARK    2  A    between atoms: C_6  and  C_9 
REMARK    3  A    between atoms: C_7  and  C_8 
REMARK    4  A    between atoms: C_9  and  C_14 
ROOT
HETATM    1  O   UNK N   1      37.515  14.467  15.693  0.00  0.00    -0.272 OA
HETATM    2  O   UNK N   1      34.364  11.628  13.635  0.00  0.00    -0.272 OA
HETATM    3  O   UNK N   1      35.815  15.341  11.688  0.00  0.00    -0.247 OA
HETATM    4  N   UNK N   1      36.646  14.910  13.705  0.00  0.00    -0.278 N 
HETATM    5  N   UNK N   1      35.091  13.483  12.667  0.00  0.00    -0.278 N 
HETATM    6  C   UNK N   1      35.964  12.823  14.937  0.00  0.00     0.126 A 
HETATM    7  C   UNK N   1      36.747  14.129  14.809  0.00  0.00     0.244 A 
HETATM    8  C   UNK N   1      35.091  12.609  13.699  0.00  0.00     0.244 A 
HETATM    9  C   UNK N   1      35.849  14.601  12.657  0.00  0.00     0.329 A 
HETATM   10  H   UNK N   1      37.178  15.738  13.665  0.00  0.00     0.173 HD
HETATM   11  H   UNK N   1      34.515  13.297  11.891  0.00  0.00     0.173 HD
ENDROOT
BRANCH   6  12
HETATM   12  C   UNK N   1      34.989  12.861  16.149  0.00  0.00     0.033 C 
BRANCH  12  13
HETATM   13  C   UNK N   1      35.433  12.499  17.581  0.00  0.00    -0.021 C 
HETATM   14  C   UNK N   1      35.123  13.549  18.625  0.00  0.00     0.009 C 
HETATM   15  C   UNK N   1      35.071  11.108  18.056  0.00  0.00     0.009 C 
ENDBRANCH  12  13
ENDBRANCH   6  12
BRANCH   6  16
HETATM   16  C   UNK N   1      37.005  11.685  15.043  0.00  0.00     0.055 C 
BRANCH  16  17
HETATM   17  C   UNK N   1      37.809  11.431  13.801  0.00  0.00    -0.035 C 
HETATM   18  C   UNK N   1      37.805  10.240  13.214  0.00  0.00     0.007 C 
ENDBRANCH  16  17
ENDBRANCH   6  16
TORSDOF 4
ENDMDL
MODEL 3
REMARK VINA RESULT:      -5.6      6.319      9.454
REMARK  4 active torsions:
REMARK  status: ('A' for Active; 'I' for Inactive)
REMARK    1  A    between atoms: C_6  and  C_7 
REMARK    2  A    between atoms: C_6  and  C_9 
REMARK    3  A    between atoms: C_7  and  C_8 
REMARK    4  A    between atoms: C_9  and  C_14 
ROOT
HETATM    1  O   UNK N   1      33.815  10.968  14.510  0.00  0.00    -0.272 OA
HETATM    2  O   UNK N   1      37.024  14.359  15.168  0.00  0.00    -0.272 OA
HETATM    3  O   UNK N   1      35.158  13.617  11.212  0.00  0.00    -0.247 OA
HETATM    4  N   UNK N   1      34.506  12.278  12.863  0.00  0.00    -0.278 N 
HETATM    5  N   UNK N   1      36.090  13.984  13.195  0.00  0.00    -0.278 N 
HETATM    6  C   UNK N   1      35.432  12.584  15.184  0.00  0.00     0.126 A 
HETATM    7  C   UNK N   1      34.544  11.881  14.159  0.00  0.00     0.244 A 
HETATM    8  C   UNK N   1      36.230  13.702  14.511  0.00  0.00     0.244 A 
HETATM    9  C   UNK N   1      35.249  13.303  12.387  0.00  0.00     0.329 A 
HETATM   10  H   UNK N   1      33.910  11.798  12.242  0.00  0.00     0.173 HD
HETATM   11  H   UNK N   1      36.623  14.717  12.810  0.00  0.00     0.173 HD
ENDROOT
BRANCH   6  12
HETATM   12  C   UNK N   1      36.483  11.611  15.789  0.00  0.00     0.033 C 
BRANCH  12  13
HETATM   13  C   UNK N   1      37.104  10.454  14.980  0.00  0.00    -0.021 C 
HETATM   14  C   UNK N   1      38.391  10.800  14.264  0.00  0.00     0.009 C 
HETATM   15  C   UNK N   1      37.195   9.120  15.691  0.00  0.00     0.009 C 
ENDBRANCH  12  13
ENDBRANCH   6  12
BRANCH   6  16
HETATM   16  C   UNK N   1      34.491  13.188  16.253  0.00  0.00     0.055 C 
BRANCH  16  17
HETATM   17  C   UNK N   1      35.007  13.143  17.662  0.00  0.00    -0.035 C 
HETATM   18  C   UNK N   1      35.351  14.255  18.301  0.00  0.00     0.007 C 
ENDBRANCH  16  17
ENDBRANCH   6  16
TORSDOF 4
ENDMDL
MODEL 4
REMARK VINA RESULT:      -5.5      1.600      3.674
REMARK  4 active torsions:
REMARK  status: ('A' for Active; 'I' for Inactive)
REMARK    1  A    between atoms: C_6  and  C_7 
REMARK    2  A    between atoms: C_6  and  C_9 
REMARK    3  A    between atoms: C_7  and  C_8 
REMARK    4  A    between atoms: C_9  and  C_14 
ROOT
HETATM    1  O   UNK N   1      34.102  18.008   6.372  0.00  0.00    -0.272 OA
HETATM    2  O   UNK N   1      32.109  14.902   9.307  0.00  0.00    -0.272 OA
HETATM    3  O   UNK N   1      35.633  17.328  10.482  0.00  0.00    -0.247 OA
HETATM    4  N   UNK N   1      34.875  17.648   8.416  0.00  0.00    -0.278 N 
HETATM    5  N   UNK N   1      33.869  16.115   9.889  0.00  0.00    -0.278 N 
HETATM    6  C   UNK N   1      32.857  16.385   7.597  0.00  0.00     0.126 A 
HETATM    7  C   UNK N   1      33.995  17.388   7.417  0.00  0.00     0.244 A 
HETATM    8  C   UNK N   1      32.923  15.756   8.990  0.00  0.00     0.244 A 
HETATM    9  C   UNK N   1      34.818  17.039   9.622  0.00  0.00     0.329 A 
HETATM   10  H   UNK N   1      35.587  18.310   8.255  0.00  0.00     0.173 HD
HETATM   11  H   UNK N   1      33.866  15.685  10.774  0.00  0.00     0.173 HD
ENDROOT
BRANCH   6  12
HETATM   12  C   UNK N   1      32.974  15.205   6.589  0.00  0.00     0.033 C 
BRANCH  12  13
HETATM   13  C   UNK N   1      32.127  15.129   5.302  0.00  0.00    -0.021 C 
HETATM   14  C   UNK N   1      32.858  15.521   4.037  0.00  0.00     0.009 C 
HETATM   15  C   UNK N   1      31.317  13.863   5.115  0.00  0.00     0.009 C 
ENDBRANCH  12  13
ENDBRANCH   6  12
BRANCH   6  16
HETATM   16  C   UNK N   1      31.536  17.173   7.444  0.00  0.00     0.055 C 
BRANCH  16  17
HETATM   17  C   UNK N   1      31.258  18.177   8.524  0.00  0.00    -0.035 C 
HETATM   18  C   UNK N   1      30.054  18.270   9.079  0.00  0.00     0.007 C 
ENDBRANCH  16  17
ENDBRANCH   6  16
TORSDOF 4
ENDMDL
MODEL 5
REMARK VINA RESULT:      -5.4     13.947     15.702
REMARK  4 active torsions:
REMARK  status: ('A' for Active; 'I' for Inactive)
REMARK    1  A    between atoms: C_6  and  C_7 
REMARK    2  A    between atoms: C_6  and  C_9 
REMARK    3  A    between atoms: C_7  and  C_8 
REMARK    4  A    between atoms: C_9  and  C_14 
ROOT
HETATM    1  O   UNK N   1      26.487  23.947  -2.984  0.00  0.00    -0.272 OA
HETATM    2  O   UNK N   1      30.340  25.685  -5.072  0.00  0.00    -0.272 OA
HETATM    3  O   UNK N   1      30.581  22.838  -1.678  0.00  0.00    -0.247 OA
HETATM    4  N   UNK N   1      28.532  23.415  -2.322  0.00  0.00    -0.278 N 
HETATM    5  N   UNK N   1      30.456  24.264  -3.376  0.00  0.00    -0.278 N 
HETATM    6  C   UNK N   1      28.210  24.989  -4.260  0.00  0.00     0.126 A 
HETATM    7  C   UNK N   1      27.688  24.095  -3.137  0.00  0.00     0.244 A 
HETATM    8  C   UNK N   1      29.739  24.997  -4.260  0.00  0.00     0.244 A 
HETATM    9  C   UNK N   1      29.878  23.486  -2.435  0.00  0.00     0.329 A 
HETATM   10  H   UNK N   1      28.147  22.844  -1.618  0.00  0.00     0.173 HD
HETATM   11  H   UNK N   1      31.438  24.299  -3.421  0.00  0.00     0.173 HD
ENDROOT
BRANCH   6  12
HETATM   12  C   UNK N   1      27.774  26.469  -4.058  0.00  0.00     0.033 C 
BRANCH  12  13
HETATM   13  C   UNK N   1      26.649  27.122  -4.888  0.00  0.00    -0.021 C 
HETATM   14  C   UNK N   1      25.552  27.768  -4.071  0.00  0.00     0.009 C 
HETATM   15  C   UNK N   1      27.096  28.008  -6.031  0.00  0.00     0.009 C 
ENDBRANCH  12  13
ENDBRANCH   6  12
BRANCH   6  16
HETATM   16  C   UNK N   1      27.692  24.389  -5.588  0.00  0.00     0.055 C 
BRANCH  16  17
HETATM   17  C   UNK N   1      28.278  23.060  -5.964  0.00  0.00    -0.035 C 
HETATM   18  C   UNK N   1      28.044  22.521  -7.156  0.00  0.00     0.007 C 
ENDBRANCH  16  17
ENDBRANCH   6  16
TORSDOF 4
ENDMDL
MODEL 6
REMARK VINA RESULT:      -5.4      1.688      2.245
REMARK  4 active torsions:
REMARK  status: ('A' for Active; 'I' for Inactive)
REMARK    1  A    between atoms: C_6  and  C_7 
REMARK    2  A    between atoms: C_6  and  C_9 
REMARK    3  A    between atoms: C_7  and  C_8 
REMARK    4  A    between atoms: C_9  and  C_14 
ROOT
HETATM    1  O   UNK N   1      32.000  15.128   9.227  0.00  0.00    -0.272 OA
HETATM    2  O   UNK N   1      34.115  17.975   6.121  0.00  0.00    -0.272 OA
HETATM    3  O   UNK N   1      35.559  17.554  10.295  0.00  0.00    -0.247 OA
HETATM    4  N   UNK N   1      33.762  16.358   9.760  0.00  0.00    -0.278 N 
HETATM    5  N   UNK N   1      34.832  17.763   8.206  0.00  0.00    -0.278 N 
HETATM    6  C   UNK N   1      32.832  16.444   7.423  0.00  0.00     0.126 A 
HETATM    7  C   UNK N   1      32.829  15.947   8.867  0.00  0.00     0.244 A 
HETATM    8  C   UNK N   1      33.973  17.442   7.212  0.00  0.00     0.244 A 
HETATM    9  C   UNK N   1      34.742  17.235   9.447  0.00  0.00     0.329 A 
HETATM   10  H   UNK N   1      33.723  16.002  10.678  0.00  0.00     0.173 HD
HETATM   11  H   UNK N   1      35.552  18.406   8.018  0.00  0.00     0.173 HD
ENDROOT
BRANCH   6  12
HETATM   12  C   UNK N   1      31.522  17.212   7.082  0.00  0.00     0.033 C 
BRANCH  12  13
HETATM   13  C   UNK N   1      30.609  16.810   5.906  0.00  0.00    -0.021 C 
HETATM   14  C   UNK N   1      29.133  16.765   6.237  0.00  0.00     0.009 C 
HETATM   15  C   UNK N   1      30.870  17.514   4.592  0.00  0.00     0.009 C 
ENDBRANCH  12  13
ENDBRANCH   6  12
BRANCH   6  16
HETATM   16  C   UNK N   1      33.051  15.206   6.522  0.00  0.00     0.055 C 
BRANCH  16  17
HETATM   17  C   UNK N   1      34.394  14.549   6.648  0.00  0.00    -0.035 C 
HETATM   18  C   UNK N   1      35.179  14.387   5.588  0.00  0.00     0.007 C 
ENDBRANCH  16  17
ENDBRANCH   6  16
TORSDOF 4
ENDMDL
MODEL 7
REMARK VINA RESULT:      -5.3     10.599     11.836
REMARK  4 active torsions:
REMARK  status: ('A' for Active; 'I' for Inactive)
REMARK    1  A    between atoms: C_6  and  C_7 
REMARK    2  A    between atoms: C_6  and  C_9 
REMARK    3  A    between atoms: C_7  and  C_8 
REMARK    4  A    between atoms: C_9  and  C_14 
ROOT
HETATM    1  O   UNK N   1      20.241  12.357  10.599  0.00  0.00    -0.272 OA
HETATM    2  O   UNK N   1      24.727  13.333   9.531  0.00  0.00    -0.272 OA
HETATM    3  O   UNK N   1      23.564  11.573  13.434  0.00  0.00    -0.247 OA
HETATM    4  N   UNK N   1      21.901  11.989  12.018  0.00  0.00    -0.278 N 
HETATM    5  N   UNK N   1      24.142  12.455  11.479  0.00  0.00    -0.278 N 
HETATM    6  C   UNK N   1      22.384  12.949   9.742  0.00  0.00     0.126 A 
HETATM    7  C   UNK N   1      21.438  12.427  10.821  0.00  0.00     0.244 A 
HETATM    8  C   UNK N   1      23.828  12.920  10.247  0.00  0.00     0.244 A 
HETATM    9  C   UNK N   1      23.213  11.993  12.344  0.00  0.00     0.329 A 
HETATM   10  H   UNK N   1      21.251  11.653  12.679  0.00  0.00     0.173 HD
HETATM   11  H   UNK N   1      25.086  12.453  11.755  0.00  0.00     0.173 HD
ENDROOT
BRANCH   6  12
HETATM   12  C   UNK N   1      22.082  14.434   9.390  0.00  0.00     0.033 C 
BRANCH  12  13
HETATM   13  C   UNK N   1      21.105  14.837   8.267  0.00  0.00    -0.021 C 
HETATM   14  C   UNK N   1      19.921  15.662   8.723  0.00  0.00     0.009 C 
HETATM   15  C   UNK N   1      21.734  15.401   7.011  0.00  0.00     0.009 C 
ENDBRANCH  12  13
ENDBRANCH   6  12
BRANCH   6  16
HETATM   16  C   UNK N   1      22.240  12.005   8.525  0.00  0.00     0.055 C 
BRANCH  16  17
HETATM   17  C   UNK N   1      23.219  10.869   8.473  0.00  0.00    -0.035 C 
HETATM   18  C   UNK N   1      23.710  10.440   7.316  0.00  0.00     0.007 C 
ENDBRANCH  16  17
ENDBRANCH   6  16
TORSDOF 4
ENDMDL
MODEL 8
REMARK VINA RESULT:      -5.3     12.564     14.651
REMARK  4 active torsions:
REMARK  status: ('A' for Active; 'I' for Inactive)
REMARK    1  A    between atoms: C_6  and  C_7 
REMARK    2  A    between atoms: C_6  and  C_9 
REMARK    3  A    between atoms: C_7  and  C_8 
REMARK    4  A    between atoms: C_9  and  C_14 
ROOT
HETATM    1  O   UNK N   1      30.437  22.944  -1.418  0.00  0.00    -0.272 OA
HETATM    2  O   UNK N   1      29.505  23.381  -6.019  0.00  0.00    -0.272 OA
HETATM    3  O   UNK N   1      26.431  24.135  -2.910  0.00  0.00    -0.247 OA
HETATM    4  N   UNK N   1      28.434  23.516  -2.169  0.00  0.00    -0.278 N 
HETATM    5  N   UNK N   1      27.973  23.756  -4.463  0.00  0.00    -0.278 N 
HETATM    6  C   UNK N   1      30.309  23.087  -3.794  0.00  0.00     0.126 A 
HETATM    7  C   UNK N   1      29.726  23.162  -2.384  0.00  0.00     0.244 A 
HETATM    8  C   UNK N   1      29.232  23.422  -4.828  0.00  0.00     0.244 A 
HETATM    9  C   UNK N   1      27.577  23.811  -3.172  0.00  0.00     0.329 A 
HETATM   10  H   UNK N   1      28.107  23.558  -1.241  0.00  0.00     0.173 HD
HETATM   11  H   UNK N   1      27.318  23.967  -5.167  0.00  0.00     0.173 HD
ENDROOT
BRANCH   6  12
HETATM   12  C   UNK N   1      30.797  21.649  -4.132  0.00  0.00     0.033 C 
BRANCH  12  13
HETATM   13  C   UNK N   1      32.289  21.299  -4.301  0.00  0.00    -0.021 C 
HETATM   14  C   UNK N   1      33.033  21.053  -3.006  0.00  0.00     0.009 C 
HETATM   15  C   UNK N   1      32.611  20.250  -5.343  0.00  0.00     0.009 C 
ENDBRANCH  12  13
ENDBRANCH   6  12
BRANCH   6  16
HETATM   16  C   UNK N   1      31.443  24.136  -3.866  0.00  0.00     0.055 C 
BRANCH  16  17
HETATM   17  C   UNK N   1      31.015  25.561  -3.671  0.00  0.00    -0.035 C 
HETATM   18  C   UNK N   1      31.523  26.536  -4.416  0.00  0.00     0.007 C 
ENDBRANCH  16  17
ENDBRANCH   6  16
TORSDOF 4
ENDMDL
MODEL 9
REMARK VINA RESULT:      -5.2     13.849     15.890
REMARK  4 active torsions:
REMARK  status: ('A' for Active; 'I' for Inactive)
REMARK    1  A    between atoms: C_6  and  C_7 
REMARK    2  A    between atoms: C_6  and  C_9 
REMARK    3  A    between atoms: C_7  and  C_8 
REMARK    4  A    between atoms: C_9  and  C_14 
ROOT
HETATM    1  O   UNK N   1      30.263  25.826  -5.060  0.00  0.00    -0.272 OA
HETATM    2  O   UNK N   1      26.404  24.031  -3.033  0.00  0.00    -0.272 OA
HETATM    3  O   UNK N   1      30.491  22.857  -1.770  0.00  0.00    -0.247 OA
HETATM    4  N   UNK N   1      30.370  24.327  -3.434  0.00  0.00    -0.278 N 
HETATM    5  N   UNK N   1      28.447  23.447  -2.406  0.00  0.00    -0.278 N 
HETATM    6  C   UNK N   1      28.130  25.136  -4.249  0.00  0.00     0.126 A 
HETATM    7  C   UNK N   1      29.657  25.107  -4.284  0.00  0.00     0.244 A 
HETATM    8  C   UNK N   1      27.608  24.169  -3.186  0.00  0.00     0.244 A 
HETATM    9  C   UNK N   1      29.791  23.523  -2.514  0.00  0.00     0.329 A 
HETATM   10  H   UNK N   1      31.354  24.350  -3.489  0.00  0.00     0.173 HD
HETATM   11  H   UNK N   1      28.061  22.842  -1.733  0.00  0.00     0.173 HD
ENDROOT
BRANCH   6  12
HETATM   12  C   UNK N   1      27.521  24.659  -5.599  0.00  0.00     0.033 C 
BRANCH  12  13
HETATM   13  C   UNK N   1      27.423  23.169  -5.983  0.00  0.00    -0.021 C 
HETATM   14  C   UNK N   1      26.147  22.781  -6.699  0.00  0.00     0.009 C 
HETATM   15  C   UNK N   1      28.645  22.572  -6.647  0.00  0.00     0.009 C 
ENDBRANCH  12  13
ENDBRANCH   6  12
BRANCH   6  16
HETATM   16  C   UNK N   1      27.718  26.582  -3.885  0.00  0.00     0.055 C 
BRANCH  16  17
HETATM   17  C   UNK N   1      26.476  27.085  -4.560  0.00  0.00    -0.035 C 
HETATM   18  C   UNK N   1      25.567  27.784  -3.888  0.00  0.00     0.007 C 
ENDBRANCH  16  17
ENDBRANCH   6  16
TORSDOF 4
ENDMDL
