MODEL 1
REMARK VINA RESULT:      -6.4      0.000      0.000
REMARK  5 active torsions:
REMARK  status: ('A' for Active; 'I' for Inactive)
REMARK    1  A    between atoms: C_14  and  O_3 
REMARK    2  A    between atoms: O_4  and  C_17 
REMARK    3  A    between atoms: C_13  and  N_5 
REMARK    4  A    between atoms: N_12  and  C_21 
REMARK    5  A    between atoms: C_16  and  C_17 
ROOT
HETATM    1 Cl   UNK N   1      26.176  20.899   2.693  0.00  0.00    -0.045 Cl
HETATM    2  N   UNK N   1      22.354  18.150   4.712  0.00  0.00    -0.300 N 
HETATM    3  N   UNK N   1      23.672  16.755   5.888  0.00  0.00    -0.346 N 
ATOM      4  HN  UNK N   1      23.984  16.003   6.503  1.00  0.00     0.167 HD
HETATM    5  N   UNK N   1      24.137  19.460   3.727  0.00  0.00    -0.316 N 
ATOM      6  HN  UNK N   1      23.517  20.074   3.199  1.00  0.00     0.170 HD
HETATM    7  N   UNK N   1      26.320  18.799   4.403  0.00  0.00    -0.317 N 
ATOM      8  HN  UNK N   1      27.329  18.937   4.364  1.00  0.00     0.170 HD
HETATM    9  C   UNK N   1      23.640  18.460   4.497  0.00  0.00     0.143 A 
HETATM   10  C   UNK N   1      22.389  17.095   5.569  0.00  0.00     0.188 A 
HETATM   11  C   UNK N   1      24.429  17.635   5.207  0.00  0.00     0.122 A 
HETATM   12  C   UNK N   1      25.807  17.795   5.178  0.00  0.00     0.132 A 
HETATM   13  C   UNK N   1      25.494  19.623   3.677  0.00  0.00     0.182 A 
ENDROOT
BRANCH   2  14
HETATM   14  C   UNK N   1      21.156  18.830   4.211  0.00  0.00     0.233 C 
HETATM   15  O   UNK N   1      21.498  19.892   3.358  0.00  0.00    -0.356 OA
HETATM   16  C   UNK N   1      20.348  20.105   2.594  0.00  0.00     0.176 C 
HETATM   17  C   UNK N   1      19.726  18.753   2.328  0.00  0.00     0.153 C 
HETATM   18  C   UNK N   1      20.244  17.891   3.448  0.00  0.00     0.088 C 
BRANCH  16  19
HETATM   19  C   UNK N   1      20.722  20.785   1.287  0.00  0.00     0.198 C 
BRANCH  19  20
HETATM   20  O   UNK N   1      20.538  19.913   0.213  0.00  0.00    -0.398 OA
HETATM   21  H   UNK N   1      21.041  20.025  -0.608  0.00  0.00     0.209 HD
ENDBRANCH  19  20
ENDBRANCH  16  19
BRANCH  17  22
HETATM   22  O   UNK N   1      18.337  18.858   2.387  0.00  0.00    -0.393 OA
HETATM   23  H   UNK N   1      17.814  18.420   3.078  0.00  0.00     0.210 HD
ENDBRANCH  17  22
ENDBRANCH   2  14
BRANCH  12  24
HETATM   24  N   UNK N   1      26.659  16.969   5.940  0.00  0.00    -0.383 N 
HETATM   25  H   UNK N   1      26.982  16.117   5.566  0.00  0.00     0.157 HD
HETATM   26  H   UNK N   1      26.930  17.244   6.845  0.00  0.00     0.157 HD
ENDBRANCH  12  24
TORSDOF 5
ENDMDL
MODEL 2
REMARK VINA RESULT:      -6.2     17.696     19.555
REMARK  5 active torsions:
REMARK  status: ('A' for Active; 'I' for Inactive)
REMARK    1  A    between atoms: C_14  and  O_3 
REMARK    2  A    between atoms: O_4  and  C_17 
REMARK    3  A    between atoms: C_13  and  N_5 
REMARK    4  A    between atoms: N_12  and  C_21 
REMARK    5  A    between atoms: C_16  and  C_17 
ROOT
HETATM    1 Cl   UNK N   1      33.807  10.240  12.541  0.00  0.00    -0.045 Cl
HETATM    2  N   UNK N   1      35.767  13.428  16.039  0.00  0.00    -0.300 N 
HETATM    3  N   UNK N   1      37.073  14.568  14.604  0.00  0.00    -0.346 N 
ATOM      4  HN  UNK N   1      37.738  15.240  14.222  1.00  0.00     0.167 HD
HETATM    5  N   UNK N   1      34.833  11.894  14.414  0.00  0.00    -0.316 N 
ATOM      6  HN  UNK N   1      34.255  11.390  15.087  1.00  0.00     0.170 HD
HETATM    7  N   UNK N   1      35.593  12.250  12.189  0.00  0.00    -0.317 N 
ATOM      8  HN  UNK N   1      35.568  11.993  11.202  1.00  0.00     0.170 HD
HETATM    9  C   UNK N   1      35.632  12.916  14.808  0.00  0.00     0.143 A 
HETATM   10  C   UNK N   1      36.660  14.443  15.899  0.00  0.00     0.188 A 
HETATM   11  C   UNK N   1      36.403  13.603  13.946  0.00  0.00     0.122 A 
HETATM   12  C   UNK N   1      36.393  13.282  12.596  0.00  0.00     0.132 A 
HETATM   13  C   UNK N   1      34.822  11.556  13.089  0.00  0.00     0.182 A 
ENDROOT
BRANCH   2  14
HETATM   14  C   UNK N   1      35.060  13.048  17.266  0.00  0.00     0.233 C 
HETATM   15  O   UNK N   1      35.426  11.758  17.680  0.00  0.00    -0.356 OA
HETATM   16  C   UNK N   1      35.106  11.728  19.040  0.00  0.00     0.176 C 
HETATM   17  C   UNK N   1      35.412  13.097  19.605  0.00  0.00     0.153 C 
HETATM   18  C   UNK N   1      35.344  14.004  18.407  0.00  0.00     0.088 C 
BRANCH  16  19
HETATM   19  C   UNK N   1      35.941  10.665  19.738  0.00  0.00     0.198 C 
BRANCH  19  20
HETATM   20  O   UNK N   1      36.557  11.197  20.871  0.00  0.00    -0.398 OA
HETATM   21  H   UNK N   1      36.039  11.672  21.540  0.00  0.00     0.209 HD
ENDBRANCH  19  20
ENDBRANCH  16  19
BRANCH  17  22
HETATM   22  O   UNK N   1      34.439  13.442  20.543  0.00  0.00    -0.393 OA
HETATM   23  H   UNK N   1      33.784  12.804  20.867  0.00  0.00     0.210 HD
ENDBRANCH  17  22
ENDBRANCH   2  14
BRANCH  12  24
HETATM   24  N   UNK N   1      37.163  14.006  11.663  0.00  0.00    -0.383 N 
HETATM   25  H   UNK N   1      38.019  13.640  11.342  0.00  0.00     0.157 HD
HETATM   26  H   UNK N   1      36.844  14.877  11.333  0.00  0.00     0.157 HD
ENDBRANCH  12  24
TORSDOF 5
ENDMDL
MODEL 3
REMARK VINA RESULT:      -6.0      6.571      9.522
REMARK  5 active torsions:
REMARK  status: ('A' for Active; 'I' for Inactive)
REMARK    1  A    between atoms: C_14  and  O_3 
REMARK    2  A    between atoms: O_4  and  C_17 
REMARK    3  A    between atoms: C_13  and  N_5 
REMARK    4  A    between atoms: N_12  and  C_21 
REMARK    5  A    between atoms: C_16  and  C_17 
ROOT
HETATM    1 Cl   UNK N   1      28.256  15.934   2.675  0.00  0.00    -0.045 Cl
HETATM    2  N   UNK N   1      29.255  17.905   7.296  0.00  0.00    -0.300 N 
HETATM    3  N   UNK N   1      27.419  19.204   7.393  0.00  0.00    -0.346 N 
ATOM      4  HN  UNK N   1      26.716  19.867   7.719  1.00  0.00     0.167 HD
HETATM    5  N   UNK N   1      28.822  16.966   5.106  0.00  0.00    -0.316 N 
ATOM      6  HN  UNK N   1      29.665  16.392   5.086  1.00  0.00     0.170 HD
HETATM    7  N   UNK N   1      26.798  17.716   4.107  0.00  0.00    -0.317 N 
ATOM      8  HN  UNK N   1      26.142  17.687   3.327  1.00  0.00     0.170 HD
HETATM    9  C   UNK N   1      28.548  17.765   6.167  0.00  0.00     0.143 A 
HETATM   10  C   UNK N   1      28.549  18.797   8.041  0.00  0.00     0.188 A 
HETATM   11  C   UNK N   1      27.444  18.532   6.226  0.00  0.00     0.122 A 
HETATM   12  C   UNK N   1      26.530  18.517   5.183  0.00  0.00     0.132 A 
HETATM   13  C   UNK N   1      27.938  16.950   4.064  0.00  0.00     0.182 A 
ENDROOT
BRANCH   2  14
HETATM   14  C   UNK N   1      30.478  17.204   7.698  0.00  0.00     0.233 C 
HETATM   15  O   UNK N   1      31.324  16.993   6.597  0.00  0.00    -0.356 OA
HETATM   16  C   UNK N   1      32.587  16.803   7.164  0.00  0.00     0.176 C 
HETATM   17  C   UNK N   1      32.690  17.727   8.356  0.00  0.00     0.153 C 
HETATM   18  C   UNK N   1      31.258  17.973   8.746  0.00  0.00     0.088 C 
BRANCH  16  19
HETATM   19  C   UNK N   1      33.661  17.134   6.139  0.00  0.00     0.198 C 
BRANCH  19  20
HETATM   20  O   UNK N   1      34.574  18.047   6.668  0.00  0.00    -0.398 OA
HETATM   21  H   UNK N   1      35.525  17.859   6.658  0.00  0.00     0.209 HD
ENDBRANCH  19  20
ENDBRANCH  16  19
BRANCH  17  22
HETATM   22  O   UNK N   1      33.380  17.086   9.384  0.00  0.00    -0.393 OA
HETATM   23  H   UNK N   1      33.013  16.321   9.854  0.00  0.00     0.210 HD
ENDBRANCH  17  22
ENDBRANCH   2  14
BRANCH  12  24
HETATM   24  N   UNK N   1      25.347  19.282   5.232  0.00  0.00    -0.383 N 
HETATM   25  H   UNK N   1      24.473  18.833   5.305  0.00  0.00     0.157 HD
HETATM   26  H   UNK N   1      25.394  20.264   5.193  0.00  0.00     0.157 HD
ENDBRANCH  12  24
TORSDOF 5
ENDMDL
MODEL 4
REMARK VINA RESULT:      -5.9     13.098     15.031
REMARK  5 active torsions:
REMARK  status: ('A' for Active; 'I' for Inactive)
REMARK    1  A    between atoms: C_14  and  O_3 
REMARK    2  A    between atoms: O_4  and  C_17 
REMARK    3  A    between atoms: C_13  and  N_5 
REMARK    4  A    between atoms: N_12  and  C_21 
REMARK    5  A    between atoms: C_16  and  C_17 
ROOT
HETATM    1 Cl   UNK N   1      33.907  10.236  12.782  0.00  0.00    -0.045 Cl
HETATM    2  N   UNK N   1      35.030  14.901  10.989  0.00  0.00    -0.300 N 
HETATM    3  N   UNK N   1      36.458  15.444  12.642  0.00  0.00    -0.346 N 
ATOM      4  HN  UNK N   1      37.122  15.959  13.220  1.00  0.00     0.167 HD
HETATM    5  N   UNK N   1      34.464  12.697  11.817  0.00  0.00    -0.316 N 
ATOM      6  HN  UNK N   1      33.817  12.479  11.059  1.00  0.00     0.170 HD
HETATM    7  N   UNK N   1      35.596  12.088  13.819  0.00  0.00    -0.317 N 
ATOM      8  HN  UNK N   1      35.778  11.398  14.547  1.00  0.00     0.170 HD
HETATM    9  C   UNK N   1      35.101  13.892  11.868  0.00  0.00     0.143 A 
HETATM   10  C   UNK N   1      35.868  15.852  11.480  0.00  0.00     0.188 A 
HETATM   11  C   UNK N   1      35.962  14.210  12.852  0.00  0.00     0.122 A 
HETATM   12  C   UNK N   1      36.236  13.296  13.859  0.00  0.00     0.132 A 
HETATM   13  C   UNK N   1      34.712  11.790  12.810  0.00  0.00     0.182 A 
ENDROOT
BRANCH   2  14
HETATM   14  C   UNK N   1      34.284  14.960   9.729  0.00  0.00     0.233 C 
HETATM   15  O   UNK N   1      33.805  16.258   9.486  0.00  0.00    -0.356 OA
HETATM   16  C   UNK N   1      33.583  16.291   8.107  0.00  0.00     0.176 C 
HETATM   17  C   UNK N   1      34.677  15.479   7.454  0.00  0.00     0.153 C 
HETATM   18  C   UNK N   1      35.132  14.545   8.544  0.00  0.00     0.088 C 
BRANCH  16  19
HETATM   19  C   UNK N   1      33.625  17.731   7.618  0.00  0.00     0.198 C 
BRANCH  19  20
HETATM   20  O   UNK N   1      34.433  17.837   6.486  0.00  0.00    -0.398 OA
HETATM   21  H   UNK N   1      34.167  17.428   5.648  0.00  0.00     0.209 HD
ENDBRANCH  19  20
ENDBRANCH  16  19
BRANCH  17  22
HETATM   22  O   UNK N   1      34.150  14.764   6.379  0.00  0.00    -0.393 OA
HETATM   23  H   UNK N   1      33.231  14.874   6.086  0.00  0.00     0.210 HD
ENDBRANCH  17  22
ENDBRANCH   2  14
BRANCH  12  24
HETATM   24  N   UNK N   1      37.160  13.585  14.883  0.00  0.00    -0.383 N 
HETATM   25  H   UNK N   1      38.057  13.921  14.656  0.00  0.00     0.157 HD
HETATM   26  H   UNK N   1      36.908  13.452  15.825  0.00  0.00     0.157 HD
ENDBRANCH  12  24
TORSDOF 5
ENDMDL
MODEL 5
REMARK VINA RESULT:      -5.8      7.759     10.707
REMARK  5 active torsions:
REMARK  status: ('A' for Active; 'I' for Inactive)
REMARK    1  A    between atoms: C_14  and  O_3 
REMARK    2  A    between atoms: O_4  and  C_17 
REMARK    3  A    between atoms: C_13  and  N_5 
REMARK    4  A    between atoms: N_12  and  C_21 
REMARK    5  A    between atoms: C_16  and  C_17 
ROOT
HETATM    1 Cl   UNK N   1      29.317  17.805  10.158  0.00  0.00    -0.045 Cl
HETATM    2  N   UNK N   1      31.001  17.008   5.386  0.00  0.00    -0.300 N 
HETATM    3  N   UNK N   1      28.962  16.874   4.443  0.00  0.00    -0.346 N 
ATOM      4  HN  UNK N   1      28.216  16.768   3.755  1.00  0.00     0.167 HD
HETATM    5  N   UNK N   1      30.239  17.370   7.657  0.00  0.00    -0.316 N 
ATOM      6  HN  UNK N   1      31.176  17.420   8.059  1.00  0.00     0.170 HD
HETATM    7  N   UNK N   1      27.874  17.467   7.887  0.00  0.00    -0.317 N 
ATOM      8  HN  UNK N   1      27.055  17.592   8.482  1.00  0.00     0.170 HD
HETATM    9  C   UNK N   1      30.061  17.150   6.330  0.00  0.00     0.143 A 
HETATM   10  C   UNK N   1      30.309  16.835   4.229  0.00  0.00     0.188 A 
HETATM   11  C   UNK N   1      28.841  17.081   5.768  0.00  0.00     0.122 A 
HETATM   12  C   UNK N   1      27.705  17.248   6.547  0.00  0.00     0.132 A 
HETATM   13  C   UNK N   1      29.130  17.523   8.441  0.00  0.00     0.182 A 
ENDROOT
BRANCH   2  14
HETATM   14  C   UNK N   1      32.457  17.095   5.530  0.00  0.00     0.233 C 
HETATM   15  O   UNK N   1      32.810  17.934   6.600  0.00  0.00    -0.356 OA
HETATM   16  C   UNK N   1      34.109  17.542   6.931  0.00  0.00     0.176 C 
HETATM   17  C   UNK N   1      34.187  16.043   6.753  0.00  0.00     0.153 C 
HETATM   18  C   UNK N   1      33.089  15.739   5.771  0.00  0.00     0.088 C 
BRANCH  16  19
HETATM   19  C   UNK N   1      34.404  17.922   8.374  0.00  0.00     0.198 C 
BRANCH  19  20
HETATM   20  O   UNK N   1      35.193  19.072   8.423  0.00  0.00    -0.398 OA
HETATM   21  H   UNK N   1      36.032  19.076   8.908  0.00  0.00     0.209 HD
ENDBRANCH  19  20
ENDBRANCH  16  19
BRANCH  17  22
HETATM   22  O   UNK N   1      35.432  15.700   6.225  0.00  0.00    -0.393 OA
HETATM   23  H   UNK N   1      36.054  16.367   5.894  0.00  0.00     0.210 HD
ENDBRANCH  17  22
ENDBRANCH   2  14
BRANCH  12  24
HETATM   24  N   UNK N   1      26.415  17.216   5.981  0.00  0.00    -0.383 N 
HETATM   25  H   UNK N   1      26.210  17.766   5.191  0.00  0.00     0.157 HD
HETATM   26  H   UNK N   1      25.718  16.645   6.377  0.00  0.00     0.157 HD
ENDBRANCH  12  24
TORSDOF 5
ENDMDL
MODEL 6
REMARK VINA RESULT:      -5.8      1.951      2.487
REMARK  5 active torsions:
REMARK  status: ('A' for Active; 'I' for Inactive)
REMARK    1  A    between atoms: C_14  and  O_3 
REMARK    2  A    between atoms: O_4  and  C_17 
REMARK    3  A    between atoms: C_13  and  N_5 
REMARK    4  A    between atoms: N_12  and  C_21 
REMARK    5  A    between atoms: C_16  and  C_17 
ROOT
HETATM    1 Cl   UNK N   1      26.721  21.738   6.593  0.00  0.00    -0.045 Cl
HETATM    2  N   UNK N   1      24.425  17.902   4.090  0.00  0.00    -0.300 N 
HETATM    3  N   UNK N   1      26.324  16.884   3.440  0.00  0.00    -0.346 N 
ATOM      4  HN  UNK N   1      26.973  16.223   3.014  1.00  0.00     0.167 HD
HETATM    5  N   UNK N   1      25.478  19.738   5.268  0.00  0.00    -0.316 N 
ATOM      6  HN  UNK N   1      24.601  20.182   5.544  1.00  0.00     0.170 HD
HETATM    7  N   UNK N   1      27.855  19.658   5.272  0.00  0.00    -0.317 N 
ATOM      8  HN  UNK N   1      28.745  20.062   5.562  1.00  0.00     0.170 HD
HETATM    9  C   UNK N   1      25.481  18.604   4.526  0.00  0.00     0.143 A 
HETATM   10  C   UNK N   1      24.960  16.847   3.420  0.00  0.00     0.188 A 
HETATM   11  C   UNK N   1      26.617  17.992   4.148  0.00  0.00     0.122 A 
HETATM   12  C   UNK N   1      27.846  18.512   4.525  0.00  0.00     0.132 A 
HETATM   13  C   UNK N   1      26.681  20.272   5.637  0.00  0.00     0.182 A 
ENDROOT
BRANCH   2  14
HETATM   14  C   UNK N   1      23.002  18.151   4.336  0.00  0.00     0.233 C 
HETATM   15  O   UNK N   1      22.647  19.460   3.968  0.00  0.00    -0.356 OA
HETATM   16  C   UNK N   1      21.265  19.401   3.775  0.00  0.00     0.176 C 
HETATM   17  C   UNK N   1      20.953  18.057   3.157  0.00  0.00     0.153 C 
HETATM   18  C   UNK N   1      22.114  17.193   3.568  0.00  0.00     0.088 C 
BRANCH  16  19
HETATM   19  C   UNK N   1      20.832  20.526   2.848  0.00  0.00     0.198 C 
BRANCH  19  20
HETATM   20  O   UNK N   1      21.775  21.554   2.855  0.00  0.00    -0.398 OA
HETATM   21  H   UNK N   1      22.723  21.355   2.897  0.00  0.00     0.209 HD
ENDBRANCH  19  20
ENDBRANCH  16  19
BRANCH  17  22
HETATM   22  O   UNK N   1      19.759  17.566   3.686  0.00  0.00    -0.393 OA
HETATM   23  H   UNK N   1      19.561  17.603   4.635  0.00  0.00     0.210 HD
ENDBRANCH  17  22
ENDBRANCH   2  14
BRANCH  12  24
HETATM   24  N   UNK N   1      29.054  17.874   4.175  0.00  0.00    -0.383 N 
HETATM   25  H   UNK N   1      29.729  18.356   3.645  0.00  0.00     0.157 HD
HETATM   26  H   UNK N   1      29.221  16.947   4.460  0.00  0.00     0.157 HD
ENDBRANCH  12  24
TORSDOF 5
ENDMDL
MODEL 7
REMARK VINA RESULT:      -5.7      3.017      5.223
REMARK  5 active torsions:
REMARK  status: ('A' for Active; 'I' for Inactive)
REMARK    1  A    between atoms: C_14  and  O_3 
REMARK    2  A    between atoms: O_4  and  C_17 
REMARK    3  A    between atoms: C_13  and  N_5 
REMARK    4  A    between atoms: N_12  and  C_21 
REMARK    5  A    between atoms: C_16  and  C_17 
ROOT
HETATM    1 Cl   UNK N   1      24.572  20.497   3.495  0.00  0.00    -0.045 Cl
HETATM    2  N   UNK N   1      20.470  17.443   3.795  0.00  0.00    -0.300 N 
HETATM    3  N   UNK N   1      19.250  18.547   2.258  0.00  0.00    -0.346 N 
ATOM      4  HN  UNK N   1      18.488  18.818   1.637  1.00  0.00     0.167 HD
HETATM    5  N   UNK N   1      22.420  18.876   3.690  0.00  0.00    -0.316 N 
ATOM      6  HN  UNK N   1      22.948  18.361   4.396  1.00  0.00     0.170 HD
HETATM    7  N   UNK N   1      22.243  20.649   2.114  0.00  0.00    -0.317 N 
ATOM      8  HN  UNK N   1      22.660  21.458   1.654  1.00  0.00     0.170 HD
HETATM    9  C   UNK N   1      21.166  18.495   3.342  0.00  0.00     0.143 A 
HETATM   10  C   UNK N   1      19.290  17.490   3.121  0.00  0.00     0.188 A 
HETATM   11  C   UNK N   1      20.444  19.150   2.416  0.00  0.00     0.122 A 
HETATM   12  C   UNK N   1      20.979  20.254   1.769  0.00  0.00     0.132 A 
HETATM   13  C   UNK N   1      22.957  19.970   3.072  0.00  0.00     0.182 A 
ENDROOT
BRANCH   2  14
HETATM   14  C   UNK N   1      20.893  16.412   4.746  0.00  0.00     0.233 C 
HETATM   15  O   UNK N   1      22.264  16.136   4.615  0.00  0.00    -0.356 OA
HETATM   16  C   UNK N   1      22.619  15.564   5.839  0.00  0.00     0.176 C 
HETATM   17  C   UNK N   1      21.829  16.272   6.915  0.00  0.00     0.153 C 
HETATM   18  C   UNK N   1      20.633  16.819   6.183  0.00  0.00     0.088 C 
BRANCH  16  19
HETATM   19  C   UNK N   1      24.112  15.741   6.071  0.00  0.00     0.198 C 
BRANCH  19  20
HETATM   20  O   UNK N   1      24.525  17.004   5.644  0.00  0.00    -0.398 OA
HETATM   21  H   UNK N   1      24.451  17.773   6.230  0.00  0.00     0.209 HD
ENDBRANCH  19  20
ENDBRANCH  16  19
BRANCH  17  22
HETATM   22  O   UNK N   1      21.435  15.352   7.887  0.00  0.00    -0.393 OA
HETATM   23  H   UNK N   1      21.969  15.176   8.678  0.00  0.00     0.210 HD
ENDBRANCH  17  22
ENDBRANCH   2  14
BRANCH  12  24
HETATM   24  N   UNK N   1      20.262  20.939   0.768  0.00  0.00    -0.383 N 
HETATM   25  H   UNK N   1      19.562  21.585   1.019  0.00  0.00     0.157 HD
HETATM   26  H   UNK N   1      20.460  20.773  -0.182  0.00  0.00     0.157 HD
ENDBRANCH  12  24
TORSDOF 5
ENDMDL
MODEL 8
REMARK VINA RESULT:      -5.5     10.864     11.492
REMARK  5 active torsions:
REMARK  status: ('A' for Active; 'I' for Inactive)
REMARK    1  A    between atoms: C_14  and  O_3 
REMARK    2  A    between atoms: O_4  and  C_17 
REMARK    3  A    between atoms: C_13  and  N_5 
REMARK    4  A    between atoms: N_12  and  C_21 
REMARK    5  A    between atoms: C_16  and  C_17 
ROOT
HETATM    1 Cl   UNK N   1      31.033  19.568  -7.179  0.00  0.00    -0.045 Cl
HETATM    2  N   UNK N   1      29.214  23.331  -4.217  0.00  0.00    -0.300 N 
HETATM    3  N   UNK N   1      30.657  23.005  -2.520  0.00  0.00    -0.346 N 
ATOM      4  HN  UNK N   1      31.146  23.101  -1.630  1.00  0.00     0.167 HD
HETATM    5  N   UNK N   1      30.039  21.549  -5.636  0.00  0.00    -0.316 N 
ATOM      6  HN  UNK N   1      29.368  21.715  -6.387  1.00  0.00     0.170 HD
HETATM    7  N   UNK N   1      31.886  20.357  -4.729  0.00  0.00    -0.317 N 
ATOM      8  HN  UNK N   1      32.588  19.623  -4.824  1.00  0.00     0.170 HD
HETATM    9  C   UNK N   1      30.021  22.301  -4.507  0.00  0.00     0.143 A 
HETATM   10  C   UNK N   1      29.616  23.752  -2.988  0.00  0.00     0.188 A 
HETATM   11  C   UNK N   1      30.892  22.110  -3.500  0.00  0.00     0.122 A 
HETATM   12  C   UNK N   1      31.861  21.123  -3.595  0.00  0.00     0.132 A 
HETATM   13  C   UNK N   1      30.979  20.562  -5.740  0.00  0.00     0.182 A 
ENDROOT
BRANCH   2  14
HETATM   14  C   UNK N   1      28.175  23.938  -5.053  0.00  0.00     0.233 C 
HETATM   15  O   UNK N   1      27.840  23.100  -6.129  0.00  0.00    -0.356 OA
HETATM   16  C   UNK N   1      26.567  23.528  -6.515  0.00  0.00     0.176 C 
HETATM   17  C   UNK N   1      25.818  23.909  -5.259  0.00  0.00     0.153 C 
HETATM   18  C   UNK N   1      26.909  24.225  -4.271  0.00  0.00     0.088 C 
BRANCH  16  19
HETATM   19  C   UNK N   1      25.849  22.401  -7.242  0.00  0.00     0.198 C 
BRANCH  19  20
HETATM   20  O   UNK N   1      24.603  22.163  -6.660  0.00  0.00    -0.398 OA
HETATM   21  H   UNK N   1      23.934  22.863  -6.618  0.00  0.00     0.209 HD
ENDBRANCH  19  20
ENDBRANCH  16  19
BRANCH  17  22
HETATM   22  O   UNK N   1      25.034  25.035  -5.506  0.00  0.00    -0.393 OA
HETATM   23  H   UNK N   1      25.421  25.909  -5.673  0.00  0.00     0.210 HD
ENDBRANCH  17  22
ENDBRANCH   2  14
BRANCH  12  24
HETATM   24  N   UNK N   1      32.810  20.923  -2.573  0.00  0.00    -0.383 N 
HETATM   25  H   UNK N   1      33.738  20.686  -2.801  0.00  0.00     0.157 HD
HETATM   26  H   UNK N   1      32.545  21.020  -1.630  0.00  0.00     0.157 HD
ENDBRANCH  12  24
TORSDOF 5
ENDMDL
MODEL 9
REMARK VINA RESULT:      -5.5      7.313     10.102
REMARK  5 active torsions:
REMARK  status: ('A' for Active; 'I' for Inactive)
REMARK    1  A    between atoms: C_14  and  O_3 
REMARK    2  A    between atoms: O_4  and  C_17 
REMARK    3  A    between atoms: C_13  and  N_5 
REMARK    4  A    between atoms: N_12  and  C_21 
REMARK    5  A    between atoms: C_16  and  C_17 
ROOT
HETATM    1 Cl   UNK N   1      31.009  16.147   3.154  0.00  0.00    -0.045 Cl
HETATM    2  N   UNK N   1      29.649  17.927   7.760  0.00  0.00    -0.300 N 
HETATM    3  N   UNK N   1      27.733  18.890   7.077  0.00  0.00    -0.346 N 
ATOM      4  HN  UNK N   1      26.851  19.402   7.078  1.00  0.00     0.167 HD
HETATM    5  N   UNK N   1      30.330  17.085   5.594  0.00  0.00    -0.316 N 
ATOM      6  HN  UNK N   1      31.197  16.663   5.930  1.00  0.00     0.170 HD
HETATM    7  N   UNK N   1      28.795  17.555   3.839  0.00  0.00    -0.317 N 
ATOM      8  HN  UNK N   1      28.534  17.472   2.857  1.00  0.00     0.170 HD
HETATM    9  C   UNK N   1      29.505  17.751   6.440  0.00  0.00     0.143 A 
HETATM   10  C   UNK N   1      28.551  18.634   8.139  0.00  0.00     0.188 A 
HETATM   11  C   UNK N   1      28.356  18.316   6.030  0.00  0.00     0.122 A 
HETATM   12  C   UNK N   1      27.969  18.222   4.702  0.00  0.00     0.132 A 
HETATM   13  C   UNK N   1      29.970  16.995   4.278  0.00  0.00     0.182 A 
ENDROOT
BRANCH   2  14
HETATM   14  C   UNK N   1      30.705  17.414   8.639  0.00  0.00     0.233 C 
HETATM   15  O   UNK N   1      30.893  16.035   8.450  0.00  0.00    -0.356 OA
HETATM   16  C   UNK N   1      32.183  15.795   8.927  0.00  0.00     0.176 C 
HETATM   17  C   UNK N   1      33.031  16.991   8.559  0.00  0.00     0.153 C 
HETATM   18  C   UNK N   1      32.032  18.105   8.399  0.00  0.00     0.088 C 
BRANCH  16  19
HETATM   19  C   UNK N   1      32.738  14.532   8.286  0.00  0.00     0.198 C 
BRANCH  19  20
HETATM   20  O   UNK N   1      32.335  13.405   9.003  0.00  0.00    -0.398 OA
HETATM   21  H   UNK N   1      31.483  13.390   9.466  0.00  0.00     0.209 HD
ENDBRANCH  19  20
ENDBRANCH  16  19
BRANCH  17  22
HETATM   22  O   UNK N   1      33.920  17.270   9.597  0.00  0.00    -0.393 OA
HETATM   23  H   UNK N   1      34.829  17.567   9.433  0.00  0.00     0.210 HD
ENDBRANCH  17  22
ENDBRANCH   2  14
BRANCH  12  24
HETATM   24  N   UNK N   1      26.752  18.773   4.250  0.00  0.00    -0.383 N 
HETATM   25  H   UNK N   1      26.618  19.748   4.264  0.00  0.00     0.157 HD
HETATM   26  H   UNK N   1      26.037  18.182   3.920  0.00  0.00     0.157 HD
ENDBRANCH  12  24
TORSDOF 5
ENDMDL
