MODEL 1
REMARK VINA RESULT:      -7.6      0.000      0.000
REMARK  10 active torsions:
REMARK  status: ('A' for Active; 'I' for Inactive)
REMARK    1  A    between atoms: O_1  and  C_14 
REMARK    2  A    between atoms: O_2  and  C_15 
REMARK    3  A    between atoms: O_2  and  C_18 
REMARK    4  A    between atoms: O_4  and  C_23 
REMARK    5  A    between atoms: N_5  and  C_12 
REMARK    6  A    between atoms: N_6  and  C_13 
REMARK       I    between atoms: N_7  and  C_16 
REMARK    7  A    between atoms: N_7  and  C_17 
REMARK    8  A    between atoms: C_12  and  C_14 
REMARK    9  A    between atoms: C_13  and  C_16 
REMARK   10  A    between atoms: C_14  and  C_15 
ROOT
HETATM    1  N   UNK N   1      36.125  15.275   9.671  0.00  0.00     0.094 N 
HETATM    2  N   UNK N   1      35.531  13.735  12.069  0.00  0.00     0.100 N 
HETATM    3  C   UNK N   1      37.169  14.478  10.319  0.00  0.00     0.302 C 
HETATM    4  C   UNK N   1      35.216  15.781  10.705  0.00  0.00     0.302 C 
HETATM    5  C   UNK N   1      36.570  13.304  11.113  0.00  0.00     0.303 C 
HETATM    6  C   UNK N   1      34.547  14.634  11.468  0.00  0.00     0.303 C 
ENDROOT
BRANCH   1   7
HETATM    7  C   UNK N   1      35.469  14.446   8.646  0.00  0.00     0.306 C 
BRANCH   7   8
HETATM    8  C   UNK N   1      36.342  14.069   7.443  0.00  0.00     0.170 C 
BRANCH   8   9
HETATM    9  O   UNK N   1      36.357  12.689   7.242  0.00  0.00    -0.392 OA
HETATM   10  H   UNK N   1      36.750  12.076   7.885  0.00  0.00     0.210 HD
ENDBRANCH   8   9
BRANCH   8  11
HETATM   11  C   UNK N   1      35.941  14.790   6.167  0.00  0.00     0.209 C 
BRANCH  11  12
HETATM   12  O   UNK N   1      34.580  14.994   6.165  0.00  0.00    -0.346 OA
BRANCH  12  13
HETATM   13  C   UNK N   1      33.902  15.712   5.229  0.00  0.00     0.102 A 
HETATM   14  C   UNK N   1      33.704  17.119   5.316  0.00  0.00     0.101 A 
HETATM   15  C   UNK N   1      32.990  17.775   4.297  0.00  0.00     0.039 A 
HETATM   16  C   UNK N   1      32.480  17.062   3.214  0.00  0.00     0.003 A 
HETATM   17  C   UNK N   1      32.674  15.685   3.131  0.00  0.00     0.003 A 
HETATM   18  C   UNK N   1      33.379  15.017   4.132  0.00  0.00     0.039 A 
BRANCH  14  19
HETATM   19  O   UNK N   1      34.192  17.821   6.370  0.00  0.00    -0.353 OA
HETATM   20  C   UNK N   1      33.553  17.921   7.586  0.00  0.00     0.210 C 
ENDBRANCH  14  19
ENDBRANCH  12  13
ENDBRANCH  11  12
ENDBRANCH   8  11
ENDBRANCH   7   8
ENDBRANCH   1   7
BRANCH   2  21
HETATM   21  C   UNK N   1      35.976  14.288  13.358  0.00  0.00     0.375 C 
BRANCH  21  22
HETATM   22  C   UNK N   1      36.115  13.292  14.465  0.00  0.00     0.250 C 
HETATM   23  O   UNK N   1      37.195  12.746  14.644  0.00  0.00    -0.271 OA
HETATM   24  N   UNK N   1      35.076  13.087  15.314  0.00  0.00    -0.325 N 
HETATM   25  H   UNK N   1      34.270  13.636  15.180  0.00  0.00     0.169 HD
BRANCH  24  26
HETATM   26  C   UNK N   1      35.055  12.142  16.383  0.00  0.00     0.046 A 
HETATM   27  C   UNK N   1      34.844  10.751  16.173  0.00  0.00    -0.035 A 
HETATM   28  C   UNK N   1      34.832   9.879  17.265  0.00  0.00     0.009 A 
HETATM   29  C   UNK N   1      34.570  10.172  14.826  0.00  0.00     0.050 C 
HETATM   30  C   UNK N   1      35.023  10.358  18.559  0.00  0.00     0.001 A 
HETATM   31  C   UNK N   1      35.205  11.723  18.777  0.00  0.00     0.009 A 
HETATM   32  C   UNK N   1      35.216  12.613  17.701  0.00  0.00    -0.035 A 
HETATM   33  C   UNK N   1      35.414  14.067  17.974  0.00  0.00     0.050 C 
ENDBRANCH  24  26
ENDBRANCH  21  22
ENDBRANCH   2  21
TORSDOF 10
ENDMDL
MODEL 2
REMARK VINA RESULT:      -7.4      2.004      2.865
REMARK  10 active torsions:
REMARK  status: ('A' for Active; 'I' for Inactive)
REMARK    1  A    between atoms: O_1  and  C_14 
REMARK    2  A    between atoms: O_2  and  C_15 
REMARK    3  A    between atoms: O_2  and  C_18 
REMARK    4  A    between atoms: O_4  and  C_23 
REMARK    5  A    between atoms: N_5  and  C_12 
REMARK    6  A    between atoms: N_6  and  C_13 
REMARK       I    between atoms: N_7  and  C_16 
REMARK    7  A    between atoms: N_7  and  C_17 
REMARK    8  A    between atoms: C_12  and  C_14 
REMARK    9  A    between atoms: C_13  and  C_16 
REMARK   10  A    between atoms: C_14  and  C_15 
ROOT
HETATM    1  N   UNK N   1      36.288  15.184   9.797  0.00  0.00     0.094 N 
HETATM    2  N   UNK N   1      35.436  14.154  12.383  0.00  0.00     0.100 N 
HETATM    3  C   UNK N   1      36.910  13.983  10.359  0.00  0.00     0.302 C 
HETATM    4  C   UNK N   1      35.923  16.079  10.901  0.00  0.00     0.302 C 
HETATM    5  C   UNK N   1      35.961  13.260  11.332  0.00  0.00     0.303 C 
HETATM    6  C   UNK N   1      34.923  15.415  11.850  0.00  0.00     0.303 C 
ENDROOT
BRANCH   1   7
HETATM    7  C   UNK N   1      35.152  14.774   8.954  0.00  0.00     0.306 C 
BRANCH   7   8
HETATM    8  C   UNK N   1      34.365  15.919   8.307  0.00  0.00     0.170 C 
BRANCH   8   9
HETATM    9  O   UNK N   1      34.360  15.807   6.916  0.00  0.00    -0.392 OA
HETATM   10  H   UNK N   1      35.084  15.382   6.428  0.00  0.00     0.210 HD
ENDBRANCH   8   9
BRANCH   8  11
HETATM   11  C   UNK N   1      32.945  16.041   8.836  0.00  0.00     0.209 C 
BRANCH  11  12
HETATM   12  O   UNK N   1      32.451  17.290   8.537  0.00  0.00    -0.346 OA
BRANCH  12  13
HETATM   13  C   UNK N   1      31.186  17.542   8.104  0.00  0.00     0.102 A 
HETATM   14  C   UNK N   1      30.743  17.264   6.779  0.00  0.00     0.101 A 
HETATM   15  C   UNK N   1      29.414  17.559   6.424  0.00  0.00     0.039 A 
HETATM   16  C   UNK N   1      28.538  18.118   7.353  0.00  0.00     0.003 A 
HETATM   17  C   UNK N   1      28.974  18.391   8.648  0.00  0.00     0.003 A 
HETATM   18  C   UNK N   1      30.288  18.105   9.018  0.00  0.00     0.039 A 
BRANCH  14  19
HETATM   19  O   UNK N   1      31.591  16.725   5.867  0.00  0.00    -0.353 OA
HETATM   20  C   UNK N   1      31.817  17.262   4.619  0.00  0.00     0.210 C 
ENDBRANCH  14  19
ENDBRANCH  12  13
ENDBRANCH  11  12
ENDBRANCH   8  11
ENDBRANCH   7   8
ENDBRANCH   1   7
BRANCH   2  21
HETATM   21  C   UNK N   1      36.302  14.428  13.542  0.00  0.00     0.375 C 
BRANCH  21  22
HETATM   22  C   UNK N   1      36.336  13.353  14.581  0.00  0.00     0.250 C 
HETATM   23  O   UNK N   1      37.386  12.763  14.793  0.00  0.00    -0.271 OA
HETATM   24  N   UNK N   1      35.235  13.121  15.339  0.00  0.00    -0.325 N 
HETATM   25  H   UNK N   1      34.455  13.703  15.191  0.00  0.00     0.169 HD
BRANCH  24  26
HETATM   26  C   UNK N   1      35.114  12.105  16.333  0.00  0.00     0.046 A 
HETATM   27  C   UNK N   1      34.870  10.741  16.010  0.00  0.00    -0.035 A 
HETATM   28  C   UNK N   1      34.759   9.795  17.032  0.00  0.00     0.009 A 
HETATM   29  C   UNK N   1      34.663  10.270  14.610  0.00  0.00     0.050 C 
HETATM   30  C   UNK N   1      34.883  10.174  18.368  0.00  0.00     0.001 A 
HETATM   31  C   UNK N   1      35.097  11.513  18.695  0.00  0.00     0.009 A 
HETATM   32  C   UNK N   1      35.207  12.475  17.689  0.00  0.00    -0.035 A 
HETATM   33  C   UNK N   1      35.436  13.897  18.079  0.00  0.00     0.050 C 
ENDBRANCH  24  26
ENDBRANCH  21  22
ENDBRANCH   2  21
TORSDOF 10
ENDMDL
MODEL 3
REMARK VINA RESULT:      -7.3      2.309     10.803
REMARK  10 active torsions:
REMARK  status: ('A' for Active; 'I' for Inactive)
REMARK    1  A    between atoms: O_1  and  C_14 
REMARK    2  A    between atoms: O_2  and  C_15 
REMARK    3  A    between atoms: O_2  and  C_18 
REMARK    4  A    between atoms: O_4  and  C_23 
REMARK    5  A    between atoms: N_5  and  C_12 
REMARK    6  A    between atoms: N_6  and  C_13 
REMARK       I    between atoms: N_7  and  C_16 
REMARK    7  A    between atoms: N_7  and  C_17 
REMARK    8  A    between atoms: C_12  and  C_14 
REMARK    9  A    between atoms: C_13  and  C_16 
REMARK   10  A    between atoms: C_14  and  C_15 
ROOT
HETATM    1  N   UNK N   1      36.039  14.177  11.024  0.00  0.00     0.094 N 
HETATM    2  N   UNK N   1      34.222  16.086   9.789  0.00  0.00     0.100 N 
HETATM    3  C   UNK N   1      36.499  15.524  10.682  0.00  0.00     0.302 C 
HETATM    4  C   UNK N   1      35.040  13.760  10.033  0.00  0.00     0.302 C 
HETATM    5  C   UNK N   1      35.332  16.528  10.655  0.00  0.00     0.303 C 
HETATM    6  C   UNK N   1      33.831  14.698  10.031  0.00  0.00     0.303 C 
ENDROOT
BRANCH   1   7
HETATM    7  C   UNK N   1      35.543  14.186  12.411  0.00  0.00     0.306 C 
BRANCH   7   8
HETATM    8  C   UNK N   1      36.269  13.244  13.378  0.00  0.00     0.170 C 
BRANCH   8   9
HETATM    9  O   UNK N   1      37.514  12.866  12.875  0.00  0.00    -0.392 OA
HETATM   10  H   UNK N   1      38.107  12.266  13.356  0.00  0.00     0.210 HD
ENDBRANCH   8   9
BRANCH   8  11
HETATM   11  C   UNK N   1      36.411  13.820  14.777  0.00  0.00     0.209 C 
BRANCH  11  12
HETATM   12  O   UNK N   1      35.303  13.487  15.523  0.00  0.00    -0.346 OA
BRANCH  12  13
HETATM   13  C   UNK N   1      35.336  12.843  16.721  0.00  0.00     0.102 A 
HETATM   14  C   UNK N   1      35.520  11.436  16.848  0.00  0.00     0.101 A 
HETATM   15  C   UNK N   1      35.542  10.861  18.131  0.00  0.00     0.039 A 
HETATM   16  C   UNK N   1      35.386  11.652  19.268  0.00  0.00     0.003 A 
HETATM   17  C   UNK N   1      35.205  13.028  19.142  0.00  0.00     0.003 A 
HETATM   18  C   UNK N   1      35.180  13.616  17.877  0.00  0.00     0.039 A 
BRANCH  14  19
HETATM   19  O   UNK N   1      35.668  10.658  15.746  0.00  0.00    -0.353 OA
HETATM   20  C   UNK N   1      34.614  10.141  15.026  0.00  0.00     0.210 C 
ENDBRANCH  14  19
ENDBRANCH  12  13
ENDBRANCH  11  12
ENDBRANCH   8  11
ENDBRANCH   7   8
ENDBRANCH   1   7
BRANCH   2  21
HETATM   21  C   UNK N   1      34.355  16.311   8.340  0.00  0.00     0.375 C 
BRANCH  21  22
HETATM   22  C   UNK N   1      33.235  17.074   7.708  0.00  0.00     0.250 C 
HETATM   23  O   UNK N   1      33.374  18.270   7.496  0.00  0.00    -0.271 OA
HETATM   24  N   UNK N   1      32.128  16.411   7.288  0.00  0.00    -0.325 N 
HETATM   25  H   UNK N   1      32.123  15.432   7.391  0.00  0.00     0.169 HD
BRANCH  24  26
HETATM   26  C   UNK N   1      30.973  17.015   6.708  0.00  0.00     0.046 A 
HETATM   27  C   UNK N   1      30.839  17.228   5.308  0.00  0.00    -0.035 A 
HETATM   28  C   UNK N   1      29.682  17.828   4.804  0.00  0.00     0.009 A 
HETATM   29  C   UNK N   1      31.920  16.891   4.336  0.00  0.00     0.050 C 
HETATM   30  C   UNK N   1      28.656  18.222   5.661  0.00  0.00     0.001 A 
HETATM   31  C   UNK N   1      28.789  18.041   7.037  0.00  0.00     0.009 A 
HETATM   32  C   UNK N   1      29.939  17.447   7.562  0.00  0.00    -0.035 A 
HETATM   33  C   UNK N   1      30.043  17.270   9.040  0.00  0.00     0.050 C 
ENDBRANCH  24  26
ENDBRANCH  21  22
ENDBRANCH   2  21
TORSDOF 10
ENDMDL
MODEL 4
REMARK VINA RESULT:      -7.3      2.378      3.625
REMARK  10 active torsions:
REMARK  status: ('A' for Active; 'I' for Inactive)
REMARK    1  A    between atoms: O_1  and  C_14 
REMARK    2  A    between atoms: O_2  and  C_15 
REMARK    3  A    between atoms: O_2  and  C_18 
REMARK    4  A    between atoms: O_4  and  C_23 
REMARK    5  A    between atoms: N_5  and  C_12 
REMARK    6  A    between atoms: N_6  and  C_13 
REMARK       I    between atoms: N_7  and  C_16 
REMARK    7  A    between atoms: N_7  and  C_17 
REMARK    8  A    between atoms: C_12  and  C_14 
REMARK    9  A    between atoms: C_13  and  C_16 
REMARK   10  A    between atoms: C_14  and  C_15 
ROOT
HETATM    1  N   UNK N   1      36.013  14.942   9.431  0.00  0.00     0.094 N 
HETATM    2  N   UNK N   1      35.034  14.174  12.062  0.00  0.00     0.100 N 
HETATM    3  C   UNK N   1      36.064  13.544   9.863  0.00  0.00     0.302 C 
HETATM    4  C   UNK N   1      36.208  15.800  10.606  0.00  0.00     0.302 C 
HETATM    5  C   UNK N   1      34.987  13.241  10.920  0.00  0.00     0.303 C 
HETATM    6  C   UNK N   1      35.110  15.575  11.648  0.00  0.00     0.303 C 
ENDROOT
BRANCH   1   7
HETATM    7  C   UNK N   1      34.742  15.170   8.723  0.00  0.00     0.306 C 
BRANCH   7   8
HETATM    8  C   UNK N   1      34.562  16.569   8.123  0.00  0.00     0.170 C 
BRANCH   8   9
HETATM    9  O   UNK N   1      34.531  16.520   6.729  0.00  0.00    -0.392 OA
HETATM   10  H   UNK N   1      35.328  16.643   6.188  0.00  0.00     0.210 HD
ENDBRANCH   8   9
BRANCH   8  11
HETATM   11  C   UNK N   1      33.340  17.295   8.659  0.00  0.00     0.209 C 
BRANCH  11  12
HETATM   12  O   UNK N   1      32.370  17.340   7.682  0.00  0.00    -0.346 OA
BRANCH  12  13
HETATM   13  C   UNK N   1      31.054  17.602   7.905  0.00  0.00     0.102 A 
HETATM   14  C   UNK N   1      30.015  17.189   7.021  0.00  0.00     0.101 A 
HETATM   15  C   UNK N   1      28.682  17.505   7.337  0.00  0.00     0.039 A 
HETATM   16  C   UNK N   1      28.374  18.214   8.497  0.00  0.00     0.003 A 
HETATM   17  C   UNK N   1      29.392  18.618   9.359  0.00  0.00     0.003 A 
HETATM   18  C   UNK N   1      30.721  18.313   9.063  0.00  0.00     0.039 A 
BRANCH  14  19
HETATM   19  O   UNK N   1      30.306  16.503   5.887  0.00  0.00    -0.353 OA
HETATM   20  C   UNK N   1      29.832  15.239   5.613  0.00  0.00     0.210 C 
ENDBRANCH  14  19
ENDBRANCH  12  13
ENDBRANCH  11  12
ENDBRANCH   8  11
ENDBRANCH   7   8
ENDBRANCH   1   7
BRANCH   2  21
HETATM   21  C   UNK N   1      36.035  13.920  13.112  0.00  0.00     0.375 C 
BRANCH  21  22
HETATM   22  C   UNK N   1      35.544  13.131  14.283  0.00  0.00     0.250 C 
HETATM   23  O   UNK N   1      34.404  12.688  14.269  0.00  0.00    -0.271 OA
HETATM   24  N   UNK N   1      36.399  12.832  15.294  0.00  0.00    -0.325 N 
HETATM   25  H   UNK N   1      37.333  13.127  15.196  0.00  0.00     0.169 HD
BRANCH  24  26
HETATM   26  C   UNK N   1      36.057  12.126  16.485  0.00  0.00     0.046 A 
HETATM   27  C   UNK N   1      35.514  12.772  17.631  0.00  0.00    -0.035 A 
HETATM   28  C   UNK N   1      35.205  12.022  18.769  0.00  0.00     0.009 A 
HETATM   29  C   UNK N   1      35.312  14.248  17.702  0.00  0.00     0.050 C 
HETATM   30  C   UNK N   1      35.423  10.646  18.794  0.00  0.00     0.001 A 
HETATM   31  C   UNK N   1      35.978  10.008  17.685  0.00  0.00     0.009 A 
HETATM   32  C   UNK N   1      36.300  10.739  16.539  0.00  0.00    -0.035 A 
HETATM   33  C   UNK N   1      36.891  10.021  15.373  0.00  0.00     0.050 C 
ENDBRANCH  24  26
ENDBRANCH  21  22
ENDBRANCH   2  21
TORSDOF 10
ENDMDL
MODEL 5
REMARK VINA RESULT:      -7.3      2.554     10.857
REMARK  10 active torsions:
REMARK  status: ('A' for Active; 'I' for Inactive)
REMARK    1  A    between atoms: O_1  and  C_14 
REMARK    2  A    between atoms: O_2  and  C_15 
REMARK    3  A    between atoms: O_2  and  C_18 
REMARK    4  A    between atoms: O_4  and  C_23 
REMARK    5  A    between atoms: N_5  and  C_12 
REMARK    6  A    between atoms: N_6  and  C_13 
REMARK       I    between atoms: N_7  and  C_16 
REMARK    7  A    between atoms: N_7  and  C_17 
REMARK    8  A    between atoms: C_12  and  C_14 
REMARK    9  A    between atoms: C_13  and  C_16 
REMARK   10  A    between atoms: C_14  and  C_15 
ROOT
HETATM    1  N   UNK N   1      36.091  14.360  11.159  0.00  0.00     0.094 N 
HETATM    2  N   UNK N   1      34.127  16.161   9.990  0.00  0.00     0.100 N 
HETATM    3  C   UNK N   1      36.497  15.671  10.650  0.00  0.00     0.302 C 
HETATM    4  C   UNK N   1      34.984  13.862  10.334  0.00  0.00     0.302 C 
HETATM    5  C   UNK N   1      35.329  16.672  10.676  0.00  0.00     0.303 C 
HETATM    6  C   UNK N   1      33.777  14.801  10.396  0.00  0.00     0.303 C 
ENDROOT
BRANCH   1   7
HETATM    7  C   UNK N   1      35.763  14.491  12.589  0.00  0.00     0.306 C 
BRANCH   7   8
HETATM    8  C   UNK N   1      36.254  13.350  13.486  0.00  0.00     0.170 C 
BRANCH   8   9
HETATM    9  O   UNK N   1      37.425  12.780  12.984  0.00  0.00    -0.392 OA
HETATM   10  H   UNK N   1      37.414  12.004  12.400  0.00  0.00     0.210 HD
ENDBRANCH   8   9
BRANCH   8  11
HETATM   11  C   UNK N   1      36.444  13.769  14.935  0.00  0.00     0.209 C 
BRANCH  11  12
HETATM   12  O   UNK N   1      35.327  13.426  15.661  0.00  0.00    -0.346 OA
BRANCH  12  13
HETATM   13  C   UNK N   1      35.345  12.802  16.870  0.00  0.00     0.102 A 
HETATM   14  C   UNK N   1      35.286  13.499  18.110  0.00  0.00     0.101 A 
HETATM   15  C   UNK N   1      35.310  12.766  19.310  0.00  0.00     0.039 A 
HETATM   16  C   UNK N   1      35.391  11.375  19.292  0.00  0.00     0.003 A 
HETATM   17  C   UNK N   1      35.450  10.694  18.077  0.00  0.00     0.003 A 
HETATM   18  C   UNK N   1      35.428  11.405  16.877  0.00  0.00     0.039 A 
BRANCH  14  19
HETATM   19  O   UNK N   1      35.212  14.854  18.137  0.00  0.00    -0.353 OA
HETATM   20  C   UNK N   1      36.311  15.683  18.084  0.00  0.00     0.210 C 
ENDBRANCH  14  19
ENDBRANCH  12  13
ENDBRANCH  11  12
ENDBRANCH   8  11
ENDBRANCH   7   8
ENDBRANCH   1   7
BRANCH   2  21
HETATM   21  C   UNK N   1      34.085  16.260   8.521  0.00  0.00     0.375 C 
BRANCH  21  22
HETATM   22  C   UNK N   1      32.970  17.089   7.970  0.00  0.00     0.250 C 
HETATM   23  O   UNK N   1      33.154  18.282   7.773  0.00  0.00    -0.271 OA
HETATM   24  N   UNK N   1      31.810  16.489   7.601  0.00  0.00    -0.325 N 
HETATM   25  H   UNK N   1      31.762  15.509   7.685  0.00  0.00     0.169 HD
BRANCH  24  26
HETATM   26  C   UNK N   1      30.654  17.160   7.100  0.00  0.00     0.046 A 
HETATM   27  C   UNK N   1      29.682  17.754   7.953  0.00  0.00    -0.035 A 
HETATM   28  C   UNK N   1      28.570  18.393   7.399  0.00  0.00     0.009 A 
HETATM   29  C   UNK N   1      29.761  17.675   9.440  0.00  0.00     0.050 C 
HETATM   30  C   UNK N   1      28.402  18.453   6.017  0.00  0.00     0.001 A 
HETATM   31  C   UNK N   1      29.335  17.852   5.174  0.00  0.00     0.009 A 
HETATM   32  C   UNK N   1      30.452  17.204   5.707  0.00  0.00    -0.035 A 
HETATM   33  C   UNK N   1      31.429  16.573   4.772  0.00  0.00     0.050 C 
ENDBRANCH  24  26
ENDBRANCH  21  22
ENDBRANCH   2  21
TORSDOF 10
ENDMDL
MODEL 6
REMARK VINA RESULT:      -7.2      1.011      2.020
REMARK  10 active torsions:
REMARK  status: ('A' for Active; 'I' for Inactive)
REMARK    1  A    between atoms: O_1  and  C_14 
REMARK    2  A    between atoms: O_2  and  C_15 
REMARK    3  A    between atoms: O_2  and  C_18 
REMARK    4  A    between atoms: O_4  and  C_23 
REMARK    5  A    between atoms: N_5  and  C_12 
REMARK    6  A    between atoms: N_6  and  C_13 
REMARK       I    between atoms: N_7  and  C_16 
REMARK    7  A    between atoms: N_7  and  C_17 
REMARK    8  A    between atoms: C_12  and  C_14 
REMARK    9  A    between atoms: C_13  and  C_16 
REMARK   10  A    between atoms: C_14  and  C_15 
ROOT
HETATM    1  N   UNK N   1      34.445  15.502   9.859  0.00  0.00     0.094 N 
HETATM    2  N   UNK N   1      36.228  14.399  11.877  0.00  0.00     0.100 N 
HETATM    3  C   UNK N   1      35.532  16.312  10.411  0.00  0.00     0.302 C 
HETATM    4  C   UNK N   1      33.956  14.600  10.908  0.00  0.00     0.302 C 
HETATM    5  C   UNK N   1      36.684  15.432  10.927  0.00  0.00     0.303 C 
HETATM    6  C   UNK N   1      35.062  13.660  11.394  0.00  0.00     0.303 C 
ENDROOT
BRANCH   1   7
HETATM    7  C   UNK N   1      34.937  14.812   8.654  0.00  0.00     0.306 C 
BRANCH   7   8
HETATM    8  C   UNK N   1      33.883  14.024   7.868  0.00  0.00     0.170 C 
BRANCH   8   9
HETATM    9  O   UNK N   1      32.645  14.666   7.899  0.00  0.00    -0.392 OA
HETATM   10  H   UNK N   1      32.445  15.376   8.530  0.00  0.00     0.210 HD
ENDBRANCH   8   9
BRANCH   8  11
HETATM   11  C   UNK N   1      34.300  13.736   6.435  0.00  0.00     0.209 C 
BRANCH  11  12
HETATM   12  O   UNK N   1      34.737  14.900   5.844  0.00  0.00    -0.346 OA
BRANCH  12  13
HETATM   13  C   UNK N   1      33.977  15.704   5.052  0.00  0.00     0.102 A 
HETATM   14  C   UNK N   1      33.764  17.087   5.318  0.00  0.00     0.101 A 
HETATM   15  C   UNK N   1      32.962  17.838   4.439  0.00  0.00     0.039 A 
HETATM   16  C   UNK N   1      32.380  17.241   3.322  0.00  0.00     0.003 A 
HETATM   17  C   UNK N   1      32.588  15.887   3.065  0.00  0.00     0.003 A 
HETATM   18  C   UNK N   1      33.380  15.126   3.925  0.00  0.00     0.039 A 
BRANCH  14  19
HETATM   19  O   UNK N   1      34.323  17.674   6.405  0.00  0.00    -0.353 OA
HETATM   20  C   UNK N   1      33.616  18.030   7.533  0.00  0.00     0.210 C 
ENDBRANCH  14  19
ENDBRANCH  12  13
ENDBRANCH  11  12
ENDBRANCH   8  11
ENDBRANCH   7   8
ENDBRANCH   1   7
BRANCH   2  21
HETATM   21  C   UNK N   1      36.007  14.804  13.274  0.00  0.00     0.375 C 
BRANCH  21  22
HETATM   22  C   UNK N   1      36.124  13.707  14.283  0.00  0.00     0.250 C 
HETATM   23  O   UNK N   1      37.231  13.268  14.561  0.00  0.00    -0.271 OA
HETATM   24  N   UNK N   1      35.017  13.289  14.948  0.00  0.00    -0.325 N 
HETATM   25  H   UNK N   1      34.172  13.756  14.755  0.00  0.00     0.169 HD
BRANCH  24  26
HETATM   26  C   UNK N   1      34.976  12.229  15.902  0.00  0.00     0.046 A 
HETATM   27  C   UNK N   1      35.184  12.441  17.294  0.00  0.00    -0.035 A 
HETATM   28  C   UNK N   1      35.135  11.359  18.176  0.00  0.00     0.009 A 
HETATM   29  C   UNK N   1      35.519  13.779  17.862  0.00  0.00     0.050 C 
HETATM   30  C   UNK N   1      34.885  10.071  17.706  0.00  0.00     0.001 A 
HETATM   31  C   UNK N   1      34.705   9.849  16.341  0.00  0.00     0.009 A 
HETATM   32  C   UNK N   1      34.756  10.916  15.441  0.00  0.00    -0.035 A 
HETATM   33  C   UNK N   1      34.558  10.639  13.989  0.00  0.00     0.050 C 
ENDBRANCH  24  26
ENDBRANCH  21  22
ENDBRANCH   2  21
TORSDOF 10
ENDMDL
MODEL 7
REMARK VINA RESULT:      -7.2      1.985      3.193
REMARK  10 active torsions:
REMARK  status: ('A' for Active; 'I' for Inactive)
REMARK    1  A    between atoms: O_1  and  C_14 
REMARK    2  A    between atoms: O_2  and  C_15 
REMARK    3  A    between atoms: O_2  and  C_18 
REMARK    4  A    between atoms: O_4  and  C_23 
REMARK    5  A    between atoms: N_5  and  C_12 
REMARK    6  A    between atoms: N_6  and  C_13 
REMARK       I    between atoms: N_7  and  C_16 
REMARK    7  A    between atoms: N_7  and  C_17 
REMARK    8  A    between atoms: C_12  and  C_14 
REMARK    9  A    between atoms: C_13  and  C_16 
REMARK   10  A    between atoms: C_14  and  C_15 
ROOT
HETATM    1  N   UNK N   1      36.384  13.642  11.284  0.00  0.00     0.094 N 
HETATM    2  N   UNK N   1      34.744  11.700  12.702  0.00  0.00     0.100 N 
HETATM    3  C   UNK N   1      36.221  12.285  10.760  0.00  0.00     0.302 C 
HETATM    4  C   UNK N   1      36.356  13.582  12.750  0.00  0.00     0.302 C 
HETATM    5  C   UNK N   1      34.902  11.652  11.235  0.00  0.00     0.303 C 
HETATM    6  C   UNK N   1      35.025  13.022  13.259  0.00  0.00     0.303 C 
ENDROOT
BRANCH   1   7
HETATM    7  C   UNK N   1      35.341  14.502  10.697  0.00  0.00     0.306 C 
BRANCH   7   8
HETATM    8  C   UNK N   1      35.602  16.009  10.784  0.00  0.00     0.170 C 
BRANCH   8   9
HETATM    9  O   UNK N   1      36.970  16.285  10.801  0.00  0.00    -0.392 OA
HETATM   10  H   UNK N   1      37.581  15.839  11.410  0.00  0.00     0.210 HD
ENDBRANCH   8   9
BRANCH   8  11
HETATM   11  C   UNK N   1      34.914  16.799   9.683  0.00  0.00     0.209 C 
BRANCH  11  12
HETATM   12  O   UNK N   1      34.105  15.957   8.954  0.00  0.00    -0.346 OA
BRANCH  12  13
HETATM   13  C   UNK N   1      33.294  16.347   7.934  0.00  0.00     0.102 A 
HETATM   14  C   UNK N   1      33.742  16.490   6.590  0.00  0.00     0.101 A 
HETATM   15  C   UNK N   1      32.828  16.898   5.602  0.00  0.00     0.039 A 
HETATM   16  C   UNK N   1      31.499  17.162   5.929  0.00  0.00     0.003 A 
HETATM   17  C   UNK N   1      31.063  17.023   7.245  0.00  0.00     0.003 A 
HETATM   18  C   UNK N   1      31.955  16.619   8.238  0.00  0.00     0.039 A 
BRANCH  14  19
HETATM   19  O   UNK N   1      35.036  16.239   6.264  0.00  0.00    -0.353 OA
HETATM   20  C   UNK N   1      35.517  14.989   5.946  0.00  0.00     0.210 C 
ENDBRANCH  14  19
ENDBRANCH  12  13
ENDBRANCH  11  12
ENDBRANCH   8  11
ENDBRANCH   7   8
ENDBRANCH   1   7
BRANCH   2  21
HETATM   21  C   UNK N   1      35.440  10.676  13.498  0.00  0.00     0.375 C 
BRANCH  21  22
HETATM   22  C   UNK N   1      35.127  10.683  14.960  0.00  0.00     0.250 C 
HETATM   23  O   UNK N   1      34.033  10.290  15.338  0.00  0.00    -0.271 OA
HETATM   24  N   UNK N   1      36.094  11.026  15.849  0.00  0.00    -0.325 N 
HETATM   25  H   UNK N   1      36.987  11.230  15.487  0.00  0.00     0.169 HD
BRANCH  24  26
HETATM   26  C   UNK N   1      35.924  11.115  17.262  0.00  0.00     0.046 A 
HETATM   27  C   UNK N   1      35.360  12.257  17.897  0.00  0.00    -0.035 A 
HETATM   28  C   UNK N   1      35.225  12.282  19.287  0.00  0.00     0.009 A 
HETATM   29  C   UNK N   1      34.952  13.477  17.142  0.00  0.00     0.050 C 
HETATM   30  C   UNK N   1      35.639  11.200  20.061  0.00  0.00     0.001 A 
HETATM   31  C   UNK N   1      36.218  10.087  19.451  0.00  0.00     0.009 A 
HETATM   32  C   UNK N   1      36.366  10.043  18.063  0.00  0.00    -0.035 A 
HETATM   33  C   UNK N   1      36.989   8.835  17.446  0.00  0.00     0.050 C 
ENDBRANCH  24  26
ENDBRANCH  21  22
ENDBRANCH   2  21
TORSDOF 10
ENDMDL
MODEL 8
REMARK VINA RESULT:      -7.2      3.452     10.422
REMARK  10 active torsions:
REMARK  status: ('A' for Active; 'I' for Inactive)
REMARK    1  A    between atoms: O_1  and  C_14 
REMARK    2  A    between atoms: O_2  and  C_15 
REMARK    3  A    between atoms: O_2  and  C_18 
REMARK    4  A    between atoms: O_4  and  C_23 
REMARK    5  A    between atoms: N_5  and  C_12 
REMARK    6  A    between atoms: N_6  and  C_13 
REMARK       I    between atoms: N_7  and  C_16 
REMARK    7  A    between atoms: N_7  and  C_17 
REMARK    8  A    between atoms: C_12  and  C_14 
REMARK    9  A    between atoms: C_13  and  C_16 
REMARK   10  A    between atoms: C_14  and  C_15 
ROOT
HETATM    1  N   UNK N   1      34.883  15.493   9.030  0.00  0.00     0.094 N 
HETATM    2  N   UNK N   1      32.207  14.890   8.056  0.00  0.00     0.100 N 
HETATM    3  C   UNK N   1      33.906  16.566   8.829  0.00  0.00     0.302 C 
HETATM    4  C   UNK N   1      34.647  14.454   8.021  0.00  0.00     0.302 C 
HETATM    5  C   UNK N   1      32.463  16.042   8.941  0.00  0.00     0.303 C 
HETATM    6  C   UNK N   1      33.241  13.860   8.151  0.00  0.00     0.303 C 
ENDROOT
BRANCH   1   7
HETATM    7  C   UNK N   1      34.780  15.017  10.420  0.00  0.00     0.306 C 
BRANCH   7   8
HETATM    8  C   UNK N   1      36.095  14.989  11.206  0.00  0.00     0.170 C 
BRANCH   8   9
HETATM    9  O   UNK N   1      36.888  16.097  10.905  0.00  0.00    -0.392 OA
HETATM   10  H   UNK N   1      37.286  16.652  11.595  0.00  0.00     0.210 HD
ENDBRANCH   8   9
BRANCH   8  11
HETATM   11  C   UNK N   1      35.890  14.872  12.708  0.00  0.00     0.209 C 
BRANCH  11  12
HETATM   12  O   UNK N   1      36.313  13.633  13.132  0.00  0.00    -0.346 OA
BRANCH  12  13
HETATM   13  C   UNK N   1      35.507  12.548  13.288  0.00  0.00     0.102 A 
HETATM   14  C   UNK N   1      34.677  12.348  14.428  0.00  0.00     0.101 A 
HETATM   15  C   UNK N   1      33.877  11.194  14.499  0.00  0.00     0.039 A 
HETATM   16  C   UNK N   1      33.893  10.253  13.470  0.00  0.00     0.003 A 
HETATM   17  C   UNK N   1      34.708  10.449  12.357  0.00  0.00     0.003 A 
HETATM   18  C   UNK N   1      35.508  11.588  12.269  0.00  0.00     0.039 A 
BRANCH  14  19
HETATM   19  O   UNK N   1      34.658  13.257  15.435  0.00  0.00    -0.353 OA
HETATM   20  C   UNK N   1      35.439  13.162  16.566  0.00  0.00     0.210 C 
ENDBRANCH  14  19
ENDBRANCH  12  13
ENDBRANCH  11  12
ENDBRANCH   8  11
ENDBRANCH   7   8
ENDBRANCH   1   7
BRANCH   2  21
HETATM   21  C   UNK N   1      31.922  15.167   6.638  0.00  0.00     0.375 C 
BRANCH  21  22
HETATM   22  C   UNK N   1      31.201  16.449   6.372  0.00  0.00     0.250 C 
HETATM   23  O   UNK N   1      31.836  17.421   5.985  0.00  0.00    -0.271 OA
HETATM   24  N   UNK N   1      29.848  16.487   6.463  0.00  0.00    -0.325 N 
HETATM   25  H   UNK N   1      29.386  15.644   6.675  0.00  0.00     0.169 HD
BRANCH  24  26
HETATM   26  C   UNK N   1      29.038  17.647   6.277  0.00  0.00     0.046 A 
HETATM   27  C   UNK N   1      28.689  18.519   7.346  0.00  0.00    -0.035 A 
HETATM   28  C   UNK N   1      27.889  19.637   7.096  0.00  0.00     0.009 A 
HETATM   29  C   UNK N   1      29.092  18.261   8.759  0.00  0.00     0.050 C 
HETATM   30  C   UNK N   1      27.427  19.907   5.810  0.00  0.00     0.001 A 
HETATM   31  C   UNK N   1      27.743  19.045   4.760  0.00  0.00     0.009 A 
HETATM   32  C   UNK N   1      28.537  17.919   4.988  0.00  0.00    -0.035 A 
HETATM   33  C   UNK N   1      28.854  17.020   3.840  0.00  0.00     0.050 C 
ENDBRANCH  24  26
ENDBRANCH  21  22
ENDBRANCH   2  21
TORSDOF 10
ENDMDL
MODEL 9
REMARK VINA RESULT:      -7.1      2.608      3.782
REMARK  10 active torsions:
REMARK  status: ('A' for Active; 'I' for Inactive)
REMARK    1  A    between atoms: O_1  and  C_14 
REMARK    2  A    between atoms: O_2  and  C_15 
REMARK    3  A    between atoms: O_2  and  C_18 
REMARK    4  A    between atoms: O_4  and  C_23 
REMARK    5  A    between atoms: N_5  and  C_12 
REMARK    6  A    between atoms: N_6  and  C_13 
REMARK       I    between atoms: N_7  and  C_16 
REMARK    7  A    between atoms: N_7  and  C_17 
REMARK    8  A    between atoms: C_12  and  C_14 
REMARK    9  A    between atoms: C_13  and  C_16 
REMARK   10  A    between atoms: C_14  and  C_15 
ROOT
HETATM    1  N   UNK N   1      34.975  16.386   8.988  0.00  0.00     0.094 N 
HETATM    2  N   UNK N   1      34.974  13.997  10.651  0.00  0.00     0.100 N 
HETATM    3  C   UNK N   1      35.205  15.068   8.394  0.00  0.00     0.302 C 
HETATM    4  C   UNK N   1      35.538  16.391  10.343  0.00  0.00     0.302 C 
HETATM    5  C   UNK N   1      34.563  13.951   9.235  0.00  0.00     0.303 C 
HETATM    6  C   UNK N   1      34.869  15.336  11.229  0.00  0.00     0.303 C 
ENDROOT
BRANCH   1   7
HETATM    7  C   UNK N   1      33.533  16.681   8.935  0.00  0.00     0.306 C 
BRANCH   7   8
HETATM    8  C   UNK N   1      33.124  17.804   7.974  0.00  0.00     0.170 C 
BRANCH   8   9
HETATM    9  O   UNK N   1      34.149  18.739   7.826  0.00  0.00    -0.392 OA
HETATM   10  H   UNK N   1      33.984  19.642   7.508  0.00  0.00     0.210 HD
ENDBRANCH   8   9
BRANCH   8  11
HETATM   11  C   UNK N   1      32.670  17.292   6.618  0.00  0.00     0.209 C 
BRANCH  11  12
HETATM   12  O   UNK N   1      31.437  16.692   6.745  0.00  0.00    -0.346 OA
BRANCH  12  13
HETATM   13  C   UNK N   1      30.247  17.296   6.477  0.00  0.00     0.102 A 
HETATM   14  C   UNK N   1      29.339  17.715   7.490  0.00  0.00     0.101 A 
HETATM   15  C   UNK N   1      28.132  18.332   7.115  0.00  0.00     0.039 A 
HETATM   16  C   UNK N   1      27.823  18.532   5.771  0.00  0.00     0.003 A 
HETATM   17  C   UNK N   1      28.713  18.119   4.781  0.00  0.00     0.003 A 
HETATM   18  C   UNK N   1      29.915  17.505   5.134  0.00  0.00     0.039 A 
BRANCH  14  19
HETATM   19  O   UNK N   1      29.629  17.521   8.801  0.00  0.00    -0.353 OA
HETATM   20  C   UNK N   1      29.635  18.526   9.742  0.00  0.00     0.210 C 
ENDBRANCH  14  19
ENDBRANCH  12  13
ENDBRANCH  11  12
ENDBRANCH   8  11
ENDBRANCH   7   8
ENDBRANCH   1   7
BRANCH   2  21
HETATM   21  C   UNK N   1      36.279  13.414  11.003  0.00  0.00     0.375 C 
BRANCH  21  22
HETATM   22  C   UNK N   1      36.319  12.679  12.304  0.00  0.00     0.250 C 
HETATM   23  O   UNK N   1      37.316  12.034  12.595  0.00  0.00    -0.271 OA
HETATM   24  N   UNK N   1      35.296  12.822  13.185  0.00  0.00    -0.325 N 
HETATM   25  H   UNK N   1      34.571  13.441  12.937  0.00  0.00     0.169 HD
BRANCH  24  26
HETATM   26  C   UNK N   1      35.184  12.152  14.439  0.00  0.00     0.046 A 
HETATM   27  C   UNK N   1      35.766  12.660  15.635  0.00  0.00    -0.035 A 
HETATM   28  C   UNK N   1      35.623  11.952  16.831  0.00  0.00     0.009 A 
HETATM   29  C   UNK N   1      36.590  13.903  15.663  0.00  0.00     0.050 C 
HETATM   30  C   UNK N   1      34.916  10.752  16.866  0.00  0.00     0.001 A 
HETATM   31  C   UNK N   1      34.364  10.234  15.694  0.00  0.00     0.009 A 
HETATM   32  C   UNK N   1      34.499  10.922  14.487  0.00  0.00    -0.035 A 
HETATM   33  C   UNK N   1      33.894  10.336  13.256  0.00  0.00     0.050 C 
ENDBRANCH  24  26
ENDBRANCH  21  22
ENDBRANCH   2  21
TORSDOF 10
ENDMDL
