MODEL 1
REMARK VINA RESULT:      -5.2      0.000      0.000
REMARK  4 active torsions:
REMARK  status: ('A' for Active; 'I' for Inactive)
REMARK    1  A    between atoms: O_1  and  C_8 
REMARK    2  A    between atoms: O_2  and  C_11 
REMARK    3  A    between atoms: N_4  and  C_6 
REMARK    4  A    between atoms: C_5  and  C_11 
ROOT
HETATM    1  C   UNK N   1      20.957  19.843   2.148  0.00  0.00     0.072 A 
HETATM    2  C   UNK N   1      20.196  17.911   3.413  0.00  0.00     0.026 A 
HETATM    3  C   UNK N   1      20.033  18.810   2.358  0.00  0.00     0.050 A 
HETATM    4  C   UNK N   1      22.063  19.963   3.024  0.00  0.00     0.082 A 
HETATM    5  C   UNK N   1      21.288  18.034   4.273  0.00  0.00     0.032 A 
HETATM    6  C   UNK N   1      22.217  19.057   4.078  0.00  0.00     0.040 A 
ENDROOT
BRANCH   1   7
HETATM    7  C   UNK N   1      20.740  20.774   1.012  0.00  0.00     0.179 C 
HETATM    8  O   UNK N   1      20.733  21.982   1.183  0.00  0.00    -0.646 OA
BRANCH   7   9
HETATM    9  O   UNK N   1      20.547  20.284  -0.229  0.00  0.00    -0.773 OA
HETATM   10  H   UNK N   1      20.562  19.359  -0.376  0.00  0.00     0.167 HD
ENDBRANCH   7   9
ENDBRANCH   1   7
BRANCH   4  11
HETATM   11  O   UNK N   1      22.975  20.937   2.863  0.00  0.00    -0.360 OA
HETATM   12  H   UNK N   1      23.208  21.224   2.002  0.00  0.00     0.217 HD
ENDBRANCH   4  11
BRANCH   2  13
HETATM   13  N   UNK N   1      19.258  16.878   3.609  0.00  0.00    -0.399 N 
HETATM   14  H   UNK N   1      19.330  16.291   4.396  0.00  0.00     0.156 HD
HETATM   15  H   UNK N   1      18.530  16.745   2.960  0.00  0.00     0.156 HD
ENDBRANCH   2  13
TORSDOF 4
ENDMDL
MODEL 2
REMARK VINA RESULT:      -5.0     14.203     15.160
REMARK  4 active torsions:
REMARK  status: ('A' for Active; 'I' for Inactive)
REMARK    1  A    between atoms: O_1  and  C_8 
REMARK    2  A    between atoms: O_2  and  C_11 
REMARK    3  A    between atoms: N_4  and  C_6 
REMARK    4  A    between atoms: C_5  and  C_11 
ROOT
HETATM    1  C   UNK N   1      34.358  16.907   8.881  0.00  0.00     0.072 A 
HETATM    2  C   UNK N   1      33.228  14.812   9.377  0.00  0.00     0.026 A 
HETATM    3  C   UNK N   1      33.434  15.909   8.540  0.00  0.00     0.050 A 
HETATM    4  C   UNK N   1      35.083  16.786  10.091  0.00  0.00     0.082 A 
HETATM    5  C   UNK N   1      33.945  14.698  10.568  0.00  0.00     0.032 A 
HETATM    6  C   UNK N   1      34.869  15.682  10.923  0.00  0.00     0.040 A 
ENDROOT
BRANCH   1   7
HETATM    7  C   UNK N   1      34.541  18.055   7.957  0.00  0.00     0.179 C 
HETATM    8  O   UNK N   1      34.921  19.139   8.370  0.00  0.00    -0.646 OA
BRANCH   7   9
HETATM    9  O   UNK N   1      34.287  17.905   6.642  0.00  0.00    -0.773 OA
HETATM   10  H   UNK N   1      34.697  17.213   6.161  0.00  0.00     0.167 HD
ENDBRANCH   7   9
ENDBRANCH   1   7
BRANCH   4  11
HETATM   11  O   UNK N   1      35.979  17.717  10.460  0.00  0.00    -0.360 OA
HETATM   12  H   UNK N   1      35.937  18.579  10.097  0.00  0.00     0.217 HD
ENDBRANCH   4  11
BRANCH   2  13
HETATM   13  N   UNK N   1      32.295  13.819   9.018  0.00  0.00    -0.399 N 
HETATM   14  H   UNK N   1      31.895  13.247   9.712  0.00  0.00     0.156 HD
HETATM   15  H   UNK N   1      32.045  13.697   8.074  0.00  0.00     0.156 HD
ENDBRANCH   2  13
TORSDOF 4
ENDMDL
MODEL 3
REMARK VINA RESULT:      -5.0     10.286     11.448
REMARK  4 active torsions:
REMARK  status: ('A' for Active; 'I' for Inactive)
REMARK    1  A    between atoms: O_1  and  C_8 
REMARK    2  A    between atoms: O_2  and  C_11 
REMARK    3  A    between atoms: N_4  and  C_6 
REMARK    4  A    between atoms: C_5  and  C_11 
ROOT
HETATM    1  C   UNK N   1      26.400  25.472  -4.145  0.00  0.00     0.072 A 
HETATM    2  C   UNK N   1      25.840  27.831  -3.946  0.00  0.00     0.026 A 
HETATM    3  C   UNK N   1      26.517  26.702  -3.481  0.00  0.00     0.050 A 
HETATM    4  C   UNK N   1      25.584  25.391  -5.298  0.00  0.00     0.082 A 
HETATM    5  C   UNK N   1      25.037  27.744  -5.084  0.00  0.00     0.032 A 
HETATM    6  C   UNK N   1      24.910  26.527  -5.756  0.00  0.00     0.040 A 
ENDROOT
BRANCH   1   7
HETATM    7  C   UNK N   1      27.140  24.301  -3.611  0.00  0.00     0.179 C 
HETATM    8  O   UNK N   1      26.933  23.890  -2.480  0.00  0.00    -0.646 OA
BRANCH   7   9
HETATM    9  O   UNK N   1      28.056  23.678  -4.380  0.00  0.00    -0.773 OA
HETATM   10  H   UNK N   1      27.812  23.340  -5.218  0.00  0.00     0.167 HD
ENDBRANCH   7   9
ENDBRANCH   1   7
BRANCH   4  11
HETATM   11  O   UNK N   1      25.441  24.234  -5.968  0.00  0.00    -0.360 OA
HETATM   12  H   UNK N   1      24.675  24.083  -6.485  0.00  0.00     0.217 HD
ENDBRANCH   4  11
BRANCH   2  13
HETATM   13  N   UNK N   1      25.969  29.058  -3.267  0.00  0.00    -0.399 N 
HETATM   14  H   UNK N   1      26.749  29.221  -2.690  0.00  0.00     0.156 HD
HETATM   15  H   UNK N   1      25.279  29.753  -3.370  0.00  0.00     0.156 HD
ENDBRANCH   2  13
TORSDOF 4
ENDMDL
MODEL 4
REMARK VINA RESULT:      -4.9     11.910     13.420
REMARK  4 active torsions:
REMARK  status: ('A' for Active; 'I' for Inactive)
REMARK    1  A    between atoms: O_1  and  C_8 
REMARK    2  A    between atoms: O_2  and  C_11 
REMARK    3  A    between atoms: N_4  and  C_6 
REMARK    4  A    between atoms: C_5  and  C_11 
ROOT
HETATM    1  C   UNK N   1      33.233  17.730   7.521  0.00  0.00     0.072 A 
HETATM    2  C   UNK N   1      32.637  17.243   5.214  0.00  0.00     0.026 A 
HETATM    3  C   UNK N   1      33.590  17.595   6.171  0.00  0.00     0.050 A 
HETATM    4  C   UNK N   1      31.888  17.505   7.900  0.00  0.00     0.082 A 
HETATM    5  C   UNK N   1      31.313  17.022   5.594  0.00  0.00     0.032 A 
HETATM    6  C   UNK N   1      30.941  17.153   6.933  0.00  0.00     0.040 A 
ENDROOT
BRANCH   1   7
HETATM    7  C   UNK N   1      34.283  18.106   8.501  0.00  0.00     0.179 C 
HETATM    8  O   UNK N   1      35.030  19.048   8.291  0.00  0.00    -0.646 OA
BRANCH   7   9
HETATM    9  O   UNK N   1      34.419  17.400   9.642  0.00  0.00    -0.773 OA
HETATM   10  H   UNK N   1      33.667  17.019  10.050  0.00  0.00     0.167 HD
ENDBRANCH   7   9
ENDBRANCH   1   7
BRANCH   4  11
HETATM   11  O   UNK N   1      31.499  17.622   9.181  0.00  0.00    -0.360 OA
HETATM   12  H   UNK N   1      31.850  17.049   9.833  0.00  0.00     0.217 HD
ENDBRANCH   4  11
BRANCH   2  13
HETATM   13  N   UNK N   1      33.013  17.112   3.862  0.00  0.00    -0.399 N 
HETATM   14  H   UNK N   1      33.649  16.410   3.595  0.00  0.00     0.156 HD
HETATM   15  H   UNK N   1      32.641  17.722   3.186  0.00  0.00     0.156 HD
ENDBRANCH   2  13
TORSDOF 4
ENDMDL
MODEL 5
REMARK VINA RESULT:      -4.9     11.772     13.196
REMARK  4 active torsions:
REMARK  status: ('A' for Active; 'I' for Inactive)
REMARK    1  A    between atoms: O_1  and  C_8 
REMARK    2  A    between atoms: O_2  and  C_11 
REMARK    3  A    between atoms: N_4  and  C_6 
REMARK    4  A    between atoms: C_5  and  C_11 
ROOT
HETATM    1  C   UNK N   1      33.066  17.764   7.819  0.00  0.00     0.072 A 
HETATM    2  C   UNK N   1      30.665  17.391   7.720  0.00  0.00     0.026 A 
HETATM    3  C   UNK N   1      31.813  17.712   8.447  0.00  0.00     0.050 A 
HETATM    4  C   UNK N   1      33.152  17.484   6.434  0.00  0.00     0.082 A 
HETATM    5  C   UNK N   1      30.756  17.117   6.355  0.00  0.00     0.032 A 
HETATM    6  C   UNK N   1      31.995  17.164   5.716  0.00  0.00     0.040 A 
ENDROOT
BRANCH   1   7
HETATM    7  C   UNK N   1      34.257  18.110   8.635  0.00  0.00     0.179 C 
HETATM    8  O   UNK N   1      34.997  19.025   8.309  0.00  0.00    -0.646 OA
BRANCH   7   9
HETATM    9  O   UNK N   1      34.532  17.408   9.753  0.00  0.00    -0.773 OA
HETATM   10  H   UNK N   1      35.413  17.351  10.065  0.00  0.00     0.167 HD
ENDBRANCH   7   9
ENDBRANCH   1   7
BRANCH   4  11
HETATM   11  O   UNK N   1      34.330  17.521   5.789  0.00  0.00    -0.360 OA
HETATM   12  H   UNK N   1      34.492  18.182   5.146  0.00  0.00     0.217 HD
ENDBRANCH   4  11
BRANCH   2  13
HETATM   13  N   UNK N   1      29.414  17.344   8.367  0.00  0.00    -0.399 N 
HETATM   14  H   UNK N   1      28.827  18.134   8.360  0.00  0.00     0.156 HD
HETATM   15  H   UNK N   1      29.127  16.521   8.825  0.00  0.00     0.156 HD
ENDBRANCH   2  13
TORSDOF 4
ENDMDL
MODEL 6
REMARK VINA RESULT:      -4.8      1.499      2.484
REMARK  4 active torsions:
REMARK  status: ('A' for Active; 'I' for Inactive)
REMARK    1  A    between atoms: O_1  and  C_8 
REMARK    2  A    between atoms: O_2  and  C_11 
REMARK    3  A    between atoms: N_4  and  C_6 
REMARK    4  A    between atoms: C_5  and  C_11 
ROOT
HETATM    1  C   UNK N   1      20.688  18.976   1.850  0.00  0.00     0.072 A 
HETATM    2  C   UNK N   1      20.596  17.593   3.849  0.00  0.00     0.026 A 
HETATM    3  C   UNK N   1      20.791  18.835   3.242  0.00  0.00     0.050 A 
HETATM    4  C   UNK N   1      20.382  17.837   1.066  0.00  0.00     0.082 A 
HETATM    5  C   UNK N   1      20.295  16.475   3.071  0.00  0.00     0.032 A 
HETATM    6  C   UNK N   1      20.189  16.598   1.684  0.00  0.00     0.040 A 
ENDROOT
BRANCH   1   7
HETATM    7  C   UNK N   1      20.903  20.317   1.252  0.00  0.00     0.179 C 
HETATM    8  O   UNK N   1      21.376  21.230   1.910  0.00  0.00    -0.646 OA
BRANCH   7   9
HETATM    9  O   UNK N   1      20.575  20.538  -0.037  0.00  0.00    -0.773 OA
HETATM   10  H   UNK N   1      20.962  20.020  -0.715  0.00  0.00     0.167 HD
ENDBRANCH   7   9
ENDBRANCH   1   7
BRANCH   4  11
HETATM   11  O   UNK N   1      20.273  17.923  -0.271  0.00  0.00    -0.360 OA
HETATM   12  H   UNK N   1      20.033  18.735  -0.670  0.00  0.00     0.217 HD
ENDBRANCH   4  11
BRANCH   2  13
HETATM   13  N   UNK N   1      20.703  17.470   5.248  0.00  0.00    -0.399 N 
HETATM   14  H   UNK N   1      21.590  17.404   5.669  0.00  0.00     0.156 HD
HETATM   15  H   UNK N   1      19.892  17.450   5.804  0.00  0.00     0.156 HD
ENDBRANCH   2  13
TORSDOF 4
ENDMDL
MODEL 7
REMARK VINA RESULT:      -4.7      7.686      9.135
REMARK  4 active torsions:
REMARK  status: ('A' for Active; 'I' for Inactive)
REMARK    1  A    between atoms: O_1  and  C_8 
REMARK    2  A    between atoms: O_2  and  C_11 
REMARK    3  A    between atoms: N_4  and  C_6 
REMARK    4  A    between atoms: C_5  and  C_11 
ROOT
HETATM    1  C   UNK N   1      28.147  18.923   7.270  0.00  0.00     0.072 A 
HETATM    2  C   UNK N   1      28.624  18.546   4.915  0.00  0.00     0.026 A 
HETATM    3  C   UNK N   1      28.824  18.225   6.259  0.00  0.00     0.050 A 
HETATM    4  C   UNK N   1      27.255  19.961   6.908  0.00  0.00     0.082 A 
HETATM    5  C   UNK N   1      27.743  19.570   4.565  0.00  0.00     0.032 A 
HETATM    6  C   UNK N   1      27.062  20.274   5.559  0.00  0.00     0.040 A 
ENDROOT
BRANCH   1   7
HETATM    7  C   UNK N   1      28.394  18.544   8.684  0.00  0.00     0.179 C 
HETATM    8  O   UNK N   1      29.503  18.657   9.180  0.00  0.00    -0.646 OA
BRANCH   7   9
HETATM    9  O   UNK N   1      27.382  18.068   9.438  0.00  0.00    -0.773 OA
HETATM   10  H   UNK N   1      27.567  17.569  10.208  0.00  0.00     0.167 HD
ENDBRANCH   7   9
ENDBRANCH   1   7
BRANCH   4  11
HETATM   11  O   UNK N   1      26.585  20.657   7.842  0.00  0.00    -0.360 OA
HETATM   12  H   UNK N   1      26.026  20.212   8.448  0.00  0.00     0.217 HD
ENDBRANCH   4  11
BRANCH   2  13
HETATM   13  N   UNK N   1      29.311  17.835   3.912  0.00  0.00    -0.399 N 
HETATM   14  H   UNK N   1      29.520  16.882   4.040  0.00  0.00     0.156 HD
HETATM   15  H   UNK N   1      29.584  18.291   3.084  0.00  0.00     0.156 HD
ENDBRANCH   2  13
TORSDOF 4
ENDMDL
MODEL 8
REMARK VINA RESULT:      -4.6     20.413     21.098
REMARK  4 active torsions:
REMARK  status: ('A' for Active; 'I' for Inactive)
REMARK    1  A    between atoms: O_1  and  C_8 
REMARK    2  A    between atoms: O_2  and  C_11 
REMARK    3  A    between atoms: N_4  and  C_6 
REMARK    4  A    between atoms: C_5  and  C_11 
ROOT
HETATM    1  C   UNK N   1      35.705  13.652  16.549  0.00  0.00     0.072 A 
HETATM    2  C   UNK N   1      34.642  12.084  15.024  0.00  0.00     0.026 A 
HETATM    3  C   UNK N   1      34.709  12.704  16.273  0.00  0.00     0.050 A 
HETATM    4  C   UNK N   1      36.645  13.973  15.541  0.00  0.00     0.082 A 
HETATM    5  C   UNK N   1      35.572  12.405  14.034  0.00  0.00     0.032 A 
HETATM    6  C   UNK N   1      36.569  13.346  14.293  0.00  0.00     0.040 A 
ENDROOT
BRANCH   1   7
HETATM    7  C   UNK N   1      35.734  14.283  17.893  0.00  0.00     0.179 C 
HETATM    8  O   UNK N   1      35.245  13.723  18.861  0.00  0.00    -0.646 OA
BRANCH   7   9
HETATM    9  O   UNK N   1      36.306  15.494  18.053  0.00  0.00    -0.773 OA
HETATM   10  H   UNK N   1      37.121  15.570  18.508  0.00  0.00     0.167 HD
ENDBRANCH   7   9
ENDBRANCH   1   7
BRANCH   4  11
HETATM   11  O   UNK N   1      37.617  14.875  15.759  0.00  0.00    -0.360 OA
HETATM   12  H   UNK N   1      38.514  14.638  15.633  0.00  0.00     0.217 HD
ENDBRANCH   4  11
BRANCH   2  13
HETATM   13  N   UNK N   1      33.635  11.133  14.764  0.00  0.00    -0.399 N 
HETATM   14  H   UNK N   1      33.879  10.227  14.467  0.00  0.00     0.156 HD
HETATM   15  H   UNK N   1      32.688  11.375  14.878  0.00  0.00     0.156 HD
ENDBRANCH   2  13
TORSDOF 4
ENDMDL
MODEL 9
REMARK VINA RESULT:      -4.5     21.871     22.998
REMARK  4 active torsions:
REMARK  status: ('A' for Active; 'I' for Inactive)
REMARK    1  A    between atoms: O_1  and  C_8 
REMARK    2  A    between atoms: O_2  and  C_11 
REMARK    3  A    between atoms: N_4  and  C_6 
REMARK    4  A    between atoms: C_5  and  C_11 
ROOT
HETATM    1  C   UNK N   1      43.707  21.661   3.240  0.00  0.00     0.072 A 
HETATM    2  C   UNK N   1      43.290  19.332   2.676  0.00  0.00     0.026 A 
HETATM    3  C   UNK N   1      42.858  20.657   2.750  0.00  0.00     0.050 A 
HETATM    4  C   UNK N   1      45.012  21.311   3.660  0.00  0.00     0.082 A 
HETATM    5  C   UNK N   1      44.578  18.993   3.092  0.00  0.00     0.032 A 
HETATM    6  C   UNK N   1      45.435  19.980   3.582  0.00  0.00     0.040 A 
ENDROOT
BRANCH   1   7
HETATM    7  C   UNK N   1      43.201  23.056   3.298  0.00  0.00     0.179 C 
HETATM    8  O   UNK N   1      42.493  23.505   2.411  0.00  0.00    -0.646 OA
BRANCH   7   9
HETATM    9  O   UNK N   1      43.523  23.843   4.344  0.00  0.00    -0.773 OA
HETATM   10  H   UNK N   1      43.882  24.696   4.196  0.00  0.00     0.167 HD
ENDBRANCH   7   9
ENDBRANCH   1   7
BRANCH   4  11
HETATM   11  O   UNK N   1      45.861  22.238   4.136  0.00  0.00    -0.360 OA
HETATM   12  H   UNK N   1      46.398  22.044   4.879  0.00  0.00     0.217 HD
ENDBRANCH   4  11
BRANCH   2  13
HETATM   13  N   UNK N   1      42.425  18.337   2.181  0.00  0.00    -0.399 N 
HETATM   14  H   UNK N   1      42.551  17.984   1.271  0.00  0.00     0.156 HD
HETATM   15  H   UNK N   1      41.695  17.995   2.745  0.00  0.00     0.156 HD
ENDBRANCH   2  13
TORSDOF 4
ENDMDL
