REMARK  4 active torsions:
REMARK  status: ('A' for Active; 'I' for Inactive)
REMARK    1  A    between atoms: N_4  and  C_13 
REMARK    2  A    between atoms: N_5  and  C_15 
REMARK    3  A    between atoms: C_13  and  C_14 
REMARK    4  A    between atoms: C_14  and  C_16 
ROOT
HETATM    1  N   UNK N   1       4.521   0.321  -1.684  0.00  0.00     0.091 N 
HETATM    2  N   UNK N   1       2.823  -0.700   0.241  0.00  0.00    -0.363 N 
HETATM    3  C   UNK N   1       4.699  -1.054  -1.186  0.00  0.00     0.292 C 
HETATM    4  C   UNK N   1       3.207   0.945  -1.446  0.00  0.00     0.292 C 
HETATM    5  C   UNK N   1       4.158  -1.230   0.229  0.00  0.00     0.154 C 
HETATM    6  C   UNK N   1       2.691   0.706  -0.027  0.00  0.00     0.154 C 
ENDROOT
BRANCH   1   7
HETATM    7  C   UNK N   1       5.630   1.187  -1.312  0.00  0.00     0.277 C 
BRANCH   7   8
HETATM    8  C   UNK N   1       5.712   1.487   0.181  0.00  0.00     0.070 C 
BRANCH   8   9
HETATM    9  C   UNK N   1       7.015   2.162   0.373  0.00  0.00    -0.034 A 
HETATM   10  C   UNK N   1       8.188   1.388   0.314  0.00  0.00     0.018 A 
HETATM   11  C   UNK N   1       9.411   2.040   0.360  0.00  0.00    -0.022 A 
HETATM   12  C   UNK N   1       9.481   3.403   0.456  0.00  0.00     0.043 A 
HETATM   13  C   UNK N   1      10.780   1.438   0.255  0.00  0.00     0.144 A 
HETATM   14  N   UNK N   1      10.800   3.835   0.416  0.00  0.00    -0.326 N 
HETATM   15  C   UNK N   1       8.344   4.203   0.534  0.00  0.00     0.054 A 
HETATM   16  C   UNK N   1      11.567   2.734   0.290  0.00  0.00     0.226 A 
HETATM   17  H   UNK N   1      11.115   4.766   0.468  0.00  0.00     0.169 HD
HETATM   18  O   UNK N   1      12.781   2.791   0.199  0.00  0.00    -0.273 OA
HETATM   19  C   UNK N   1       7.090   3.572   0.493  0.00  0.00     0.042 A 
HETATM   20 Cl   UNK N   1       5.635   4.558   0.518  0.00  0.00    -0.084 Cl
ENDBRANCH   8   9
ENDBRANCH   7   8
ENDBRANCH   1   7
BRANCH   2  21
HETATM   21  C   UNK N   1       1.691  -1.546   0.051  0.00  0.00     0.121 A 
HETATM   22  N   UNK N   1       0.443  -1.020  -0.155  0.00  0.00    -0.311 N 
HETATM   23  S   UNK N   1      -0.530  -2.324  -0.419  0.00  0.00    -0.013 SA
ATOM     24  HN  UNK N   1       0.175  -0.036  -0.147  1.00  0.00     0.176 HD
HETATM   25  C   UNK N   1       0.524  -3.566  -0.295  0.00  0.00     0.035 A 
HETATM   26  C   UNK N   1       1.758  -2.988  -0.019  0.00  0.00     0.027 A 
HETATM   27  C   UNK N   1       0.343  -4.935  -0.437  0.00  0.00     0.021 A 
HETATM   28  C   UNK N   1       2.881  -3.807   0.131  0.00  0.00     0.017 A 
HETATM   29  C   UNK N   1       2.732  -5.198  -0.001  0.00  0.00     0.001 A 
HETATM   30  C   UNK N   1       1.470  -5.759  -0.286  0.00  0.00     0.001 A 
ENDBRANCH   2  21
TORSDOF 4
