MODEL 1
REMARK VINA RESULT:      -7.9      0.000      0.000
REMARK  4 active torsions:
REMARK  status: ('A' for Active; 'I' for Inactive)
REMARK    1  A    between atoms: N_4  and  C_13 
REMARK    2  A    between atoms: N_5  and  C_15 
REMARK    3  A    between atoms: C_13  and  C_14 
REMARK    4  A    between atoms: C_14  and  C_16 
ROOT
HETATM    1  N   UNK N   1      34.624  13.923  10.844  0.00  0.00     0.091 N 
HETATM    2  N   UNK N   1      34.253  15.520   8.620  0.00  0.00    -0.363 N 
HETATM    3  C   UNK N   1      34.486  15.383  10.988  0.00  0.00     0.292 C 
HETATM    4  C   UNK N   1      34.146  13.336   9.579  0.00  0.00     0.292 C 
HETATM    5  C   UNK N   1      34.923  16.131   9.733  0.00  0.00     0.154 C 
HETATM    6  C   UNK N   1      34.577  14.145   8.355  0.00  0.00     0.154 C 
ENDROOT
BRANCH   1   7
HETATM    7  C   UNK N   1      35.954  13.460  11.211  0.00  0.00     0.277 C 
BRANCH   7   8
HETATM    8  C   UNK N   1      35.969  12.109  11.919  0.00  0.00     0.070 C 
BRANCH   8   9
HETATM    9  C   UNK N   1      35.835  12.421  13.359  0.00  0.00    -0.034 A 
HETATM   10  C   UNK N   1      36.641  13.437  13.905  0.00  0.00     0.018 A 
HETATM   11  C   UNK N   1      36.420  13.819  15.220  0.00  0.00    -0.022 A 
HETATM   12  C   UNK N   1      35.440  13.229  15.971  0.00  0.00     0.043 A 
HETATM   13  C   UNK N   1      37.106  14.906  15.990  0.00  0.00     0.144 A 
HETATM   14  N   UNK N   1      35.357  13.817  17.226  0.00  0.00    -0.326 N 
HETATM   15  C   UNK N   1      34.633  12.209  15.473  0.00  0.00     0.054 A 
HETATM   16  C   UNK N   1      36.291  14.788  17.264  0.00  0.00     0.226 A 
HETATM   17  H   UNK N   1      34.735  13.573  17.949  0.00  0.00     0.169 HD
HETATM   18  O   UNK N   1      36.445  15.509  18.235  0.00  0.00    -0.273 OA
HETATM   19  C   UNK N   1      34.834  11.798  14.146  0.00  0.00     0.042 A 
HETATM   20 Cl   UNK N   1      33.785  10.562  13.465  0.00  0.00    -0.084 Cl
ENDBRANCH   8   9
ENDBRANCH   7   8
ENDBRANCH   1   7
BRANCH   2  21
HETATM   21  C   UNK N   1      33.028  16.047   8.115  0.00  0.00     0.121 A 
HETATM   22  N   UNK N   1      31.959  16.267   8.943  0.00  0.00    -0.311 N 
HETATM   23  S   UNK N   1      30.812  16.959   7.983  0.00  0.00    -0.013 SA
ATOM     24  HN  UNK N   1      31.889  16.049   9.937  1.00  0.00     0.176 HD
HETATM   25  C   UNK N   1      31.570  17.018   6.537  0.00  0.00     0.035 A 
HETATM   26  C   UNK N   1      32.826  16.462   6.745  0.00  0.00     0.027 A 
HETATM   27  C   UNK N   1      31.155  17.514   5.308  0.00  0.00     0.021 A 
HETATM   28  C   UNK N   1      33.728  16.384   5.679  0.00  0.00     0.017 A 
HETATM   29  C   UNK N   1      33.338  16.871   4.421  0.00  0.00     0.001 A 
HETATM   30  C   UNK N   1      32.059  17.436   4.236  0.00  0.00     0.001 A 
ENDBRANCH   2  21
TORSDOF 4
ENDMDL
MODEL 2
REMARK VINA RESULT:      -7.9      3.971      8.965
REMARK  4 active torsions:
REMARK  status: ('A' for Active; 'I' for Inactive)
REMARK    1  A    between atoms: N_4  and  C_13 
REMARK    2  A    between atoms: N_5  and  C_15 
REMARK    3  A    between atoms: C_13  and  C_14 
REMARK    4  A    between atoms: C_14  and  C_16 
ROOT
HETATM    1  N   UNK N   1      35.805  14.994   9.443  0.00  0.00     0.091 N 
HETATM    2  N   UNK N   1      34.868  13.738  11.718  0.00  0.00    -0.363 N 
HETATM    3  C   UNK N   1      35.149  15.772  10.509  0.00  0.00     0.292 C 
HETATM    4  C   UNK N   1      36.305  13.658   9.813  0.00  0.00     0.292 C 
HETATM    5  C   UNK N   1      34.171  14.929  11.320  0.00  0.00     0.154 C 
HETATM    6  C   UNK N   1      35.305  12.869  10.659  0.00  0.00     0.154 C 
ENDROOT
BRANCH   1   7
HETATM    7  C   UNK N   1      35.026  14.982   8.214  0.00  0.00     0.277 C 
BRANCH   7   8
HETATM    8  C   UNK N   1      34.871  16.352   7.562  0.00  0.00     0.070 C 
BRANCH   8   9
HETATM    9  C   UNK N   1      33.412  16.542   7.394  0.00  0.00    -0.034 A 
HETATM   10  C   UNK N   1      32.707  17.241   8.390  0.00  0.00     0.018 A 
HETATM   11  C   UNK N   1      31.370  17.533   8.168  0.00  0.00    -0.022 A 
HETATM   12  C   UNK N   1      30.748  17.158   7.008  0.00  0.00     0.043 A 
HETATM   13  C   UNK N   1      30.438  18.311   9.049  0.00  0.00     0.144 A 
HETATM   14  N   UNK N   1      29.438  17.617   6.978  0.00  0.00    -0.326 N 
HETATM   15  C   UNK N   1      31.407  16.450   6.006  0.00  0.00     0.054 A 
HETATM   16  C   UNK N   1      29.234  18.290   8.127  0.00  0.00     0.226 A 
HETATM   17  H   UNK N   1      28.784  17.478   6.256  0.00  0.00     0.169 HD
HETATM   18  O   UNK N   1      28.177  18.840   8.383  0.00  0.00    -0.273 OA
HETATM   19  C   UNK N   1      32.761  16.136   6.203  0.00  0.00     0.042 A 
HETATM   20 Cl   UNK N   1      33.641  15.306   4.927  0.00  0.00    -0.084 Cl
ENDBRANCH   8   9
ENDBRANCH   7   8
ENDBRANCH   1   7
BRANCH   2  21
HETATM   21  C   UNK N   1      35.502  13.643  12.991  0.00  0.00     0.121 A 
HETATM   22  N   UNK N   1      36.420  14.578  13.394  0.00  0.00    -0.311 N 
HETATM   23  S   UNK N   1      36.818  14.147  14.934  0.00  0.00    -0.013 SA
ATOM     24  HN  UNK N   1      36.777  15.368  12.858  1.00  0.00     0.176 HD
HETATM   25  C   UNK N   1      35.894  12.819  15.166  0.00  0.00     0.035 A 
HETATM   26  C   UNK N   1      35.194  12.634  13.979  0.00  0.00     0.027 A 
HETATM   27  C   UNK N   1      35.745  11.992  16.271  0.00  0.00     0.021 A 
HETATM   28  C   UNK N   1      34.296  11.569  13.871  0.00  0.00     0.017 A 
HETATM   29  C   UNK N   1      34.124  10.709  14.970  0.00  0.00     0.001 A 
HETATM   30  C   UNK N   1      34.843  10.921  16.164  0.00  0.00     0.001 A 
ENDBRANCH   2  21
TORSDOF 4
ENDMDL
MODEL 3
REMARK VINA RESULT:      -7.9      1.824      2.142
REMARK  4 active torsions:
REMARK  status: ('A' for Active; 'I' for Inactive)
REMARK    1  A    between atoms: N_4  and  C_13 
REMARK    2  A    between atoms: N_5  and  C_15 
REMARK    3  A    between atoms: C_13  and  C_14 
REMARK    4  A    between atoms: C_14  and  C_16 
ROOT
HETATM    1  N   UNK N   1      35.104  14.310  12.050  0.00  0.00     0.091 N 
HETATM    2  N   UNK N   1      35.431  15.026   9.402  0.00  0.00    -0.363 N 
HETATM    3  C   UNK N   1      36.026  15.398  11.680  0.00  0.00     0.292 C 
HETATM    4  C   UNK N   1      34.092  13.932  11.047  0.00  0.00     0.292 C 
HETATM    5  C   UNK N   1      36.562  15.243  10.261  0.00  0.00     0.154 C 
HETATM    6  C   UNK N   1      34.671  13.829   9.637  0.00  0.00     0.154 C 
ENDROOT
BRANCH   1   7
HETATM    7  C   UNK N   1      35.807  13.160  12.600  0.00  0.00     0.277 C 
BRANCH   7   8
HETATM    8  C   UNK N   1      34.892  12.012  13.015  0.00  0.00     0.070 C 
BRANCH   8   9
HETATM    9  C   UNK N   1      35.130  11.827  14.464  0.00  0.00    -0.034 A 
HETATM   10  C   UNK N   1      35.115  12.960  15.297  0.00  0.00     0.018 A 
HETATM   11  C   UNK N   1      35.204  12.771  16.668  0.00  0.00    -0.022 A 
HETATM   12  C   UNK N   1      35.299  11.515  17.203  0.00  0.00     0.043 A 
HETATM   13  C   UNK N   1      35.150  13.811  17.747  0.00  0.00     0.144 A 
HETATM   14  N   UNK N   1      35.306  11.567  18.590  0.00  0.00    -0.326 N 
HETATM   15  C   UNK N   1      35.334  10.370  16.411  0.00  0.00     0.054 A 
HETATM   16  C   UNK N   1      35.210  12.867  18.932  0.00  0.00     0.226 A 
HETATM   17  H   UNK N   1      35.367  10.802  19.206  0.00  0.00     0.169 HD
HETATM   18  O   UNK N   1      35.163  13.235  20.093  0.00  0.00    -0.273 OA
HETATM   19  C   UNK N   1      35.249  10.528  15.019  0.00  0.00     0.042 A 
HETATM   20 Cl   UNK N   1      35.220   9.100  13.995  0.00  0.00    -0.084 Cl
ENDBRANCH   8   9
ENDBRANCH   7   8
ENDBRANCH   1   7
BRANCH   2  21
HETATM   21  C   UNK N   1      34.816  16.106   8.704  0.00  0.00     0.121 A 
HETATM   22  N   UNK N   1      34.640  17.325   9.304  0.00  0.00    -0.311 N 
HETATM   23  S   UNK N   1      33.995  18.287   8.131  0.00  0.00    -0.013 SA
ATOM     24  HN  UNK N   1      34.860  17.581  10.266  1.00  0.00     0.176 HD
HETATM   25  C   UNK N   1      33.910  17.264   6.860  0.00  0.00     0.035 A 
HETATM   26  C   UNK N   1      34.404  16.049   7.320  0.00  0.00     0.027 A 
HETATM   27  C   UNK N   1      33.477  17.462   5.556  0.00  0.00     0.021 A 
HETATM   28  C   UNK N   1      34.472  14.961   6.445  0.00  0.00     0.017 A 
HETATM   29  C   UNK N   1      34.038  15.125   5.119  0.00  0.00     0.001 A 
HETATM   30  C   UNK N   1      33.545  16.370   4.676  0.00  0.00     0.001 A 
ENDBRANCH   2  21
TORSDOF 4
ENDMDL
MODEL 4
REMARK VINA RESULT:      -7.6     11.570     15.143
REMARK  4 active torsions:
REMARK  status: ('A' for Active; 'I' for Inactive)
REMARK    1  A    between atoms: N_4  and  C_13 
REMARK    2  A    between atoms: N_5  and  C_15 
REMARK    3  A    between atoms: C_13  and  C_14 
REMARK    4  A    between atoms: C_14  and  C_16 
ROOT
HETATM    1  N   UNK N   1      20.678  15.561   5.021  0.00  0.00     0.091 N 
HETATM    2  N   UNK N   1      22.097  15.154   7.355  0.00  0.00    -0.363 N 
HETATM    3  C   UNK N   1      21.422  14.307   5.232  0.00  0.00     0.292 C 
HETATM    4  C   UNK N   1      20.379  16.363   6.221  0.00  0.00     0.292 C 
HETATM    5  C   UNK N   1      22.598  14.488   6.185  0.00  0.00     0.154 C 
HETATM    6  C   UNK N   1      21.578  16.480   7.162  0.00  0.00     0.154 C 
ENDROOT
BRANCH   1   7
HETATM    7  C   UNK N   1      21.239  16.357   3.939  0.00  0.00     0.277 C 
BRANCH   7   8
HETATM    8  C   UNK N   1      20.790  17.814   3.940  0.00  0.00     0.070 C 
BRANCH   8   9
HETATM    9  C   UNK N   1      22.035  18.607   3.835  0.00  0.00    -0.034 A 
HETATM   10  C   UNK N   1      23.217  18.078   4.384  0.00  0.00     0.018 A 
HETATM   11  C   UNK N   1      24.406  18.758   4.168  0.00  0.00    -0.022 A 
HETATM   12  C   UNK N   1      24.435  19.914   3.436  0.00  0.00     0.043 A 
HETATM   13  C   UNK N   1      25.785  18.361   4.600  0.00  0.00     0.144 A 
HETATM   14  N   UNK N   1      25.737  20.377   3.294  0.00  0.00    -0.326 N 
HETATM   15  C   UNK N   1      23.286  20.478   2.890  0.00  0.00     0.054 A 
HETATM   16  C   UNK N   1      26.534  19.503   3.941  0.00  0.00     0.226 A 
HETATM   17  H   UNK N   1      26.023  21.187   2.814  0.00  0.00     0.169 HD
HETATM   18  O   UNK N   1      27.746  19.625   3.971  0.00  0.00    -0.273 OA
HETATM   19  C   UNK N   1      22.065  19.815   3.094  0.00  0.00     0.042 A 
HETATM   20 Cl   UNK N   1      20.605  20.463   2.359  0.00  0.00    -0.084 Cl
ENDBRANCH   8   9
ENDBRANCH   7   8
ENDBRANCH   1   7
BRANCH   2  21
HETATM   21  C   UNK N   1      21.695  14.418   8.508  0.00  0.00     0.121 A 
HETATM   22  N   UNK N   1      20.380  14.365   8.889  0.00  0.00    -0.311 N 
HETATM   23  S   UNK N   1      20.353  13.348  10.186  0.00  0.00    -0.013 SA
ATOM     24  HN  UNK N   1      19.590  14.849   8.462  1.00  0.00     0.176 HD
HETATM   25  C   UNK N   1      21.928  12.938  10.329  0.00  0.00     0.035 A 
HETATM   26  C   UNK N   1      22.590  13.620   9.315  0.00  0.00     0.027 A 
HETATM   27  C   UNK N   1      22.573  12.087  11.216  0.00  0.00     0.021 A 
HETATM   28  C   UNK N   1      23.971  13.459   9.168  0.00  0.00     0.017 A 
HETATM   29  C   UNK N   1      24.656  12.609  10.052  0.00  0.00     0.001 A 
HETATM   30  C   UNK N   1      23.960  11.925  11.070  0.00  0.00     0.001 A 
ENDBRANCH   2  21
TORSDOF 4
ENDMDL
MODEL 5
REMARK VINA RESULT:      -7.5      8.723     13.533
REMARK  4 active torsions:
REMARK  status: ('A' for Active; 'I' for Inactive)
REMARK    1  A    between atoms: N_4  and  C_13 
REMARK    2  A    between atoms: N_5  and  C_15 
REMARK    3  A    between atoms: C_13  and  C_14 
REMARK    4  A    between atoms: C_14  and  C_16 
ROOT
HETATM    1  N   UNK N   1      26.458  17.399   4.271  0.00  0.00     0.091 N 
HETATM    2  N   UNK N   1      28.796  17.383   5.744  0.00  0.00    -0.363 N 
HETATM    3  C   UNK N   1      27.235  18.638   4.451  0.00  0.00     0.292 C 
HETATM    4  C   UNK N   1      27.167  16.132   4.526  0.00  0.00     0.292 C 
HETATM    5  C   UNK N   1      28.063  18.619   5.731  0.00  0.00     0.154 C 
HETATM    6  C   UNK N   1      28.014  16.178   5.798  0.00  0.00     0.154 C 
ENDROOT
BRANCH   1   7
HETATM    7  C   UNK N   1      25.164  17.461   4.934  0.00  0.00     0.277 C 
BRANCH   7   8
HETATM    8  C   UNK N   1      24.321  18.670   4.540  0.00  0.00     0.070 C 
BRANCH   8   9
HETATM    9  C   UNK N   1      22.971  18.130   4.261  0.00  0.00    -0.034 A 
HETATM   10  C   UNK N   1      22.592  16.920   4.868  0.00  0.00     0.018 A 
HETATM   11  C   UNK N   1      21.284  16.485   4.714  0.00  0.00    -0.022 A 
HETATM   12  C   UNK N   1      20.379  17.215   3.992  0.00  0.00     0.043 A 
HETATM   13  C   UNK N   1      20.641  15.270   5.310  0.00  0.00     0.144 A 
HETATM   14  N   UNK N   1      19.123  16.624   4.032  0.00  0.00    -0.326 N 
HETATM   15  C   UNK N   1      20.719  18.409   3.361  0.00  0.00     0.054 A 
HETATM   16  C   UNK N   1      19.238  15.515   4.788  0.00  0.00     0.226 A 
HETATM   17  H   UNK N   1      18.306  16.953   3.594  0.00  0.00     0.169 HD
HETATM   18  O   UNK N   1      18.289  14.791   5.034  0.00  0.00    -0.273 OA
HETATM   19  C   UNK N   1      22.037  18.874   3.497  0.00  0.00     0.042 A 
HETATM   20 Cl   UNK N   1      22.480  20.413   2.773  0.00  0.00    -0.084 Cl
ENDBRANCH   8   9
ENDBRANCH   7   8
ENDBRANCH   1   7
BRANCH   2  21
HETATM   21  C   UNK N   1      30.135  17.314   5.260  0.00  0.00     0.121 A 
HETATM   22  N   UNK N   1      30.401  17.296   3.916  0.00  0.00    -0.311 N 
HETATM   23  S   UNK N   1      32.045  17.310   3.807  0.00  0.00    -0.013 SA
ATOM     24  HN  UNK N   1      29.727  17.278   3.150  1.00  0.00     0.176 HD
HETATM   25  C   UNK N   1      32.490  17.341   5.379  0.00  0.00     0.035 A 
HETATM   26  C   UNK N   1      31.306  17.334   6.107  0.00  0.00     0.027 A 
HETATM   27  C   UNK N   1      33.745  17.387   5.972  0.00  0.00     0.021 A 
HETATM   28  C   UNK N   1      31.359  17.371   7.504  0.00  0.00     0.017 A 
HETATM   29  C   UNK N   1      32.613  17.412   8.137  0.00  0.00     0.001 A 
HETATM   30  C   UNK N   1      33.800  17.423   7.375  0.00  0.00     0.001 A 
ENDBRANCH   2  21
TORSDOF 4
ENDMDL
MODEL 6
REMARK VINA RESULT:      -7.5      9.197     14.298
REMARK  4 active torsions:
REMARK  status: ('A' for Active; 'I' for Inactive)
REMARK    1  A    between atoms: N_4  and  C_13 
REMARK    2  A    between atoms: N_5  and  C_15 
REMARK    3  A    between atoms: C_13  and  C_14 
REMARK    4  A    between atoms: C_14  and  C_16 
ROOT
HETATM    1  N   UNK N   1      24.658  16.576   5.494  0.00  0.00     0.091 N 
HETATM    2  N   UNK N   1      27.383  16.441   5.926  0.00  0.00    -0.363 N 
HETATM    3  C   UNK N   1      25.218  15.571   6.414  0.00  0.00     0.292 C 
HETATM    4  C   UNK N   1      25.520  17.726   5.167  0.00  0.00     0.292 C 
HETATM    5  C   UNK N   1      26.658  15.209   6.066  0.00  0.00     0.154 C 
HETATM    6  C   UNK N   1      26.961  17.314   4.865  0.00  0.00     0.154 C 
ENDROOT
BRANCH   1   7
HETATM    7  C   UNK N   1      24.062  15.967   4.314  0.00  0.00     0.277 C 
BRANCH   7   8
HETATM    8  C   UNK N   1      22.594  15.591   4.482  0.00  0.00     0.070 C 
BRANCH   8   9
HETATM    9  C   UNK N   1      21.844  16.560   3.651  0.00  0.00    -0.034 A 
HETATM   10  C   UNK N   1      22.136  17.929   3.787  0.00  0.00     0.018 A 
HETATM   11  C   UNK N   1      21.531  18.822   2.916  0.00  0.00    -0.022 A 
HETATM   12  C   UNK N   1      20.674  18.387   1.942  0.00  0.00     0.043 A 
HETATM   13  C   UNK N   1      21.732  20.305   2.831  0.00  0.00     0.144 A 
HETATM   14  N   UNK N   1      20.247  19.444   1.150  0.00  0.00    -0.326 N 
HETATM   15  C   UNK N   1      20.346  17.043   1.786  0.00  0.00     0.054 A 
HETATM   16  C   UNK N   1      20.844  20.554   1.627  0.00  0.00     0.226 A 
HETATM   17  H   UNK N   1      19.629  19.394   0.386  0.00  0.00     0.169 HD
HETATM   18  O   UNK N   1      20.687  21.650   1.118  0.00  0.00    -0.273 OA
HETATM   19  C   UNK N   1      20.940  16.114   2.655  0.00  0.00     0.042 A 
HETATM   20 Cl   UNK N   1      20.603  14.402   2.439  0.00  0.00    -0.084 Cl
ENDBRANCH   8   9
ENDBRANCH   7   8
ENDBRANCH   1   7
BRANCH   2  21
HETATM   21  C   UNK N   1      28.126  16.988   7.013  0.00  0.00     0.121 A 
HETATM   22  N   UNK N   1      27.504  17.370   8.172  0.00  0.00    -0.311 N 
HETATM   23  S   UNK N   1      28.724  17.843   9.174  0.00  0.00    -0.013 SA
ATOM     24  HN  UNK N   1      26.503  17.363   8.371  1.00  0.00     0.176 HD
HETATM   25  C   UNK N   1      30.043  17.601   8.242  0.00  0.00     0.035 A 
HETATM   26  C   UNK N   1      29.565  17.116   7.030  0.00  0.00     0.027 A 
HETATM   27  C   UNK N   1      31.394  17.783   8.506  0.00  0.00     0.021 A 
HETATM   28  C   UNK N   1      30.471  16.795   6.014  0.00  0.00     0.017 A 
HETATM   29  C   UNK N   1      31.845  16.973   6.246  0.00  0.00     0.001 A 
HETATM   30  C   UNK N   1      32.305  17.462   7.486  0.00  0.00     0.001 A 
ENDBRANCH   2  21
TORSDOF 4
ENDMDL
MODEL 7
REMARK VINA RESULT:      -7.4      8.677     13.837
REMARK  4 active torsions:
REMARK  status: ('A' for Active; 'I' for Inactive)
REMARK    1  A    between atoms: N_4  and  C_13 
REMARK    2  A    between atoms: N_5  and  C_15 
REMARK    3  A    between atoms: C_13  and  C_14 
REMARK    4  A    between atoms: C_14  and  C_16 
ROOT
HETATM    1  N   UNK N   1      26.283  17.297   4.362  0.00  0.00     0.091 N 
HETATM    2  N   UNK N   1      28.715  17.563   5.644  0.00  0.00    -0.363 N 
HETATM    3  C   UNK N   1      27.094  18.512   4.177  0.00  0.00     0.292 C 
HETATM    4  C   UNK N   1      26.982  16.108   4.883  0.00  0.00     0.292 C 
HETATM    5  C   UNK N   1      28.009  18.783   5.367  0.00  0.00     0.154 C 
HETATM    6  C   UNK N   1      27.916  16.439   6.048  0.00  0.00     0.154 C 
ENDROOT
BRANCH   1   7
HETATM    7  C   UNK N   1      25.039  17.570   5.067  0.00  0.00     0.277 C 
BRANCH   7   8
HETATM    8  C   UNK N   1      23.946  16.535   4.824  0.00  0.00     0.070 C 
BRANCH   8   9
HETATM    9  C   UNK N   1      22.875  17.258   4.102  0.00  0.00    -0.034 A 
HETATM   10  C   UNK N   1      23.036  18.635   3.865  0.00  0.00     0.018 A 
HETATM   11  C   UNK N   1      22.099  19.282   3.074  0.00  0.00    -0.022 A 
HETATM   12  C   UNK N   1      21.043  18.601   2.532  0.00  0.00     0.043 A 
HETATM   13  C   UNK N   1      22.094  20.716   2.639  0.00  0.00     0.144 A 
HETATM   14  N   UNK N   1      20.279  19.434   1.725  0.00  0.00    -0.326 N 
HETATM   15  C   UNK N   1      20.839  17.243   2.757  0.00  0.00     0.054 A 
HETATM   16  C   UNK N   1      20.861  20.649   1.757  0.00  0.00     0.226 A 
HETATM   17  H   UNK N   1      19.469  19.186   1.225  0.00  0.00     0.169 HD
HETATM   18  O   UNK N   1      20.434  21.595   1.119  0.00  0.00    -0.273 OA
HETATM   19  C   UNK N   1      21.769  16.560   3.557  0.00  0.00     0.042 A 
HETATM   20 Cl   UNK N   1      21.580  14.829   3.802  0.00  0.00    -0.084 Cl
ENDBRANCH   8   9
ENDBRANCH   7   8
ENDBRANCH   1   7
BRANCH   2  21
HETATM   21  C   UNK N   1      30.017  17.326   5.111  0.00  0.00     0.121 A 
HETATM   22  N   UNK N   1      30.209  17.154   3.766  0.00  0.00    -0.311 N 
HETATM   23  S   UNK N   1      31.840  17.009   3.584  0.00  0.00    -0.013 SA
ATOM     24  HN  UNK N   1      29.497  17.122   3.037  1.00  0.00     0.176 HD
HETATM   25  C   UNK N   1      32.369  17.152   5.123  0.00  0.00     0.035 A 
HETATM   26  C   UNK N   1      31.228  17.323   5.900  0.00  0.00     0.027 A 
HETATM   27  C   UNK N   1      33.652  17.142   5.653  0.00  0.00     0.021 A 
HETATM   28  C   UNK N   1      31.358  17.490   7.282  0.00  0.00     0.017 A 
HETATM   29  C   UNK N   1      32.642  17.480   7.851  0.00  0.00     0.001 A 
HETATM   30  C   UNK N   1      33.783  17.309   7.041  0.00  0.00     0.001 A 
ENDBRANCH   2  21
TORSDOF 4
ENDMDL
MODEL 8
REMARK VINA RESULT:      -7.4      4.621      9.817
REMARK  4 active torsions:
REMARK  status: ('A' for Active; 'I' for Inactive)
REMARK    1  A    between atoms: N_4  and  C_13 
REMARK    2  A    between atoms: N_5  and  C_15 
REMARK    3  A    between atoms: C_13  and  C_14 
REMARK    4  A    between atoms: C_14  and  C_16 
ROOT
HETATM    1  N   UNK N   1      36.210  14.786   9.543  0.00  0.00     0.091 N 
HETATM    2  N   UNK N   1      35.085  13.614  11.778  0.00  0.00    -0.363 N 
HETATM    3  C   UNK N   1      35.525  15.612  10.553  0.00  0.00     0.292 C 
HETATM    4  C   UNK N   1      36.629  13.438   9.965  0.00  0.00     0.292 C 
HETATM    5  C   UNK N   1      34.465  14.826  11.318  0.00  0.00     0.154 C 
HETATM    6  C   UNK N   1      35.548  12.708  10.762  0.00  0.00     0.154 C 
ENDROOT
BRANCH   1   7
HETATM    7  C   UNK N   1      35.506  14.783   8.269  0.00  0.00     0.277 C 
BRANCH   7   8
HETATM    8  C   UNK N   1      34.759  16.078   7.967  0.00  0.00     0.070 C 
BRANCH   8   9
HETATM    9  C   UNK N   1      34.326  15.959   6.557  0.00  0.00    -0.034 A 
HETATM   10  C   UNK N   1      34.999  15.049   5.721  0.00  0.00     0.018 A 
HETATM   11  C   UNK N   1      34.508  14.842   4.441  0.00  0.00    -0.022 A 
HETATM   12  C   UNK N   1      33.393  15.500   3.998  0.00  0.00     0.043 A 
HETATM   13  C   UNK N   1      35.017  13.888   3.403  0.00  0.00     0.144 A 
HETATM   14  N   UNK N   1      33.049  15.084   2.719  0.00  0.00    -0.326 N 
HETATM   15  C   UNK N   1      32.709  16.420   4.788  0.00  0.00     0.054 A 
HETATM   16  C   UNK N   1      33.953  14.154   2.355  0.00  0.00     0.226 A 
HETATM   17  H   UNK N   1      32.290  15.406   2.181  0.00  0.00     0.169 HD
HETATM   18  O   UNK N   1      33.900  13.576   1.283  0.00  0.00    -0.273 OA
HETATM   19  C   UNK N   1      33.184  16.655   6.089  0.00  0.00     0.042 A 
HETATM   20 Cl   UNK N   1      32.302  17.757   7.136  0.00  0.00    -0.084 Cl
ENDBRANCH   8   9
ENDBRANCH   7   8
ENDBRANCH   1   7
BRANCH   2  21
HETATM   21  C   UNK N   1      35.638  13.519  13.089  0.00  0.00     0.121 A 
HETATM   22  N   UNK N   1      36.558  14.430  13.535  0.00  0.00    -0.311 N 
HETATM   23  S   UNK N   1      36.848  14.009  15.102  0.00  0.00    -0.013 SA
ATOM     24  HN  UNK N   1      36.972  15.201  13.012  1.00  0.00     0.176 HD
HETATM   25  C   UNK N   1      35.870  12.713  15.293  0.00  0.00     0.035 A 
HETATM   26  C   UNK N   1      35.238  12.534  14.068  0.00  0.00     0.027 A 
HETATM   27  C   UNK N   1      35.628  11.907  16.397  0.00  0.00     0.021 A 
HETATM   28  C   UNK N   1      34.315  11.495  13.918  0.00  0.00     0.017 A 
HETATM   29  C   UNK N   1      34.050  10.656  15.014  0.00  0.00     0.001 A 
HETATM   30  C   UNK N   1      34.701  10.863  16.248  0.00  0.00     0.001 A 
ENDBRANCH   2  21
TORSDOF 4
ENDMDL
MODEL 9
REMARK VINA RESULT:      -7.4      8.422     13.627
REMARK  4 active torsions:
REMARK  status: ('A' for Active; 'I' for Inactive)
REMARK    1  A    between atoms: N_4  and  C_13 
REMARK    2  A    between atoms: N_5  and  C_15 
REMARK    3  A    between atoms: C_13  and  C_14 
REMARK    4  A    between atoms: C_14  and  C_16 
ROOT
HETATM    1  N   UNK N   1      27.316  17.597   3.927  0.00  0.00     0.091 N 
HETATM    2  N   UNK N   1      29.387  16.897   5.616  0.00  0.00    -0.363 N 
HETATM    3  C   UNK N   1      27.999  18.622   4.735  0.00  0.00     0.292 C 
HETATM    4  C   UNK N   1      28.030  16.321   3.738  0.00  0.00     0.292 C 
HETATM    5  C   UNK N   1      28.613  18.043   6.005  0.00  0.00     0.154 C 
HETATM    6  C   UNK N   1      28.660  15.803   5.031  0.00  0.00     0.154 C 
ENDROOT
BRANCH   1   7
HETATM    7  C   UNK N   1      25.931  17.411   4.334  0.00  0.00     0.277 C 
BRANCH   7   8
HETATM    8  C   UNK N   1      25.306  18.637   4.992  0.00  0.00     0.070 C 
BRANCH   8   9
HETATM    9  C   UNK N   1      24.127  18.968   4.161  0.00  0.00    -0.034 A 
HETATM   10  C   UNK N   1      22.932  18.257   4.375  0.00  0.00     0.018 A 
HETATM   11  C   UNK N   1      21.795  18.659   3.691  0.00  0.00    -0.022 A 
HETATM   12  C   UNK N   1      21.827  19.722   2.831  0.00  0.00     0.043 A 
HETATM   13  C   UNK N   1      20.409  18.098   3.800  0.00  0.00     0.144 A 
HETATM   14  N   UNK N   1      20.563  19.981   2.317  0.00  0.00    -0.326 N 
HETATM   15  C   UNK N   1      22.993  20.440   2.578  0.00  0.00     0.054 A 
HETATM   16  C   UNK N   1      19.728  19.075   2.862  0.00  0.00     0.226 A 
HETATM   17  H   UNK N   1      20.323  20.691   1.679  0.00  0.00     0.169 HD
HETATM   18  O   UNK N   1      18.532  19.063   2.624  0.00  0.00    -0.273 OA
HETATM   19  C   UNK N   1      24.163  20.056   3.254  0.00  0.00     0.042 A 
HETATM   20 Cl   UNK N   1      25.635  20.986   3.011  0.00  0.00    -0.084 Cl
ENDBRANCH   8   9
ENDBRANCH   7   8
ENDBRANCH   1   7
BRANCH   2  21
HETATM   21  C   UNK N   1      30.788  17.000   5.373  0.00  0.00     0.121 A 
HETATM   22  N   UNK N   1      31.284  17.019   4.097  0.00  0.00    -0.311 N 
HETATM   23  S   UNK N   1      32.908  17.244   4.274  0.00  0.00    -0.013 SA
ATOM     24  HN  UNK N   1      30.763  16.918   3.226  1.00  0.00     0.176 HD
HETATM   25  C   UNK N   1      33.064  17.326   5.898  0.00  0.00     0.035 A 
HETATM   26  C   UNK N   1      31.782  17.167   6.410  0.00  0.00     0.027 A 
HETATM   27  C   UNK N   1      34.180  17.530   6.699  0.00  0.00     0.021 A 
HETATM   28  C   UNK N   1      31.585  17.206   7.794  0.00  0.00     0.017 A 
HETATM   29  C   UNK N   1      32.694  17.405   8.633  0.00  0.00     0.001 A 
HETATM   30  C   UNK N   1      33.984  17.568   8.089  0.00  0.00     0.001 A 
ENDBRANCH   2  21
TORSDOF 4
ENDMDL
