MODEL 1
REMARK VINA RESULT:      -7.1      0.000      0.000
REMARK  8 active torsions:
REMARK  status: ('A' for Active; 'I' for Inactive)
REMARK    1  A    between atoms: N_3  and  C_17 
REMARK       I    between atoms: N_5  and  C_18 
REMARK    2  A    between atoms: N_5  and  C_25 
REMARK       I    between atoms: N_5  and  C_26 
REMARK       I    between atoms: N_6  and  C_26 
REMARK    3  A    between atoms: N_6  and  C_30 
REMARK    4  A    between atoms: N_7  and  C_29 
REMARK    5  A    between atoms: C_11  and  C_18 
REMARK    6  A    between atoms: C_17  and  C_24 
REMARK    7  A    between atoms: C_25  and  C_27 
REMARK    8  A    between atoms: C_27  and  C_29 
ROOT
HETATM    1  N   UNK N   1      28.094  23.212  -7.016  0.00  0.00     0.098 N 
HETATM    2  N   UNK N   1      32.832  19.511  -6.009  0.00  0.00    -0.365 N 
HETATM    3  C   UNK N   1      29.474  22.523  -4.998  0.00  0.00     0.054 C 
HETATM    4  C   UNK N   1      29.378  22.594  -6.558  0.00  0.00     0.236 C 
HETATM    5  C   UNK N   1      29.102  23.843  -4.375  0.00  0.00     0.027 C 
HETATM    6  C   UNK N   1      27.673  24.201  -4.773  0.00  0.00     0.107 C 
HETATM    7  C   UNK N   1      29.701  21.182  -7.179  0.00  0.00     0.077 C 
HETATM    8  C   UNK N   1      27.071  23.436  -5.974  0.00  0.00     0.287 C 
HETATM    9  C   UNK N   1      30.821  22.017  -4.556  0.00  0.00    -0.039 A 
HETATM   10  C   UNK N   1      31.397  21.057  -5.345  0.00  0.00     0.005 A 
HETATM   11  C   UNK N   1      30.939  20.605  -6.532  0.00  0.00    -0.028 A 
HETATM   12  C   UNK N   1      32.537  20.408  -5.045  0.00  0.00     0.043 A 
HETATM   13  C   UNK N   1      31.480  22.354  -3.356  0.00  0.00     0.008 A 
HETATM   14  C   UNK N   1      31.840  19.628  -6.944  0.00  0.00     0.096 A 
HETATM   15  C   UNK N   1      33.236  20.700  -3.871  0.00  0.00     0.030 A 
HETATM   16  C   UNK N   1      32.697  21.700  -3.022  0.00  0.00     0.003 A 
HETATM   17  H   UNK N   1      33.602  18.900  -6.034  0.00  0.00     0.165 HD
ENDROOT
BRANCH   6  18
HETATM   18  C   UNK N   1      26.988  25.205  -3.854  0.00  0.00     0.233 C 
HETATM   19  O   UNK N   1      26.474  24.740  -2.843  0.00  0.00    -0.272 OA
HETATM   20  N   UNK N   1      26.964  26.574  -4.072  0.00  0.00    -0.270 N 
HETATM   21  C   UNK N   1      26.377  27.438  -3.146  0.00  0.00     0.325 C 
HETATM   22  O   UNK N   1      25.837  26.980  -2.146  0.00  0.00    -0.247 OA
HETATM   23  N   UNK N   1      26.379  28.798  -3.265  0.00  0.00    -0.343 N 
HETATM   24  H   UNK N   1      25.892  29.293  -2.567  0.00  0.00     0.164 HD
BRANCH  20  25
HETATM   25  C   UNK N   1      27.555  27.103  -5.288  0.00  0.00     0.138 C 
BRANCH  25  26
HETATM   26  C   UNK N   1      26.597  27.016  -6.463  0.00  0.00     0.050 C 
BRANCH  26  27
HETATM   27  C   UNK N   1      27.369  27.289  -7.747  0.00  0.00     0.273 C 
BRANCH  27  28
HETATM   28  N   UNK N   1      27.247  26.184  -8.686  0.00  0.00     0.080 N 
HETATM   29  C   UNK N   1      25.834  25.863  -8.766  0.00  0.00     0.309 C 
HETATM   30  C   UNK N   1      27.633  26.659 -10.005  0.00  0.00     0.309 C 
ENDBRANCH  27  28
ENDBRANCH  26  27
ENDBRANCH  25  26
ENDBRANCH  20  25
BRANCH  23  31
HETATM   31  C   UNK N   1      27.005  29.597  -4.284  0.00  0.00     0.120 C 
HETATM   32  C   UNK N   1      26.726  31.062  -4.009  0.00  0.00     0.026 C 
ENDBRANCH  23  31
ENDBRANCH   6  18
BRANCH   1  33
HETATM   33  C   UNK N   1      27.487  22.552  -8.171  0.00  0.00     0.299 C 
BRANCH  33  34
HETATM   34  C   UNK N   1      26.098  22.115  -7.843  0.00  0.00    -0.007 C 
HETATM   35  C   UNK N   1      25.661  20.930  -8.256  0.00  0.00     0.008 C 
ENDBRANCH  33  34
ENDBRANCH   1  33
TORSDOF 8
ENDMDL
MODEL 2
REMARK VINA RESULT:      -7.0     14.735     16.251
REMARK  8 active torsions:
REMARK  status: ('A' for Active; 'I' for Inactive)
REMARK    1  A    between atoms: N_3  and  C_17 
REMARK       I    between atoms: N_5  and  C_18 
REMARK    2  A    between atoms: N_5  and  C_25 
REMARK       I    between atoms: N_5  and  C_26 
REMARK       I    between atoms: N_6  and  C_26 
REMARK    3  A    between atoms: N_6  and  C_30 
REMARK    4  A    between atoms: N_7  and  C_29 
REMARK    5  A    between atoms: C_11  and  C_18 
REMARK    6  A    between atoms: C_17  and  C_24 
REMARK    7  A    between atoms: C_25  and  C_27 
REMARK    8  A    between atoms: C_27  and  C_29 
ROOT
HETATM    1  N   UNK N   1      24.858  14.995   6.269  0.00  0.00     0.098 N 
HETATM    2  N   UNK N   1      23.804  12.058  11.506  0.00  0.00    -0.365 N 
HETATM    3  C   UNK N   1      22.837  13.956   7.403  0.00  0.00     0.054 C 
HETATM    4  C   UNK N   1      24.295  14.499   7.564  0.00  0.00     0.236 C 
HETATM    5  C   UNK N   1      21.985  14.923   6.624  0.00  0.00     0.027 C 
HETATM    6  C   UNK N   1      22.597  15.133   5.242  0.00  0.00     0.107 C 
HETATM    7  C   UNK N   1      25.182  13.437   8.317  0.00  0.00     0.077 C 
HETATM    8  C   UNK N   1      24.068  14.694   5.058  0.00  0.00     0.287 C 
HETATM    9  C   UNK N   1      22.243  13.581   8.735  0.00  0.00    -0.039 A 
HETATM   10  C   UNK N   1      23.104  13.037   9.651  0.00  0.00     0.005 A 
HETATM   11  C   UNK N   1      24.443  12.911   9.526  0.00  0.00    -0.028 A 
HETATM   12  C   UNK N   1      22.731  12.537  10.843  0.00  0.00     0.043 A 
HETATM   13  C   UNK N   1      20.876  13.630   9.076  0.00  0.00     0.008 A 
HETATM   14  C   UNK N   1      24.880  12.290  10.692  0.00  0.00     0.096 A 
HETATM   15  C   UNK N   1      21.391  12.560  11.238  0.00  0.00     0.030 A 
HETATM   16  C   UNK N   1      20.455  13.129  10.337  0.00  0.00     0.003 A 
HETATM   17  H   UNK N   1      23.811  11.632  12.393  0.00  0.00     0.165 HD
ENDROOT
BRANCH   6  18
HETATM   18  C   UNK N   1      21.629  15.657   4.189  0.00  0.00     0.233 C 
HETATM   19  O   UNK N   1      20.964  14.809   3.604  0.00  0.00    -0.272 OA
HETATM   20  N   UNK N   1      21.433  17.000   3.908  0.00  0.00    -0.270 N 
HETATM   21  C   UNK N   1      20.475  17.406   2.978  0.00  0.00     0.325 C 
HETATM   22  O   UNK N   1      19.826  16.565   2.368  0.00  0.00    -0.247 OA
HETATM   23  N   UNK N   1      20.183  18.712   2.704  0.00  0.00    -0.343 N 
HETATM   24  H   UNK N   1      19.519  18.866   1.994  0.00  0.00     0.164 HD
BRANCH  20  25
HETATM   25  C   UNK N   1      22.247  17.988   4.592  0.00  0.00     0.138 C 
BRANCH  25  26
HETATM   26  C   UNK N   1      23.583  18.194   3.899  0.00  0.00     0.050 C 
BRANCH  26  27
HETATM   27  C   UNK N   1      24.572  18.774   4.900  0.00  0.00     0.273 C 
BRANCH  27  28
HETATM   28  N   UNK N   1      25.327  19.878   4.326  0.00  0.00     0.080 N 
HETATM   29  C   UNK N   1      26.560  19.312   3.812  0.00  0.00     0.309 C 
HETATM   30  C   UNK N   1      24.597  20.381   3.174  0.00  0.00     0.309 C 
ENDBRANCH  27  28
ENDBRANCH  26  27
ENDBRANCH  25  26
ENDBRANCH  20  25
BRANCH  23  31
HETATM   31  C   UNK N   1      20.729  19.890   3.324  0.00  0.00     0.120 C 
HETATM   32  C   UNK N   1      21.014  20.927   2.255  0.00  0.00     0.026 C 
ENDBRANCH  23  31
ENDBRANCH   6  18
BRANCH   1  33
HETATM   33  C   UNK N   1      26.259  14.639   6.046  0.00  0.00     0.299 C 
BRANCH  33  34
HETATM   34  C   UNK N   1      27.029  15.835   5.595  0.00  0.00    -0.007 C 
HETATM   35  C   UNK N   1      27.394  16.760   6.477  0.00  0.00     0.008 C 
ENDBRANCH  33  34
ENDBRANCH   1  33
TORSDOF 8
ENDMDL
MODEL 3
REMARK VINA RESULT:      -6.8     11.313     13.283
REMARK  8 active torsions:
REMARK  status: ('A' for Active; 'I' for Inactive)
REMARK    1  A    between atoms: N_3  and  C_17 
REMARK       I    between atoms: N_5  and  C_18 
REMARK    2  A    between atoms: N_5  and  C_25 
REMARK       I    between atoms: N_5  and  C_26 
REMARK       I    between atoms: N_6  and  C_26 
REMARK    3  A    between atoms: N_6  and  C_30 
REMARK    4  A    between atoms: N_7  and  C_29 
REMARK    5  A    between atoms: C_11  and  C_18 
REMARK    6  A    between atoms: C_17  and  C_24 
REMARK    7  A    between atoms: C_25  and  C_27 
REMARK    8  A    between atoms: C_27  and  C_29 
ROOT
HETATM    1  N   UNK N   1      26.346  19.534   5.774  0.00  0.00     0.098 N 
HETATM    2  N   UNK N   1      30.004  14.868   4.359  0.00  0.00    -0.365 N 
HETATM    3  C   UNK N   1      26.609  17.956   3.802  0.00  0.00     0.054 C 
HETATM    4  C   UNK N   1      26.920  18.232   5.310  0.00  0.00     0.236 C 
HETATM    5  C   UNK N   1      25.154  18.197   3.499  0.00  0.00     0.027 C 
HETATM    6  C   UNK N   1      24.806  19.646   3.824  0.00  0.00     0.107 C 
HETATM    7  C   UNK N   1      28.460  18.043   5.583  0.00  0.00     0.077 C 
HETATM    8  C   UNK N   1      25.800  20.416   4.723  0.00  0.00     0.287 C 
HETATM    9  C   UNK N   1      27.083  16.588   3.388  0.00  0.00    -0.039 A 
HETATM   10  C   UNK N   1      28.246  16.149   3.963  0.00  0.00     0.005 A 
HETATM   11  C   UNK N   1      28.944  16.763   4.943  0.00  0.00    -0.028 A 
HETATM   12  C   UNK N   1      28.879  15.010   3.628  0.00  0.00     0.043 A 
HETATM   13  C   UNK N   1      26.507  15.779   2.387  0.00  0.00     0.008 A 
HETATM   14  C   UNK N   1      30.053  15.958   5.185  0.00  0.00     0.096 A 
HETATM   15  C   UNK N   1      28.355  14.166   2.646  0.00  0.00     0.030 A 
HETATM   16  C   UNK N   1      27.141  14.559   2.027  0.00  0.00     0.003 A 
HETATM   17  H   UNK N   1      30.655  14.132   4.308  0.00  0.00     0.165 HD
ENDROOT
BRANCH   6  18
HETATM   18  C   UNK N   1      23.561  20.176   3.124  0.00  0.00     0.233 C 
HETATM   19  O   UNK N   1      23.688  21.248   2.544  0.00  0.00    -0.272 OA
HETATM   20  N   UNK N   1      22.350  19.503   3.068  0.00  0.00    -0.270 N 
HETATM   21  C   UNK N   1      21.274  20.020   2.345  0.00  0.00     0.325 C 
HETATM   22  O   UNK N   1      21.384  21.104   1.786  0.00  0.00    -0.247 OA
HETATM   23  N   UNK N   1      20.079  19.377   2.193  0.00  0.00    -0.343 N 
HETATM   24  H   UNK N   1      19.384  19.869   1.697  0.00  0.00     0.164 HD
BRANCH  20  25
HETATM   25  C   UNK N   1      22.211  18.246   3.782  0.00  0.00     0.138 C 
BRANCH  25  26
HETATM   26  C   UNK N   1      21.863  18.466   5.245  0.00  0.00     0.050 C 
BRANCH  26  27
HETATM   27  C   UNK N   1      21.988  17.141   5.983  0.00  0.00     0.273 C 
BRANCH  27  28
HETATM   28  N   UNK N   1      20.806  16.865   6.785  0.00  0.00     0.080 N 
HETATM   29  C   UNK N   1      19.864  16.189   5.912  0.00  0.00     0.309 C 
HETATM   30  C   UNK N   1      21.165  15.907   7.817  0.00  0.00     0.309 C 
ENDBRANCH  27  28
ENDBRANCH  26  27
ENDBRANCH  25  26
ENDBRANCH  20  25
BRANCH  23  31
HETATM   31  C   UNK N   1      19.708  18.071   2.669  0.00  0.00     0.120 C 
HETATM   32  C   UNK N   1      19.861  17.069   1.541  0.00  0.00     0.026 C 
ENDBRANCH  23  31
ENDBRANCH   6  18
BRANCH   1  33
HETATM   33  C   UNK N   1      27.226  20.300   6.655  0.00  0.00     0.299 C 
BRANCH  33  34
HETATM   34  C   UNK N   1      26.606  21.616   6.985  0.00  0.00    -0.007 C 
HETATM   35  C   UNK N   1      25.771  21.717   8.014  0.00  0.00     0.008 C 
ENDBRANCH  33  34
ENDBRANCH   1  33
TORSDOF 8
ENDMDL
MODEL 4
REMARK VINA RESULT:      -6.7     11.057     13.609
REMARK  8 active torsions:
REMARK  status: ('A' for Active; 'I' for Inactive)
REMARK    1  A    between atoms: N_3  and  C_17 
REMARK       I    between atoms: N_5  and  C_18 
REMARK    2  A    between atoms: N_5  and  C_25 
REMARK       I    between atoms: N_5  and  C_26 
REMARK       I    between atoms: N_6  and  C_26 
REMARK    3  A    between atoms: N_6  and  C_30 
REMARK    4  A    between atoms: N_7  and  C_29 
REMARK    5  A    between atoms: C_11  and  C_18 
REMARK    6  A    between atoms: C_17  and  C_24 
REMARK    7  A    between atoms: C_25  and  C_27 
REMARK    8  A    between atoms: C_27  and  C_29 
ROOT
HETATM    1  N   UNK N   1      28.143  17.281   7.011  0.00  0.00     0.098 N 
HETATM    2  N   UNK N   1      33.741  15.077   6.033  0.00  0.00    -0.365 N 
HETATM    3  C   UNK N   1      29.928  17.562   5.226  0.00  0.00     0.054 C 
HETATM    4  C   UNK N   1      29.389  16.702   6.417  0.00  0.00     0.236 C 
HETATM    5  C   UNK N   1      28.820  17.905   4.266  0.00  0.00     0.027 C 
HETATM    6  C   UNK N   1      27.741  18.693   5.004  0.00  0.00     0.107 C 
HETATM    7  C   UNK N   1      30.551  16.419   7.443  0.00  0.00     0.077 C 
HETATM    8  C   UNK N   1      27.768  18.632   6.548  0.00  0.00     0.287 C 
HETATM    9  C   UNK N   1      31.105  16.898   4.562  0.00  0.00    -0.039 A 
HETATM   10  C   UNK N   1      31.959  16.214   5.385  0.00  0.00     0.005 A 
HETATM   11  C   UNK N   1      31.794  15.976   6.704  0.00  0.00    -0.028 A 
HETATM   12  C   UNK N   1      33.119  15.661   4.987  0.00  0.00     0.043 A 
HETATM   13  C   UNK N   1      31.464  17.015   3.204  0.00  0.00     0.008 A 
HETATM   14  C   UNK N   1      32.919  15.266   7.110  0.00  0.00     0.096 A 
HETATM   15  C   UNK N   1      33.528  15.742   3.654  0.00  0.00     0.030 A 
HETATM   16  C   UNK N   1      32.674  16.423   2.750  0.00  0.00     0.003 A 
HETATM   17  H   UNK N   1      34.607  14.609   6.022  0.00  0.00     0.165 HD
ENDROOT
BRANCH   6  18
HETATM   18  C   UNK N   1      26.835  19.527   4.107  0.00  0.00     0.233 C 
HETATM   19  O   UNK N   1      27.402  20.319   3.362  0.00  0.00    -0.272 OA
HETATM   20  N   UNK N   1      25.455  19.403   4.058  0.00  0.00    -0.270 N 
HETATM   21  C   UNK N   1      24.698  20.154   3.158  0.00  0.00     0.325 C 
HETATM   22  O   UNK N   1      25.254  20.967   2.428  0.00  0.00    -0.247 OA
HETATM   23  N   UNK N   1      23.346  20.031   3.010  0.00  0.00    -0.343 N 
HETATM   24  H   UNK N   1      22.924  20.651   2.372  0.00  0.00     0.164 HD
BRANCH  20  25
HETATM   25  C   UNK N   1      24.800  18.479   4.966  0.00  0.00     0.138 C 
BRANCH  25  26
HETATM   26  C   UNK N   1      24.977  17.036   4.525  0.00  0.00     0.050 C 
BRANCH  26  27
HETATM   27  C   UNK N   1      24.516  16.119   5.649  0.00  0.00     0.273 C 
BRANCH  27  28
HETATM   28  N   UNK N   1      25.217  14.844   5.618  0.00  0.00     0.080 N 
HETATM   29  C   UNK N   1      26.400  15.044   4.801  0.00  0.00     0.309 C 
HETATM   30  C   UNK N   1      25.692  14.549   6.959  0.00  0.00     0.309 C 
ENDBRANCH  27  28
ENDBRANCH  26  27
ENDBRANCH  25  26
ENDBRANCH  20  25
BRANCH  23  31
HETATM   31  C   UNK N   1      22.463  19.108   3.672  0.00  0.00     0.120 C 
HETATM   32  C   UNK N   1      21.166  19.015   2.892  0.00  0.00     0.026 C 
ENDBRANCH  23  31
ENDBRANCH   6  18
BRANCH   1  33
HETATM   33  C   UNK N   1      28.091  17.226   8.471  0.00  0.00     0.299 C 
BRANCH  33  34
HETATM   34  C   UNK N   1      28.466  18.550   9.050  0.00  0.00    -0.007 C 
HETATM   35  C   UNK N   1      29.523  18.649   9.849  0.00  0.00     0.008 C 
ENDBRANCH  33  34
ENDBRANCH   1  33
TORSDOF 8
ENDMDL
MODEL 5
REMARK VINA RESULT:      -6.7      1.421      2.276
REMARK  8 active torsions:
REMARK  status: ('A' for Active; 'I' for Inactive)
REMARK    1  A    between atoms: N_3  and  C_17 
REMARK       I    between atoms: N_5  and  C_18 
REMARK    2  A    between atoms: N_5  and  C_25 
REMARK       I    between atoms: N_5  and  C_26 
REMARK       I    between atoms: N_6  and  C_26 
REMARK    3  A    between atoms: N_6  and  C_30 
REMARK    4  A    between atoms: N_7  and  C_29 
REMARK    5  A    between atoms: C_11  and  C_18 
REMARK    6  A    between atoms: C_17  and  C_24 
REMARK    7  A    between atoms: C_25  and  C_27 
REMARK    8  A    between atoms: C_27  and  C_29 
ROOT
HETATM    1  N   UNK N   1      26.583  23.982  -7.840  0.00  0.00     0.098 N 
HETATM    2  N   UNK N   1      30.487  19.323  -8.287  0.00  0.00    -0.365 N 
HETATM    3  C   UNK N   1      28.053  22.674  -6.235  0.00  0.00     0.054 C 
HETATM    4  C   UNK N   1      27.752  23.055  -7.722  0.00  0.00     0.236 C 
HETATM    5  C   UNK N   1      28.073  23.899  -5.359  0.00  0.00     0.027 C 
HETATM    6  C   UNK N   1      26.716  24.592  -5.433  0.00  0.00     0.107 C 
HETATM    7  C   UNK N   1      27.664  21.751  -8.602  0.00  0.00     0.077 C 
HETATM    8  C   UNK N   1      25.795  24.197  -6.610  0.00  0.00     0.287 C 
HETATM    9  C   UNK N   1      29.305  21.846  -6.126  0.00  0.00    -0.039 A 
HETATM   10  C   UNK N   1      29.537  20.960  -7.145  0.00  0.00     0.005 A 
HETATM   11  C   UNK N   1      28.825  20.837  -8.285  0.00  0.00    -0.028 A 
HETATM   12  C   UNK N   1      30.538  20.061  -7.158  0.00  0.00     0.043 A 
HETATM   13  C   UNK N   1      30.187  21.817  -5.026  0.00  0.00     0.008 A 
HETATM   14  C   UNK N   1      29.422  19.801  -8.999  0.00  0.00     0.096 A 
HETATM   15  C   UNK N   1      31.445  19.986  -6.098  0.00  0.00     0.030 A 
HETATM   16  C   UNK N   1      31.266  20.892  -5.022  0.00  0.00     0.003 A 
HETATM   17  H   UNK N   1      31.093  18.591  -8.545  0.00  0.00     0.165 HD
ENDROOT
BRANCH   6  18
HETATM   18  C   UNK N   1      26.407  25.516  -4.261  0.00  0.00     0.233 C 
HETATM   19  O   UNK N   1      26.250  24.969  -3.175  0.00  0.00    -0.272 OA
HETATM   20  N   UNK N   1      26.349  26.899  -4.351  0.00  0.00    -0.270 N 
HETATM   21  C   UNK N   1      26.131  27.683  -3.217  0.00  0.00     0.325 C 
HETATM   22  O   UNK N   1      25.945  27.143  -2.133  0.00  0.00    -0.247 OA
HETATM   23  N   UNK N   1      26.131  29.048  -3.223  0.00  0.00    -0.343 N 
HETATM   24  H   UNK N   1      25.920  29.484  -2.366  0.00  0.00     0.164 HD
BRANCH  20  25
HETATM   25  C   UNK N   1      26.513  27.526  -5.650  0.00  0.00     0.138 C 
BRANCH  25  26
HETATM   26  C   UNK N   1      27.970  27.560  -6.078  0.00  0.00     0.050 C 
BRANCH  26  27
HETATM   27  C   UNK N   1      28.086  28.375  -7.359  0.00  0.00     0.273 C 
BRANCH  27  28
HETATM   28  N   UNK N   1      29.211  27.934  -8.170  0.00  0.00     0.080 N 
HETATM   29  C   UNK N   1      29.519  26.580  -7.749  0.00  0.00     0.309 C 
HETATM   30  C   UNK N   1      28.772  27.842  -9.552  0.00  0.00     0.309 C 
ENDBRANCH  27  28
ENDBRANCH  26  27
ENDBRANCH  25  26
ENDBRANCH  20  25
BRANCH  23  31
HETATM   31  C   UNK N   1      26.399  29.929  -4.328  0.00  0.00     0.120 C 
HETATM   32  C   UNK N   1      27.595  30.798  -3.992  0.00  0.00     0.026 C 
ENDBRANCH  23  31
ENDBRANCH   6  18
BRANCH   1  33
HETATM   33  C   UNK N   1      25.686  23.681  -8.955  0.00  0.00     0.299 C 
BRANCH  33  34
HETATM   34  C   UNK N   1      25.795  24.736 -10.004  0.00  0.00    -0.007 C 
HETATM   35  C   UNK N   1      25.533  26.004  -9.701  0.00  0.00     0.008 C 
ENDBRANCH  33  34
ENDBRANCH   1  33
TORSDOF 8
ENDMDL
MODEL 6
REMARK VINA RESULT:      -6.6      1.312      2.306
REMARK  8 active torsions:
REMARK  status: ('A' for Active; 'I' for Inactive)
REMARK    1  A    between atoms: N_3  and  C_17 
REMARK       I    between atoms: N_5  and  C_18 
REMARK    2  A    between atoms: N_5  and  C_25 
REMARK       I    between atoms: N_5  and  C_26 
REMARK       I    between atoms: N_6  and  C_26 
REMARK    3  A    between atoms: N_6  and  C_30 
REMARK    4  A    between atoms: N_7  and  C_29 
REMARK    5  A    between atoms: C_11  and  C_18 
REMARK    6  A    between atoms: C_17  and  C_24 
REMARK    7  A    between atoms: C_25  and  C_27 
REMARK    8  A    between atoms: C_27  and  C_29 
ROOT
HETATM    1  N   UNK N   1      28.208  23.229  -6.896  0.00  0.00     0.098 N 
HETATM    2  N   UNK N   1      32.900  19.463  -5.914  0.00  0.00    -0.365 N 
HETATM    3  C   UNK N   1      29.534  22.456  -4.873  0.00  0.00     0.054 C 
HETATM    4  C   UNK N   1      29.477  22.586  -6.431  0.00  0.00     0.236 C 
HETATM    5  C   UNK N   1      29.154  23.754  -4.210  0.00  0.00     0.027 C 
HETATM    6  C   UNK N   1      27.737  24.136  -4.629  0.00  0.00     0.107 C 
HETATM    7  C   UNK N   1      29.807  21.196  -7.096  0.00  0.00     0.077 C 
HETATM    8  C   UNK N   1      27.161  23.420  -5.872  0.00  0.00     0.287 C 
HETATM    9  C   UNK N   1      30.868  21.925  -4.418  0.00  0.00    -0.039 A 
HETATM   10  C   UNK N   1      31.457  20.992  -5.228  0.00  0.00     0.005 A 
HETATM   11  C   UNK N   1      31.026  20.588  -6.442  0.00  0.00    -0.028 A 
HETATM   12  C   UNK N   1      32.586  20.325  -4.925  0.00  0.00     0.043 A 
HETATM   13  C   UNK N   1      31.499  22.213  -3.190  0.00  0.00     0.008 A 
HETATM   14  C   UNK N   1      31.932  19.621  -6.869  0.00  0.00     0.096 A 
HETATM   15  C   UNK N   1      33.258  20.568  -3.724  0.00  0.00     0.030 A 
HETATM   16  C   UNK N   1      32.704  21.540  -2.852  0.00  0.00     0.003 A 
HETATM   17  H   UNK N   1      33.667  18.849  -5.944  0.00  0.00     0.165 HD
ENDROOT
BRANCH   6  18
HETATM   18  C   UNK N   1      27.036  25.109  -3.689  0.00  0.00     0.233 C 
HETATM   19  O   UNK N   1      26.673  24.647  -2.614  0.00  0.00    -0.272 OA
HETATM   20  N   UNK N   1      26.842  26.455  -3.961  0.00  0.00    -0.270 N 
HETATM   21  C   UNK N   1      26.253  27.300  -3.019  0.00  0.00     0.325 C 
HETATM   22  O   UNK N   1      25.862  26.840  -1.952  0.00  0.00    -0.247 OA
HETATM   23  N   UNK N   1      26.095  28.645  -3.194  0.00  0.00    -0.343 N 
HETATM   24  H   UNK N   1      25.624  29.122  -2.473  0.00  0.00     0.164 HD
BRANCH  20  25
HETATM   25  C   UNK N   1      27.255  26.979  -5.250  0.00  0.00     0.138 C 
BRANCH  25  26
HETATM   26  C   UNK N   1      28.756  26.857  -5.451  0.00  0.00     0.050 C 
BRANCH  26  27
HETATM   27  C   UNK N   1      29.456  27.854  -4.538  0.00  0.00     0.273 C 
BRANCH  27  28
HETATM   28  N   UNK N   1      30.371  27.186  -3.623  0.00  0.00     0.080 N 
HETATM   29  C   UNK N   1      31.452  26.658  -4.434  0.00  0.00     0.309 C 
HETATM   30  C   UNK N   1      30.963  28.189  -2.755  0.00  0.00     0.309 C 
ENDBRANCH  27  28
ENDBRANCH  26  27
ENDBRANCH  25  26
ENDBRANCH  20  25
BRANCH  23  31
HETATM   31  C   UNK N   1      26.531  29.450  -4.303  0.00  0.00     0.120 C 
HETATM   32  C   UNK N   1      26.555  30.906  -3.881  0.00  0.00     0.026 C 
ENDBRANCH  23  31
ENDBRANCH   6  18
BRANCH   1  33
HETATM   33  C   UNK N   1      27.625  22.617  -8.089  0.00  0.00     0.299 C 
BRANCH  33  34
HETATM   34  C   UNK N   1      26.296  22.022  -7.766  0.00  0.00    -0.007 C 
HETATM   35  C   UNK N   1      25.767  21.104  -8.569  0.00  0.00     0.008 C 
ENDBRANCH  33  34
ENDBRANCH   1  33
TORSDOF 8
ENDMDL
MODEL 7
REMARK VINA RESULT:      -6.6     13.732     17.244
REMARK  8 active torsions:
REMARK  status: ('A' for Active; 'I' for Inactive)
REMARK    1  A    between atoms: N_3  and  C_17 
REMARK       I    between atoms: N_5  and  C_18 
REMARK    2  A    between atoms: N_5  and  C_25 
REMARK       I    between atoms: N_5  and  C_26 
REMARK       I    between atoms: N_6  and  C_26 
REMARK    3  A    between atoms: N_6  and  C_30 
REMARK    4  A    between atoms: N_7  and  C_29 
REMARK    5  A    between atoms: C_11  and  C_18 
REMARK    6  A    between atoms: C_17  and  C_24 
REMARK    7  A    between atoms: C_25  and  C_27 
REMARK    8  A    between atoms: C_27  and  C_29 
ROOT
HETATM    1  N   UNK N   1      30.243  17.198   7.472  0.00  0.00     0.098 N 
HETATM    2  N   UNK N   1      29.438  13.615   2.607  0.00  0.00    -0.365 N 
HETATM    3  C   UNK N   1      31.634  15.480   6.222  0.00  0.00     0.054 C 
HETATM    4  C   UNK N   1      30.396  16.435   6.193  0.00  0.00     0.236 C 
HETATM    5  C   UNK N   1      32.857  16.199   6.727  0.00  0.00     0.027 C 
HETATM    6  C   UNK N   1      32.590  16.715   8.138  0.00  0.00     0.107 C 
HETATM    7  C   UNK N   1      29.116  15.640   5.731  0.00  0.00     0.077 C 
HETATM    8  C   UNK N   1      31.112  16.777   8.589  0.00  0.00     0.287 C 
HETATM    9  C   UNK N   1      31.844  14.818   4.886  0.00  0.00    -0.039 A 
HETATM   10  C   UNK N   1      30.713  14.490   4.187  0.00  0.00     0.005 A 
HETATM   11  C   UNK N   1      29.442  14.802   4.516  0.00  0.00    -0.028 A 
HETATM   12  C   UNK N   1      30.705  13.792   3.037  0.00  0.00     0.043 A 
HETATM   13  C   UNK N   1      33.082  14.406   4.351  0.00  0.00     0.008 A 
HETATM   14  C   UNK N   1      28.641  14.244   3.524  0.00  0.00     0.096 A 
HETATM   15  C   UNK N   1      31.900  13.358   2.457  0.00  0.00     0.030 A 
HETATM   16  C   UNK N   1      33.106  13.685   3.127  0.00  0.00     0.003 A 
HETATM   17  H   UNK N   1      29.148  13.133   1.800  0.00  0.00     0.165 HD
ENDROOT
BRANCH   6  18
HETATM   18  C   UNK N   1      33.841  17.003   8.959  0.00  0.00     0.233 C 
HETATM   19  O   UNK N   1      34.360  18.099   8.776  0.00  0.00    -0.272 OA
HETATM   20  N   UNK N   1      34.370  16.140   9.906  0.00  0.00    -0.270 N 
HETATM   21  C   UNK N   1      35.479  16.505  10.670  0.00  0.00     0.325 C 
HETATM   22  O   UNK N   1      36.021  17.587  10.474  0.00  0.00    -0.247 OA
HETATM   23  N   UNK N   1      36.008  15.733  11.665  0.00  0.00    -0.343 N 
HETATM   24  H   UNK N   1      36.819  16.084  12.099  0.00  0.00     0.164 HD
BRANCH  20  25
HETATM   25  C   UNK N   1      33.756  14.837  10.090  0.00  0.00     0.138 C 
BRANCH  25  26
HETATM   26  C   UNK N   1      34.320  13.808   9.126  0.00  0.00     0.050 C 
BRANCH  26  27
HETATM   27  C   UNK N   1      33.180  12.941   8.612  0.00  0.00     0.273 C 
BRANCH  27  28
HETATM   28  N   UNK N   1      33.492  12.368   7.310  0.00  0.00     0.080 N 
HETATM   29  C   UNK N   1      34.886  12.672   7.049  0.00  0.00     0.309 C 
HETATM   30  C   UNK N   1      33.402  10.921   7.414  0.00  0.00     0.309 C 
ENDBRANCH  27  28
ENDBRANCH  26  27
ENDBRANCH  25  26
ENDBRANCH  20  25
BRANCH  23  31
HETATM   31  C   UNK N   1      35.527  14.469  12.154  0.00  0.00     0.120 C 
HETATM   32  C   UNK N   1      36.700  13.524  12.328  0.00  0.00     0.026 C 
ENDBRANCH  23  31
ENDBRANCH   6  18
BRANCH   1  33
HETATM   33  C   UNK N   1      28.863  17.321   7.939  0.00  0.00     0.299 C 
BRANCH  33  34
HETATM   34  C   UNK N   1      28.425  18.746   7.884  0.00  0.00    -0.007 C 
HETATM   35  C   UNK N   1      27.874  19.229   6.775  0.00  0.00     0.008 C 
ENDBRANCH  33  34
ENDBRANCH   1  33
TORSDOF 8
ENDMDL
MODEL 8
REMARK VINA RESULT:      -6.6     14.040     18.351
REMARK  8 active torsions:
REMARK  status: ('A' for Active; 'I' for Inactive)
REMARK    1  A    between atoms: N_3  and  C_17 
REMARK       I    between atoms: N_5  and  C_18 
REMARK    2  A    between atoms: N_5  and  C_25 
REMARK       I    between atoms: N_5  and  C_26 
REMARK       I    between atoms: N_6  and  C_26 
REMARK    3  A    between atoms: N_6  and  C_30 
REMARK    4  A    between atoms: N_7  and  C_29 
REMARK    5  A    between atoms: C_11  and  C_18 
REMARK    6  A    between atoms: C_17  and  C_24 
REMARK    7  A    between atoms: C_25  and  C_27 
REMARK    8  A    between atoms: C_27  and  C_29 
ROOT
HETATM    1  N   UNK N   1      32.652  14.795   6.141  0.00  0.00     0.098 N 
HETATM    2  N   UNK N   1      27.269  17.655   6.162  0.00  0.00    -0.365 N 
HETATM    3  C   UNK N   1      31.588  16.672   7.482  0.00  0.00     0.054 C 
HETATM    4  C   UNK N   1      31.364  15.458   6.521  0.00  0.00     0.236 C 
HETATM    5  C   UNK N   1      32.514  16.301   8.610  0.00  0.00     0.027 C 
HETATM    6  C   UNK N   1      33.858  15.864   8.035  0.00  0.00     0.107 C 
HETATM    7  C   UNK N   1      30.452  15.892   5.312  0.00  0.00     0.077 C 
HETATM    8  C   UNK N   1      33.888  15.502   6.533  0.00  0.00     0.287 C 
HETATM    9  C   UNK N   1      30.277  17.244   7.953  0.00  0.00    -0.039 A 
HETATM   10  C   UNK N   1      29.253  17.240   7.044  0.00  0.00     0.005 A 
HETATM   11  C   UNK N   1      29.262  16.673   5.819  0.00  0.00    -0.028 A 
HETATM   12  C   UNK N   1      28.053  17.813   7.248  0.00  0.00     0.043 A 
HETATM   13  C   UNK N   1      30.048  17.882   9.189  0.00  0.00     0.008 A 
HETATM   14  C   UNK N   1      28.014  16.941   5.263  0.00  0.00     0.096 A 
HETATM   15  C   UNK N   1      27.766  18.459   8.454  0.00  0.00     0.030 A 
HETATM   16  C   UNK N   1      28.784  18.479   9.441  0.00  0.00     0.003 A 
HETATM   17  H   UNK N   1      26.349  17.983   6.041  0.00  0.00     0.165 HD
ENDROOT
BRANCH   6  18
HETATM   18  C   UNK N   1      35.026  15.945   9.010  0.00  0.00     0.233 C 
HETATM   19  O   UNK N   1      35.286  17.063   9.442  0.00  0.00    -0.272 OA
HETATM   20  N   UNK N   1      35.748  14.849   9.457  0.00  0.00    -0.270 N 
HETATM   21  C   UNK N   1      36.760  14.995  10.407  0.00  0.00     0.325 C 
HETATM   22  O   UNK N   1      37.045  16.112  10.823  0.00  0.00    -0.247 OA
HETATM   23  N   UNK N   1      37.463  13.952  10.939  0.00  0.00    -0.343 N 
HETATM   24  H   UNK N   1      38.181  14.192  11.568  0.00  0.00     0.164 HD
BRANCH  20  25
HETATM   25  C   UNK N   1      35.443  13.538   8.915  0.00  0.00     0.138 C 
BRANCH  25  26
HETATM   26  C   UNK N   1      34.207  12.936   9.562  0.00  0.00     0.050 C 
BRANCH  26  27
HETATM   27  C   UNK N   1      33.467  12.102   8.525  0.00  0.00     0.273 C 
BRANCH  27  28
HETATM   28  N   UNK N   1      33.073  10.809   9.065  0.00  0.00     0.080 N 
HETATM   29  C   UNK N   1      33.547   9.809   8.126  0.00  0.00     0.309 C 
HETATM   30  C   UNK N   1      33.804  10.587  10.301  0.00  0.00     0.309 C 
ENDBRANCH  27  28
ENDBRANCH  26  27
ENDBRANCH  25  26
ENDBRANCH  20  25
BRANCH  23  31
HETATM   31  C   UNK N   1      37.283  12.547  10.694  0.00  0.00     0.120 C 
HETATM   32  C   UNK N   1      37.172  11.820  12.020  0.00  0.00     0.026 C 
ENDBRANCH  23  31
ENDBRANCH   6  18
BRANCH   1  33
HETATM   33  C   UNK N   1      32.733  14.399   4.736  0.00  0.00     0.299 C 
BRANCH  33  34
HETATM   34  C   UNK N   1      33.718  15.257   4.015  0.00  0.00    -0.007 C 
HETATM   35  C   UNK N   1      33.336  15.957   2.952  0.00  0.00     0.008 C 
ENDBRANCH  33  34
ENDBRANCH   1  33
TORSDOF 8
ENDMDL
MODEL 9
REMARK VINA RESULT:      -6.5     11.752     14.993
REMARK  8 active torsions:
REMARK  status: ('A' for Active; 'I' for Inactive)
REMARK    1  A    between atoms: N_3  and  C_17 
REMARK       I    between atoms: N_5  and  C_18 
REMARK    2  A    between atoms: N_5  and  C_25 
REMARK       I    between atoms: N_5  and  C_26 
REMARK       I    between atoms: N_6  and  C_26 
REMARK    3  A    between atoms: N_6  and  C_30 
REMARK    4  A    between atoms: N_7  and  C_29 
REMARK    5  A    between atoms: C_11  and  C_18 
REMARK    6  A    between atoms: C_17  and  C_24 
REMARK    7  A    between atoms: C_25  and  C_27 
REMARK    8  A    between atoms: C_27  and  C_29 
ROOT
HETATM    1  N   UNK N   1      26.852  15.487   5.853  0.00  0.00     0.098 N 
HETATM    2  N   UNK N   1      22.300  19.014   3.853  0.00  0.00    -0.365 N 
HETATM    3  C   UNK N   1      26.611  17.375   4.171  0.00  0.00     0.054 C 
HETATM    4  C   UNK N   1      25.994  16.626   5.399  0.00  0.00     0.236 C 
HETATM    5  C   UNK N   1      28.067  17.679   4.403  0.00  0.00     0.027 C 
HETATM    6  C   UNK N   1      28.825  16.373   4.625  0.00  0.00     0.107 C 
HETATM    7  C   UNK N   1      24.492  16.256   5.101  0.00  0.00     0.077 C 
HETATM    8  C   UNK N   1      27.978  15.127   4.968  0.00  0.00     0.287 C 
HETATM    9  C   UNK N   1      25.800  18.591   3.810  0.00  0.00    -0.039 A 
HETATM   10  C   UNK N   1      24.444  18.484   3.965  0.00  0.00     0.005 A 
HETATM   11  C   UNK N   1      23.773  17.450   4.515  0.00  0.00    -0.028 A 
HETATM   12  C   UNK N   1      23.558  19.422   3.584  0.00  0.00     0.043 A 
HETATM   13  C   UNK N   1      26.296  19.773   3.222  0.00  0.00     0.008 A 
HETATM   14  C   UNK N   1      22.424  17.783   4.438  0.00  0.00     0.096 A 
HETATM   15  C   UNK N   1      23.989  20.614   2.998  0.00  0.00     0.030 A 
HETATM   16  C   UNK N   1      25.386  20.790   2.828  0.00  0.00     0.003 A 
HETATM   17  H   UNK N   1      21.466  19.502   3.669  0.00  0.00     0.165 HD
ENDROOT
BRANCH   6  18
HETATM   18  C   UNK N   1      30.325  16.455   4.372  0.00  0.00     0.233 C 
HETATM   19  O   UNK N   1      30.667  16.524   3.196  0.00  0.00    -0.272 OA
HETATM   20  N   UNK N   1      31.284  16.506   5.372  0.00  0.00    -0.270 N 
HETATM   21  C   UNK N   1      32.637  16.654   5.062  0.00  0.00     0.325 C 
HETATM   22  O   UNK N   1      32.990  16.696   3.889  0.00  0.00    -0.247 OA
HETATM   23  N   UNK N   1      33.624  16.780   5.997  0.00  0.00    -0.343 N 
HETATM   24  H   UNK N   1      34.544  16.832   5.649  0.00  0.00     0.164 HD
BRANCH  20  25
HETATM   25  C   UNK N   1      30.862  16.398   6.757  0.00  0.00     0.138 C 
BRANCH  25  26
HETATM   26  C   UNK N   1      30.212  17.680   7.249  0.00  0.00     0.050 C 
BRANCH  26  27
HETATM   27  C   UNK N   1      30.002  17.578   8.753  0.00  0.00     0.273 C 
BRANCH  27  28
HETATM   28  N   UNK N   1      28.718  18.135   9.150  0.00  0.00     0.080 N 
HETATM   29  C   UNK N   1      28.279  18.981   8.056  0.00  0.00     0.309 C 
HETATM   30  C   UNK N   1      27.755  17.051   9.239  0.00  0.00     0.309 C 
ENDBRANCH  27  28
ENDBRANCH  26  27
ENDBRANCH  25  26
ENDBRANCH  20  25
BRANCH  23  31
HETATM   31  C   UNK N   1      33.486  16.844   7.427  0.00  0.00     0.120 C 
HETATM   32  C   UNK N   1      33.973  18.195   7.913  0.00  0.00     0.026 C 
ENDBRANCH  23  31
ENDBRANCH   6  18
BRANCH   1  33
HETATM   33  C   UNK N   1      26.109  14.284   6.223  0.00  0.00     0.299 C 
BRANCH  33  34
HETATM   34  C   UNK N   1      25.634  14.384   7.634  0.00  0.00    -0.007 C 
HETATM   35  C   UNK N   1      24.905  13.405   8.160  0.00  0.00     0.008 C 
ENDBRANCH  33  34
ENDBRANCH   1  33
TORSDOF 8
ENDMDL
