REMARK  4 active torsions:
REMARK  status: ('A' for Active; 'I' for Inactive)
REMARK    1  A    between atoms: C_9  and  O_3 
REMARK    2  A    between atoms: O_4  and  C_13 
REMARK    3  A    between atoms: C_10  and  N_7 
REMARK    4  A    between atoms: C_12  and  C_13 
ROOT
HETATM    1  I   UNK N   1       6.274   3.208  -0.115  0.00  0.00    -0.037 I 
HETATM    2  O   UNK N   1       0.831   0.483   0.202  0.00  0.00    -0.246 OA
HETATM    3  O   UNK N   1       3.227   4.235  -0.196  0.00  0.00    -0.267 OA
HETATM    4  N   UNK N   1       3.093   0.273   0.212  0.00  0.00    -0.281 N 
HETATM    5  N   UNK N   1       1.990   2.380  -0.000  0.00  0.00    -0.274 N 
HETATM    6  C   UNK N   1       1.923   1.018   0.144  0.00  0.00     0.331 A 
HETATM    7  C   UNK N   1       4.294   0.908   0.129  0.00  0.00     0.122 A 
HETATM    8  C   UNK N   1       4.374   2.288  -0.013  0.00  0.00     0.090 A 
HETATM    9  C   UNK N   1       3.194   3.024  -0.076  0.00  0.00     0.267 A 
HETATM   10  H   UNK N   1       1.157   2.903  -0.050  0.00  0.00     0.173 HD
ENDROOT
BRANCH   4  11
HETATM   11  C   UNK N   1       3.153  -1.186   0.387  0.00  0.00     0.235 C 
HETATM   12  O   UNK N   1       3.672  -1.807  -0.755  0.00  0.00    -0.356 OA
HETATM   13  C   UNK N   1       3.510  -3.175  -0.479  0.00  0.00     0.176 C 
HETATM   14  C   UNK N   1       2.226  -3.331   0.330  0.00  0.00     0.153 C 
HETATM   15  C   UNK N   1       1.882  -1.921   0.741  0.00  0.00     0.088 C 
BRANCH  13  16
HETATM   16  C   UNK N   1       4.707  -3.684   0.320  0.00  0.00     0.198 C 
BRANCH  16  17
HETATM   17  O   UNK N   1       5.893  -3.359  -0.341  0.00  0.00    -0.398 OA
HETATM   18  H   UNK N   1       6.500  -3.960  -0.801  0.00  0.00     0.209 HD
ENDBRANCH  16  17
ENDBRANCH  13  16
BRANCH  14  19
HETATM   19  O   UNK N   1       1.208  -3.819  -0.488  0.00  0.00    -0.393 OA
HETATM   20  H   UNK N   1       0.560  -3.375  -1.057  0.00  0.00     0.210 HD
ENDBRANCH  14  19
ENDBRANCH   4  11
TORSDOF 4
