MODEL 1
REMARK VINA RESULT:      -5.4      0.000      0.000
REMARK  4 active torsions:
REMARK  status: ('A' for Active; 'I' for Inactive)
REMARK    1  A    between atoms: C_9  and  O_3 
REMARK    2  A    between atoms: O_4  and  C_13 
REMARK    3  A    between atoms: C_10  and  N_7 
REMARK    4  A    between atoms: C_12  and  C_13 
ROOT
HETATM    1  I   UNK N   1      34.153  14.919   4.939  0.00  0.00    -0.037 I 
HETATM    2  O   UNK N   1      35.163  17.529  10.354  0.00  0.00    -0.246 OA
HETATM    3  O   UNK N   1      33.980  17.927   6.062  0.00  0.00    -0.267 OA
HETATM    4  N   UNK N   1      35.138  15.630   9.106  0.00  0.00    -0.281 N 
HETATM    5  N   UNK N   1      34.566  17.771   8.217  0.00  0.00    -0.274 N 
HETATM    6  C   UNK N   1      34.968  16.998   9.275  0.00  0.00     0.331 A 
HETATM    7  C   UNK N   1      34.896  15.074   7.888  0.00  0.00     0.122 A 
HETATM    8  C   UNK N   1      34.491  15.848   6.807  0.00  0.00     0.090 A 
HETATM    9  C   UNK N   1      34.329  17.219   6.988  0.00  0.00     0.267 A 
HETATM   10  H   UNK N   1      34.445  18.740   8.343  0.00  0.00     0.173 HD
ENDROOT
BRANCH   4  11
HETATM   11  C   UNK N   1      35.585  14.701  10.155  0.00  0.00     0.235 C 
HETATM   12  O   UNK N   1      36.064  13.510   9.598  0.00  0.00    -0.356 OA
HETATM   13  C   UNK N   1      36.291  12.698  10.722  0.00  0.00     0.176 C 
HETATM   14  C   UNK N   1      35.224  13.038  11.757  0.00  0.00     0.153 C 
HETATM   15  C   UNK N   1      34.606  14.312  11.236  0.00  0.00     0.088 C 
BRANCH  13  16
HETATM   16  C   UNK N   1      37.684  12.974  11.283  0.00  0.00     0.198 C 
BRANCH  16  17
HETATM   17  O   UNK N   1      37.619  13.107  12.671  0.00  0.00    -0.398 OA
HETATM   18  H   UNK N   1      38.343  13.012  13.311  0.00  0.00     0.209 HD
ENDBRANCH  16  17
ENDBRANCH  13  16
BRANCH  14  19
HETATM   19  O   UNK N   1      34.248  12.043  11.775  0.00  0.00    -0.393 OA
HETATM   20  H   UNK N   1      33.359  12.009  12.161  0.00  0.00     0.210 HD
ENDBRANCH  14  19
ENDBRANCH   4  11
TORSDOF 4
ENDMDL
MODEL 2
REMARK VINA RESULT:      -5.4      2.585      3.320
REMARK  4 active torsions:
REMARK  status: ('A' for Active; 'I' for Inactive)
REMARK    1  A    between atoms: C_9  and  O_3 
REMARK    2  A    between atoms: O_4  and  C_13 
REMARK    3  A    between atoms: C_10  and  N_7 
REMARK    4  A    between atoms: C_12  and  C_13 
ROOT
HETATM    1  I   UNK N   1      29.777  14.650   4.826  0.00  0.00    -0.037 I 
HETATM    2  O   UNK N   1      34.493  18.070   6.617  0.00  0.00    -0.246 OA
HETATM    3  O   UNK N   1      31.504  17.001   3.471  0.00  0.00    -0.267 OA
HETATM    4  N   UNK N   1      33.018  16.415   7.111  0.00  0.00    -0.281 N 
HETATM    5  N   UNK N   1      33.017  17.568   5.020  0.00  0.00    -0.274 N 
HETATM    6  C   UNK N   1      33.554  17.379   6.267  0.00  0.00     0.331 A 
HETATM    7  C   UNK N   1      31.958  15.673   6.687  0.00  0.00     0.122 A 
HETATM    8  C   UNK N   1      31.408  15.853   5.424  0.00  0.00     0.090 A 
HETATM    9  C   UNK N   1      31.958  16.819   4.586  0.00  0.00     0.267 A 
HETATM   10  H   UNK N   1      33.400  18.254   4.427  0.00  0.00     0.173 HD
ENDROOT
BRANCH   4  11
HETATM   11  C   UNK N   1      33.517  16.104   8.459  0.00  0.00     0.235 C 
HETATM   12  O   UNK N   1      34.810  15.571   8.403  0.00  0.00    -0.356 OA
HETATM   13  C   UNK N   1      35.059  15.192   9.733  0.00  0.00     0.176 C 
HETATM   14  C   UNK N   1      33.737  14.723  10.332  0.00  0.00     0.153 C 
HETATM   15  C   UNK N   1      32.704  15.178   9.331  0.00  0.00     0.088 C 
BRANCH  13  16
HETATM   16  C   UNK N   1      35.603  16.385  10.515  0.00  0.00     0.198 C 
BRANCH  16  17
HETATM   17  O   UNK N   1      36.926  16.145  10.890  0.00  0.00    -0.398 OA
HETATM   18  H   UNK N   1      37.248  15.778  11.728  0.00  0.00     0.209 HD
ENDBRANCH  16  17
ENDBRANCH  13  16
BRANCH  14  19
HETATM   19  O   UNK N   1      33.715  13.330  10.395  0.00  0.00    -0.393 OA
HETATM   20  H   UNK N   1      33.260  12.661   9.860  0.00  0.00     0.210 HD
ENDBRANCH  14  19
ENDBRANCH   4  11
TORSDOF 4
ENDMDL
MODEL 3
REMARK VINA RESULT:      -5.4     13.415     15.895
REMARK  4 active torsions:
REMARK  status: ('A' for Active; 'I' for Inactive)
REMARK    1  A    between atoms: C_9  and  O_3 
REMARK    2  A    between atoms: O_4  and  C_13 
REMARK    3  A    between atoms: C_10  and  N_7 
REMARK    4  A    between atoms: C_12  and  C_13 
ROOT
HETATM    1  I   UNK N   1      20.324  15.727   8.677  0.00  0.00    -0.037 I 
HETATM    2  O   UNK N   1      23.462  15.649   3.452  0.00  0.00    -0.246 OA
HETATM    3  O   UNK N   1      22.744  13.950   7.523  0.00  0.00    -0.267 OA
HETATM    4  N   UNK N   1      21.813  16.597   4.694  0.00  0.00    -0.281 N 
HETATM    5  N   UNK N   1      23.135  14.771   5.478  0.00  0.00    -0.274 N 
HETATM    6  C   UNK N   1      22.832  15.676   4.494  0.00  0.00     0.331 A 
HETATM    7  C   UNK N   1      21.123  16.585   5.867  0.00  0.00     0.122 A 
HETATM    8  C   UNK N   1      21.424  15.675   6.873  0.00  0.00     0.090 A 
HETATM    9  C   UNK N   1      22.451  14.759   6.662  0.00  0.00     0.267 A 
HETATM   10  H   UNK N   1      23.858  14.118   5.330  0.00  0.00     0.173 HD
ENDROOT
BRANCH   4  11
HETATM   11  C   UNK N   1      21.409  17.629   3.726  0.00  0.00     0.235 C 
HETATM   12  O   UNK N   1      21.041  18.811   4.379  0.00  0.00    -0.356 OA
HETATM   13  C   UNK N   1      20.543  19.612   3.337  0.00  0.00     0.176 C 
HETATM   14  C   UNK N   1      19.856  18.688   2.336  0.00  0.00     0.153 C 
HETATM   15  C   UNK N   1      20.300  17.307   2.753  0.00  0.00     0.088 C 
BRANCH  13  16
HETATM   16  C   UNK N   1      21.693  20.360   2.668  0.00  0.00     0.198 C 
BRANCH  16  17
HETATM   17  O   UNK N   1      21.437  21.732   2.677  0.00  0.00    -0.398 OA
HETATM   18  H   UNK N   1      21.397  22.324   3.445  0.00  0.00     0.209 HD
ENDBRANCH  16  17
ENDBRANCH  13  16
BRANCH  14  19
HETATM   19  O   UNK N   1      18.473  18.776   2.483  0.00  0.00    -0.393 OA
HETATM   20  H   UNK N   1      17.750  18.187   2.215  0.00  0.00     0.210 HD
ENDBRANCH  14  19
ENDBRANCH   4  11
TORSDOF 4
ENDMDL
MODEL 4
REMARK VINA RESULT:      -5.3      4.038      5.373
REMARK  4 active torsions:
REMARK  status: ('A' for Active; 'I' for Inactive)
REMARK    1  A    between atoms: C_9  and  O_3 
REMARK    2  A    between atoms: O_4  and  C_13 
REMARK    3  A    between atoms: C_10  and  N_7 
REMARK    4  A    between atoms: C_12  and  C_13 
ROOT
HETATM    1  I   UNK N   1      35.628  12.613   3.945  0.00  0.00    -0.037 I 
HETATM    2  O   UNK N   1      32.304  17.721   3.825  0.00  0.00    -0.246 OA
HETATM    3  O   UNK N   1      34.005  14.197   1.664  0.00  0.00    -0.267 OA
HETATM    4  N   UNK N   1      33.565  16.272   5.038  0.00  0.00    -0.281 N 
HETATM    5  N   UNK N   1      33.133  15.975   2.709  0.00  0.00    -0.274 N 
HETATM    6  C   UNK N   1      32.973  16.705   3.859  0.00  0.00     0.331 A 
HETATM    7  C   UNK N   1      34.294  15.123   5.037  0.00  0.00     0.122 A 
HETATM    8  C   UNK N   1      34.466  14.378   3.877  0.00  0.00     0.090 A 
HETATM    9  C   UNK N   1      33.871  14.824   2.700  0.00  0.00     0.267 A 
HETATM   10  H   UNK N   1      32.709  16.285   1.876  0.00  0.00     0.173 HD
ENDROOT
BRANCH   4  11
HETATM   11  C   UNK N   1      33.486  16.976   6.327  0.00  0.00     0.235 C 
HETATM   12  O   UNK N   1      34.671  16.823   7.056  0.00  0.00    -0.356 OA
HETATM   13  C   UNK N   1      34.364  17.409   8.296  0.00  0.00     0.176 C 
HETATM   14  C   UNK N   1      32.891  17.132   8.582  0.00  0.00     0.153 C 
HETATM   15  C   UNK N   1      32.352  16.634   7.265  0.00  0.00     0.088 C 
BRANCH  13  16
HETATM   16  C   UNK N   1      34.619  18.913   8.231  0.00  0.00     0.198 C 
BRANCH  16  17
HETATM   17  O   UNK N   1      35.705  19.246   9.043  0.00  0.00    -0.398 OA
HETATM   18  H   UNK N   1      36.573  18.814   9.080  0.00  0.00     0.209 HD
ENDBRANCH  16  17
ENDBRANCH  13  16
BRANCH  14  19
HETATM   19  O   UNK N   1      32.777  16.112   9.526  0.00  0.00    -0.393 OA
HETATM   20  H   UNK N   1      32.918  15.154   9.471  0.00  0.00     0.210 HD
ENDBRANCH  14  19
ENDBRANCH   4  11
TORSDOF 4
ENDMDL
MODEL 5
REMARK VINA RESULT:      -5.3      2.861      5.478
REMARK  4 active torsions:
REMARK  status: ('A' for Active; 'I' for Inactive)
REMARK    1  A    between atoms: C_9  and  O_3 
REMARK    2  A    between atoms: O_4  and  C_13 
REMARK    3  A    between atoms: C_10  and  N_7 
REMARK    4  A    between atoms: C_12  and  C_13 
ROOT
HETATM    1  I   UNK N   1      35.024  11.536  12.763  0.00  0.00    -0.037 I 
HETATM    2  O   UNK N   1      35.975  17.123  10.521  0.00  0.00    -0.246 OA
HETATM    3  O   UNK N   1      36.397  14.217  13.891  0.00  0.00    -0.267 OA
HETATM    4  N   UNK N   1      35.133  15.038  10.202  0.00  0.00    -0.281 N 
HETATM    5  N   UNK N   1      36.207  15.703  12.228  0.00  0.00    -0.274 N 
HETATM    6  C   UNK N   1      35.777  16.006  10.962  0.00  0.00     0.331 A 
HETATM    7  C   UNK N   1      34.943  13.796  10.725  0.00  0.00     0.122 A 
HETATM    8  C   UNK N   1      35.371  13.479  12.008  0.00  0.00     0.090 A 
HETATM    9  C   UNK N   1      36.012  14.459  12.762  0.00  0.00     0.267 A 
HETATM   10  H   UNK N   1      36.665  16.393  12.761  0.00  0.00     0.173 HD
ENDROOT
BRANCH   4  11
HETATM   11  C   UNK N   1      34.607  15.246   8.844  0.00  0.00     0.235 C 
HETATM   12  O   UNK N   1      33.662  16.278   8.825  0.00  0.00    -0.356 OA
HETATM   13  C   UNK N   1      33.161  16.231   7.513  0.00  0.00     0.176 C 
HETATM   14  C   UNK N   1      33.153  14.769   7.077  0.00  0.00     0.153 C 
HETATM   15  C   UNK N   1      33.983  14.072   8.127  0.00  0.00     0.088 C 
BRANCH  13  16
HETATM   16  C   UNK N   1      34.054  17.056   6.590  0.00  0.00     0.198 C 
BRANCH  16  17
HETATM   17  O   UNK N   1      34.441  18.234   7.231  0.00  0.00    -0.398 OA
HETATM   18  H   UNK N   1      34.751  18.339   8.144  0.00  0.00     0.209 HD
ENDBRANCH  16  17
ENDBRANCH  13  16
BRANCH  14  19
HETATM   19  O   UNK N   1      31.853  14.267   7.130  0.00  0.00    -0.393 OA
HETATM   20  H   UNK N   1      31.172  14.294   7.819  0.00  0.00     0.210 HD
ENDBRANCH  14  19
ENDBRANCH   4  11
TORSDOF 4
ENDMDL
MODEL 6
REMARK VINA RESULT:      -5.3     13.591     14.544
REMARK  4 active torsions:
REMARK  status: ('A' for Active; 'I' for Inactive)
REMARK    1  A    between atoms: C_9  and  O_3 
REMARK    2  A    between atoms: O_4  and  C_13 
REMARK    3  A    between atoms: C_10  and  N_7 
REMARK    4  A    between atoms: C_12  and  C_13 
ROOT
HETATM    1  I   UNK N   1      26.334  19.314   4.096  0.00  0.00    -0.037 I 
HETATM    2  O   UNK N   1      20.288  19.614   3.383  0.00  0.00    -0.246 OA
HETATM    3  O   UNK N   1      24.363  21.052   2.241  0.00  0.00    -0.267 OA
HETATM    4  N   UNK N   1      22.057  18.668   4.450  0.00  0.00    -0.281 N 
HETATM    5  N   UNK N   1      22.305  20.360   2.783  0.00  0.00    -0.274 N 
HETATM    6  C   UNK N   1      21.494  19.550   3.536  0.00  0.00     0.331 A 
HETATM    7  C   UNK N   1      23.411  18.616   4.580  0.00  0.00     0.122 A 
HETATM    8  C   UNK N   1      24.242  19.435   3.825  0.00  0.00     0.090 A 
HETATM    9  C   UNK N   1      23.665  20.318   2.916  0.00  0.00     0.267 A 
HETATM   10  H   UNK N   1      21.900  20.982   2.136  0.00  0.00     0.173 HD
ENDROOT
BRANCH   4  11
HETATM   11  C   UNK N   1      21.296  17.766   5.328  0.00  0.00     0.235 C 
HETATM   12  O   UNK N   1      21.863  17.715   6.606  0.00  0.00    -0.356 OA
HETATM   13  C   UNK N   1      21.122  16.708   7.247  0.00  0.00     0.176 C 
HETATM   14  C   UNK N   1      20.764  15.662   6.196  0.00  0.00     0.153 C 
HETATM   15  C   UNK N   1      21.090  16.336   4.886  0.00  0.00     0.088 C 
BRANCH  13  16
HETATM   16  C   UNK N   1      19.855  17.308   7.852  0.00  0.00     0.198 C 
BRANCH  16  17
HETATM   17  O   UNK N   1      20.171  18.468   8.562  0.00  0.00    -0.398 OA
HETATM   18  H   UNK N   1      20.890  18.596   9.201  0.00  0.00     0.209 HD
ENDBRANCH  16  17
ENDBRANCH  13  16
BRANCH  14  19
HETATM   19  O   UNK N   1      21.586  14.545   6.340  0.00  0.00    -0.393 OA
HETATM   20  H   UNK N   1      22.261  14.154   5.764  0.00  0.00     0.210 HD
ENDBRANCH  14  19
ENDBRANCH   4  11
TORSDOF 4
ENDMDL
MODEL 7
REMARK VINA RESULT:      -5.3     15.466     19.333
REMARK  4 active torsions:
REMARK  status: ('A' for Active; 'I' for Inactive)
REMARK    1  A    between atoms: C_9  and  O_3 
REMARK    2  A    between atoms: O_4  and  C_13 
REMARK    3  A    between atoms: C_10  and  N_7 
REMARK    4  A    between atoms: C_12  and  C_13 
ROOT
HETATM    1  I   UNK N   1      32.268  22.815  -4.575  0.00  0.00    -0.037 I 
HETATM    2  O   UNK N   1      26.550  23.957  -2.801  0.00  0.00    -0.246 OA
HETATM    3  O   UNK N   1      30.782  22.999  -1.729  0.00  0.00    -0.267 OA
HETATM    4  N   UNK N   1      28.022  23.716  -4.514  0.00  0.00    -0.281 N 
HETATM    5  N   UNK N   1      28.652  23.480  -2.223  0.00  0.00    -0.274 N 
HETATM    6  C   UNK N   1      27.688  23.726  -3.166  0.00  0.00     0.331 A 
HETATM    7  C   UNK N   1      29.309  23.467  -4.880  0.00  0.00     0.122 A 
HETATM    8  C   UNK N   1      30.294  23.213  -3.933  0.00  0.00     0.090 A 
HETATM    9  C   UNK N   1      29.945  23.222  -2.585  0.00  0.00     0.267 A 
HETATM   10  H   UNK N   1      28.409  23.490  -1.268  0.00  0.00     0.173 HD
ENDROOT
BRANCH   4  11
HETATM   11  C   UNK N   1      27.077  23.943  -5.617  0.00  0.00     0.235 C 
HETATM   12  O   UNK N   1      27.671  23.656  -6.852  0.00  0.00    -0.356 OA
HETATM   13  C   UNK N   1      26.701  24.073  -7.780  0.00  0.00     0.176 C 
HETATM   14  C   UNK N   1      25.997  25.292  -7.191  0.00  0.00     0.153 C 
HETATM   15  C   UNK N   1      26.438  25.305  -5.749  0.00  0.00     0.088 C 
BRANCH  13  16
HETATM   16  C   UNK N   1      25.700  22.945  -8.019  0.00  0.00     0.198 C 
BRANCH  16  17
HETATM   17  O   UNK N   1      24.538  23.455  -8.601  0.00  0.00    -0.398 OA
HETATM   18  H   UNK N   1      23.754  22.963  -8.890  0.00  0.00     0.209 HD
ENDBRANCH  16  17
ENDBRANCH  13  16
BRANCH  14  19
HETATM   19  O   UNK N   1      26.461  26.451  -7.811  0.00  0.00    -0.393 OA
HETATM   20  H   UNK N   1      26.858  27.263  -7.460  0.00  0.00     0.210 HD
ENDBRANCH  14  19
ENDBRANCH   4  11
TORSDOF 4
ENDMDL
MODEL 8
REMARK VINA RESULT:      -5.2     15.956     18.852
REMARK  4 active torsions:
REMARK  status: ('A' for Active; 'I' for Inactive)
REMARK    1  A    between atoms: C_9  and  O_3 
REMARK    2  A    between atoms: O_4  and  C_13 
REMARK    3  A    between atoms: C_10  and  N_7 
REMARK    4  A    between atoms: C_12  and  C_13 
ROOT
HETATM    1  I   UNK N   1      26.712  28.942  -4.250  0.00  0.00    -0.037 I 
HETATM    2  O   UNK N   1      26.024  23.121  -5.922  0.00  0.00    -0.246 OA
HETATM    3  O   UNK N   1      24.356  27.259  -5.650  0.00  0.00    -0.267 OA
HETATM    4  N   UNK N   1      27.345  24.710  -4.978  0.00  0.00    -0.281 N 
HETATM    5  N   UNK N   1      25.154  25.174  -5.806  0.00  0.00    -0.274 N 
HETATM    6  C   UNK N   1      26.169  24.280  -5.581  0.00  0.00     0.331 A 
HETATM    7  C   UNK N   1      27.474  26.018  -4.624  0.00  0.00     0.122 A 
HETATM    8  C   UNK N   1      26.450  26.931  -4.844  0.00  0.00     0.090 A 
HETATM    9  C   UNK N   1      25.275  26.487  -5.446  0.00  0.00     0.267 A 
HETATM   10  H   UNK N   1      24.324  24.864  -6.236  0.00  0.00     0.173 HD
ENDROOT
BRANCH   4  11
HETATM   11  C   UNK N   1      28.494  23.847  -4.664  0.00  0.00     0.235 C 
HETATM   12  O   UNK N   1      29.368  24.481  -3.774  0.00  0.00    -0.356 OA
HETATM   13  C   UNK N   1      30.460  23.600  -3.713  0.00  0.00     0.176 C 
HETATM   14  C   UNK N   1      30.616  22.966  -5.092  0.00  0.00     0.153 C 
HETATM   15  C   UNK N   1      29.337  23.328  -5.805  0.00  0.00     0.088 C 
BRANCH  13  16
HETATM   16  C   UNK N   1      30.196  22.525  -2.661  0.00  0.00     0.198 C 
BRANCH  16  17
HETATM   17  O   UNK N   1      30.388  23.054  -1.383  0.00  0.00    -0.398 OA
HETATM   18  H   UNK N   1      29.727  23.163  -0.681  0.00  0.00     0.209 HD
ENDBRANCH  16  17
ENDBRANCH  13  16
BRANCH  14  19
HETATM   19  O   UNK N   1      31.685  23.556  -5.765  0.00  0.00    -0.393 OA
HETATM   20  H   UNK N   1      32.575  23.237  -5.980  0.00  0.00     0.210 HD
ENDBRANCH  14  19
ENDBRANCH   4  11
TORSDOF 4
ENDMDL
MODEL 9
REMARK VINA RESULT:      -5.2     15.084     17.585
REMARK  4 active torsions:
REMARK  status: ('A' for Active; 'I' for Inactive)
REMARK    1  A    between atoms: C_9  and  O_3 
REMARK    2  A    between atoms: O_4  and  C_13 
REMARK    3  A    between atoms: C_10  and  N_7 
REMARK    4  A    between atoms: C_12  and  C_13 
ROOT
HETATM    1  I   UNK N   1      30.581  20.230  -7.210  0.00  0.00    -0.037 I 
HETATM    2  O   UNK N   1      30.856  22.879  -1.727  0.00  0.00    -0.246 OA
HETATM    3  O   UNK N   1      31.988  19.491  -4.414  0.00  0.00    -0.267 OA
HETATM    4  N   UNK N   1      30.078  22.944  -3.861  0.00  0.00    -0.281 N 
HETATM    5  N   UNK N   1      31.445  21.169  -3.036  0.00  0.00    -0.274 N 
HETATM    6  C   UNK N   1      30.792  22.356  -2.825  0.00  0.00     0.331 A 
HETATM    7  C   UNK N   1      30.042  22.335  -5.077  0.00  0.00     0.122 A 
HETATM    8  C   UNK N   1      30.698  21.130  -5.301  0.00  0.00     0.090 A 
HETATM    9  C   UNK N   1      31.406  20.548  -4.254  0.00  0.00     0.267 A 
HETATM   10  H   UNK N   1      31.952  20.757  -2.299  0.00  0.00     0.173 HD
ENDROOT
BRANCH   4  11
HETATM   11  C   UNK N   1      29.320  24.200  -3.753  0.00  0.00     0.235 C 
HETATM   12  O   UNK N   1      28.328  24.272  -4.738  0.00  0.00    -0.356 OA
HETATM   13  C   UNK N   1      27.823  25.575  -4.591  0.00  0.00     0.176 C 
HETATM   14  C   UNK N   1      28.985  26.474  -4.179  0.00  0.00     0.153 C 
HETATM   15  C   UNK N   1      30.079  25.505  -3.805  0.00  0.00     0.088 C 
BRANCH  13  16
HETATM   16  C   UNK N   1      26.735  25.587  -3.520  0.00  0.00     0.198 C 
BRANCH  16  17
HETATM   17  O   UNK N   1      25.980  24.416  -3.595  0.00  0.00    -0.398 OA
HETATM   18  H   UNK N   1      25.475  23.988  -2.886  0.00  0.00     0.209 HD
ENDBRANCH  16  17
ENDBRANCH  13  16
BRANCH  14  19
HETATM   19  O   UNK N   1      29.410  27.228  -5.272  0.00  0.00    -0.393 OA
HETATM   20  H   UNK N   1      30.045  27.957  -5.353  0.00  0.00     0.210 HD
ENDBRANCH  14  19
ENDBRANCH   4  11
TORSDOF 4
ENDMDL
