MODEL 1
REMARK VINA RESULT:      -6.1      0.000      0.000
REMARK  4 active torsions:
REMARK  status: ('A' for Active; 'I' for Inactive)
REMARK    1  A    between atoms: S_1  and  C_6 
REMARK    2  A    between atoms: S_1  and  C_7 
REMARK    3  A    between atoms: N_4  and  C_16 
REMARK    4  A    between atoms: N_5  and  C_17 
ROOT
HETATM    1  S   UNK N   1      33.912  16.940   7.257  0.00  0.00     0.206 S 
HETATM    2  O   UNK N   1      34.968  16.300   6.340  0.00  0.00    -0.217 OA
HETATM    3  O   UNK N   1      34.580  18.322   7.175  0.00  0.00    -0.217 OA
ENDROOT
BRANCH   1   4
HETATM    4  C   UNK N   1      32.751  16.992   5.875  0.00  0.00     0.064 A 
HETATM    5  C   UNK N   1      33.176  17.300   4.577  0.00  0.00     0.026 A 
HETATM    6  C   UNK N   1      32.263  17.270   3.515  0.00  0.00     0.030 A 
HETATM    7  C   UNK N   1      30.923  16.921   3.743  0.00  0.00     0.025 A 
HETATM    8  C   UNK N   1      30.501  16.605   5.035  0.00  0.00     0.030 A 
HETATM    9  C   UNK N   1      31.407  16.634   6.091  0.00  0.00     0.026 A 
BRANCH   7  10
HETATM   10  N   UNK N   1      30.006  16.884   2.679  0.00  0.00    -0.399 N 
HETATM   11  H   UNK N   1      30.034  16.149   2.024  0.00  0.00     0.156 HD
HETATM   12  H   UNK N   1      29.331  17.595   2.588  0.00  0.00     0.156 HD
ENDBRANCH   7  10
ENDBRANCH   1   4
BRANCH   1  13
HETATM   13  C   UNK N   1      34.750  16.161   8.650  0.00  0.00     0.064 A 
HETATM   14  C   UNK N   1      34.854  16.869   9.855  0.00  0.00     0.026 A 
HETATM   15  C   UNK N   1      35.541  16.325  10.942  0.00  0.00     0.030 A 
HETATM   16  C   UNK N   1      36.134  15.071  10.825  0.00  0.00     0.025 A 
HETATM   17  C   UNK N   1      36.033  14.351   9.629  0.00  0.00     0.030 A 
HETATM   18  C   UNK N   1      35.341  14.899   8.536  0.00  0.00     0.026 A 
BRANCH  16  19
HETATM   19  N   UNK N   1      36.841  14.528  11.921  0.00  0.00    -0.399 N 
HETATM   20  H   UNK N   1      37.726  14.883  12.165  0.00  0.00     0.156 HD
HETATM   21  H   UNK N   1      36.447  13.792  12.444  0.00  0.00     0.156 HD
ENDBRANCH  16  19
ENDBRANCH   1  13
TORSDOF 4
ENDMDL
MODEL 2
REMARK VINA RESULT:      -6.1      0.880      6.939
REMARK  4 active torsions:
REMARK  status: ('A' for Active; 'I' for Inactive)
REMARK    1  A    between atoms: S_1  and  C_6 
REMARK    2  A    between atoms: S_1  and  C_7 
REMARK    3  A    between atoms: N_4  and  C_16 
REMARK    4  A    between atoms: N_5  and  C_17 
ROOT
HETATM    1  S   UNK N   1      34.094  17.073   7.680  0.00  0.00     0.206 S 
HETATM    2  O   UNK N   1      33.073  17.543   8.729  0.00  0.00    -0.217 OA
HETATM    3  O   UNK N   1      34.791  18.442   7.646  0.00  0.00    -0.217 OA
ENDROOT
BRANCH   1   4
HETATM    4  C   UNK N   1      35.013  16.205   8.968  0.00  0.00     0.064 A 
HETATM    5  C   UNK N   1      35.148  16.742  10.255  0.00  0.00     0.026 A 
HETATM    6  C   UNK N   1      35.813  16.016  11.251  0.00  0.00     0.030 A 
HETATM    7  C   UNK N   1      36.336  14.744  10.971  0.00  0.00     0.025 A 
HETATM    8  C   UNK N   1      36.194  14.205   9.691  0.00  0.00     0.030 A 
HETATM    9  C   UNK N   1      35.533  14.926   8.701  0.00  0.00     0.026 A 
BRANCH   7  10
HETATM   10  N   UNK N   1      36.998  14.010  11.970  0.00  0.00    -0.399 N 
HETATM   11  H   UNK N   1      36.501  13.670  12.748  0.00  0.00     0.156 HD
HETATM   12  H   UNK N   1      37.963  13.834  11.891  0.00  0.00     0.156 HD
ENDBRANCH   7  10
ENDBRANCH   1   4
BRANCH   1  13
HETATM   13  C   UNK N   1      32.794  17.243   6.442  0.00  0.00     0.064 A 
HETATM   14  C   UNK N   1      31.461  17.062   6.834  0.00  0.00     0.026 A 
HETATM   15  C   UNK N   1      30.428  17.131   5.897  0.00  0.00     0.030 A 
HETATM   16  C   UNK N   1      30.727  17.377   4.559  0.00  0.00     0.025 A 
HETATM   17  C   UNK N   1      32.054  17.564   4.155  0.00  0.00     0.030 A 
HETATM   18  C   UNK N   1      33.092  17.495   5.098  0.00  0.00     0.026 A 
BRANCH  16  19
HETATM   19  N   UNK N   1      29.682  17.432   3.610  0.00  0.00    -0.399 N 
HETATM   20  H   UNK N   1      29.459  16.640   3.071  0.00  0.00     0.156 HD
HETATM   21  H   UNK N   1      29.174  18.267   3.488  0.00  0.00     0.156 HD
ENDBRANCH  16  19
ENDBRANCH   1  13
TORSDOF 4
ENDMDL
MODEL 3
REMARK VINA RESULT:      -6.1      0.380      1.701
REMARK  4 active torsions:
REMARK  status: ('A' for Active; 'I' for Inactive)
REMARK    1  A    between atoms: S_1  and  C_6 
REMARK    2  A    between atoms: S_1  and  C_7 
REMARK    3  A    between atoms: N_4  and  C_16 
REMARK    4  A    between atoms: N_5  and  C_17 
ROOT
HETATM    1  S   UNK N   1      33.993  16.882   7.479  0.00  0.00     0.206 S 
HETATM    2  O   UNK N   1      34.977  16.255   6.479  0.00  0.00    -0.217 OA
HETATM    3  O   UNK N   1      34.631  18.273   7.339  0.00  0.00    -0.217 OA
ENDROOT
BRANCH   1   4
HETATM    4  C   UNK N   1      32.719  16.913   6.201  0.00  0.00     0.064 A 
HETATM    5  C   UNK N   1      31.395  16.550   6.482  0.00  0.00     0.026 A 
HETATM    6  C   UNK N   1      30.416  16.646   5.484  0.00  0.00     0.030 A 
HETATM    7  C   UNK N   1      30.751  17.114   4.205  0.00  0.00     0.025 A 
HETATM    8  C   UNK N   1      32.068  17.483   3.927  0.00  0.00     0.030 A 
HETATM    9  C   UNK N   1      33.042  17.390   4.917  0.00  0.00     0.026 A 
BRANCH   7  10
HETATM   10  N   UNK N   1      29.770  17.217   3.204  0.00  0.00    -0.399 N 
HETATM   11  H   UNK N   1      29.901  16.778   2.333  0.00  0.00     0.156 HD
HETATM   12  H   UNK N   1      28.947  17.729   3.377  0.00  0.00     0.156 HD
ENDBRANCH   7  10
ENDBRANCH   1   4
BRANCH   1  13
HETATM   13  C   UNK N   1      34.956  16.120   8.799  0.00  0.00     0.064 A 
HETATM   14  C   UNK N   1      35.519  14.856   8.579  0.00  0.00     0.026 A 
HETATM   15  C   UNK N   1      36.226  14.206   9.592  0.00  0.00     0.030 A 
HETATM   16  C   UNK N   1      36.369  14.818  10.835  0.00  0.00     0.025 A 
HETATM   17  C   UNK N   1      35.816  16.083  11.066  0.00  0.00     0.030 A 
HETATM   18  C   UNK N   1      35.105  16.737  10.046  0.00  0.00     0.026 A 
BRANCH  16  19
HETATM   19  N   UNK N   1      37.073  14.153  11.863  0.00  0.00    -0.399 N 
HETATM   20  H   UNK N   1      37.772  13.496  11.641  0.00  0.00     0.156 HD
HETATM   21  H   UNK N   1      36.864  14.347  12.806  0.00  0.00     0.156 HD
ENDBRANCH  16  19
ENDBRANCH   1  13
TORSDOF 4
ENDMDL
MODEL 4
REMARK VINA RESULT:      -5.9      6.980      9.273
REMARK  4 active torsions:
REMARK  status: ('A' for Active; 'I' for Inactive)
REMARK    1  A    between atoms: S_1  and  C_6 
REMARK    2  A    between atoms: S_1  and  C_7 
REMARK    3  A    between atoms: N_4  and  C_16 
REMARK    4  A    between atoms: N_5  and  C_17 
ROOT
HETATM    1  S   UNK N   1      36.000  12.187  14.617  0.00  0.00     0.206 S 
HETATM    2  O   UNK N   1      34.570  12.670  14.326  0.00  0.00    -0.217 OA
HETATM    3  O   UNK N   1      35.631  10.719  14.349  0.00  0.00    -0.217 OA
ENDROOT
BRANCH   1   4
HETATM    4  C   UNK N   1      36.519  12.756  12.984  0.00  0.00     0.064 A 
HETATM    5  C   UNK N   1      36.006  13.934  12.426  0.00  0.00     0.026 A 
HETATM    6  C   UNK N   1      36.476  14.384  11.185  0.00  0.00     0.030 A 
HETATM    7  C   UNK N   1      37.469  13.666  10.501  0.00  0.00     0.025 A 
HETATM    8  C   UNK N   1      37.987  12.498  11.062  0.00  0.00     0.030 A 
HETATM    9  C   UNK N   1      37.522  12.050  12.294  0.00  0.00     0.026 A 
BRANCH   7  10
HETATM   10  N   UNK N   1      37.947  14.119   9.260  0.00  0.00    -0.399 N 
HETATM   11  H   UNK N   1      38.796  14.613   9.204  0.00  0.00     0.156 HD
HETATM   12  H   UNK N   1      37.431  13.939   8.441  0.00  0.00     0.156 HD
ENDBRANCH   7  10
ENDBRANCH   1   4
BRANCH   1  13
HETATM   13  C   UNK N   1      35.638  12.388  16.371  0.00  0.00     0.064 A 
HETATM   14  C   UNK N   1      35.426  13.679  16.872  0.00  0.00     0.026 A 
HETATM   15  C   UNK N   1      35.196  13.885  18.234  0.00  0.00     0.030 A 
HETATM   16  C   UNK N   1      35.183  12.797  19.103  0.00  0.00     0.025 A 
HETATM   17  C   UNK N   1      35.390  11.501  18.615  0.00  0.00     0.030 A 
HETATM   18  C   UNK N   1      35.620  11.295  17.244  0.00  0.00     0.026 A 
BRANCH  16  19
HETATM   19  N   UNK N   1      34.965  13.008  20.482  0.00  0.00    -0.399 N 
HETATM   20  H   UNK N   1      34.763  13.911  20.820  0.00  0.00     0.156 HD
HETATM   21  H   UNK N   1      35.015  12.251  21.109  0.00  0.00     0.156 HD
ENDBRANCH  16  19
ENDBRANCH   1  13
TORSDOF 4
ENDMDL
MODEL 5
REMARK VINA RESULT:      -5.8     12.121     12.964
REMARK  4 active torsions:
REMARK  status: ('A' for Active; 'I' for Inactive)
REMARK    1  A    between atoms: S_1  and  C_6 
REMARK    2  A    between atoms: S_1  and  C_7 
REMARK    3  A    between atoms: N_4  and  C_16 
REMARK    4  A    between atoms: N_5  and  C_17 
ROOT
HETATM    1  S   UNK N   1      21.033  17.402   6.095  0.00  0.00     0.206 S 
HETATM    2  O   UNK N   1      22.564  17.389   5.960  0.00  0.00    -0.217 OA
HETATM    3  O   UNK N   1      21.054  18.647   6.995  0.00  0.00    -0.217 OA
ENDROOT
BRANCH   1   4
HETATM    4  C   UNK N   1      20.898  18.122   4.445  0.00  0.00     0.064 A 
HETATM    5  C   UNK N   1      19.965  17.645   3.516  0.00  0.00     0.026 A 
HETATM    6  C   UNK N   1      19.840  18.266   2.266  0.00  0.00     0.030 A 
HETATM    7  C   UNK N   1      20.638  19.374   1.943  0.00  0.00     0.025 A 
HETATM    8  C   UNK N   1      21.561  19.856   2.873  0.00  0.00     0.030 A 
HETATM    9  C   UNK N   1      21.686  19.240   4.114  0.00  0.00     0.026 A 
BRANCH   7  10
HETATM   10  N   UNK N   1      20.510  20.003   0.693  0.00  0.00    -0.399 N 
HETATM   11  H   UNK N   1      21.212  20.612   0.369  0.00  0.00     0.156 HD
HETATM   12  H   UNK N   1      19.714  19.834   0.139  0.00  0.00     0.156 HD
ENDBRANCH   7  10
ENDBRANCH   1   4
BRANCH   1  13
HETATM   13  C   UNK N   1      21.194  16.044   7.270  0.00  0.00     0.064 A 
HETATM   14  C   UNK N   1      20.290  15.966   8.338  0.00  0.00     0.026 A 
HETATM   15  C   UNK N   1      20.412  14.962   9.302  0.00  0.00     0.030 A 
HETATM   16  C   UNK N   1      21.445  14.033   9.201  0.00  0.00     0.025 A 
HETATM   17  C   UNK N   1      22.351  14.097   8.137  0.00  0.00     0.030 A 
HETATM   18  C   UNK N   1      22.228  15.107   7.168  0.00  0.00     0.026 A 
BRANCH  16  19
HETATM   19  N   UNK N   1      21.575  13.027  10.184  0.00  0.00    -0.399 N 
HETATM   20  H   UNK N   1      22.452  12.841  10.590  0.00  0.00     0.156 HD
HETATM   21  H   UNK N   1      20.785  12.510  10.464  0.00  0.00     0.156 HD
ENDBRANCH  16  19
ENDBRANCH   1  13
TORSDOF 4
ENDMDL
MODEL 6
REMARK VINA RESULT:      -5.8     12.174     14.343
REMARK  4 active torsions:
REMARK  status: ('A' for Active; 'I' for Inactive)
REMARK    1  A    between atoms: S_1  and  C_6 
REMARK    2  A    between atoms: S_1  and  C_7 
REMARK    3  A    between atoms: N_4  and  C_16 
REMARK    4  A    between atoms: N_5  and  C_17 
ROOT
HETATM    1  S   UNK N   1      21.752  17.388   5.514  0.00  0.00     0.206 S 
HETATM    2  O   UNK N   1      21.519  18.635   6.382  0.00  0.00    -0.217 OA
HETATM    3  O   UNK N   1      23.280  17.537   5.591  0.00  0.00    -0.217 OA
ENDROOT
BRANCH   1   4
HETATM    4  C   UNK N   1      21.397  16.336   6.938  0.00  0.00     0.064 A 
HETATM    5  C   UNK N   1      20.351  16.634   7.821  0.00  0.00     0.026 A 
HETATM    6  C   UNK N   1      20.059  15.763   8.879  0.00  0.00     0.030 A 
HETATM    7  C   UNK N   1      20.802  14.586   9.055  0.00  0.00     0.025 A 
HETATM    8  C   UNK N   1      21.839  14.285   8.169  0.00  0.00     0.030 A 
HETATM    9  C   UNK N   1      22.129  15.148   7.117  0.00  0.00     0.026 A 
BRANCH   7  10
HETATM   10  N   UNK N   1      20.507  13.708  10.111  0.00  0.00    -0.399 N 
HETATM   11  H   UNK N   1      20.970  12.843  10.183  0.00  0.00     0.156 HD
HETATM   12  H   UNK N   1      19.835  13.961  10.785  0.00  0.00     0.156 HD
ENDBRANCH   7  10
ENDBRANCH   1   4
BRANCH   1  13
HETATM   13  C   UNK N   1      21.314  18.388   4.081  0.00  0.00     0.064 A 
HETATM   14  C   UNK N   1      22.202  19.388   3.659  0.00  0.00     0.026 A 
HETATM   15  C   UNK N   1      21.877  20.222   2.587  0.00  0.00     0.030 A 
HETATM   16  C   UNK N   1      20.658  20.061   1.934  0.00  0.00     0.025 A 
HETATM   17  C   UNK N   1      19.764  19.064   2.342  0.00  0.00     0.030 A 
HETATM   18  C   UNK N   1      20.092  18.225   3.420  0.00  0.00     0.026 A 
BRANCH  16  19
HETATM   19  N   UNK N   1      20.325  20.915   0.858  0.00  0.00    -0.399 N 
HETATM   20  H   UNK N   1      20.357  21.892   0.972  0.00  0.00     0.156 HD
HETATM   21  H   UNK N   1      20.060  20.531  -0.009  0.00  0.00     0.156 HD
ENDBRANCH  16  19
ENDBRANCH   1  13
TORSDOF 4
ENDMDL
MODEL 7
REMARK VINA RESULT:      -5.8      2.251      3.020
REMARK  4 active torsions:
REMARK  status: ('A' for Active; 'I' for Inactive)
REMARK    1  A    between atoms: S_1  and  C_6 
REMARK    2  A    between atoms: S_1  and  C_7 
REMARK    3  A    between atoms: N_4  and  C_16 
REMARK    4  A    between atoms: N_5  and  C_17 
ROOT
HETATM    1  S   UNK N   1      33.213  17.215   8.319  0.00  0.00     0.206 S 
HETATM    2  O   UNK N   1      33.177  16.123   7.238  0.00  0.00    -0.217 OA
HETATM    3  O   UNK N   1      33.913  18.213   7.382  0.00  0.00    -0.217 OA
ENDROOT
BRANCH   1   4
HETATM    4  C   UNK N   1      31.468  17.564   8.019  0.00  0.00     0.064 A 
HETATM    5  C   UNK N   1      30.710  18.320   8.923  0.00  0.00     0.026 A 
HETATM    6  C   UNK N   1      29.375  18.629   8.631  0.00  0.00     0.030 A 
HETATM    7  C   UNK N   1      28.793  18.193   7.430  0.00  0.00     0.025 A 
HETATM    8  C   UNK N   1      29.551  17.448   6.526  0.00  0.00     0.030 A 
HETATM    9  C   UNK N   1      30.878  17.142   6.814  0.00  0.00     0.026 A 
BRANCH   7  10
HETATM   10  N   UNK N   1      27.456  18.507   7.132  0.00  0.00    -0.399 N 
HETATM   11  H   UNK N   1      27.207  19.422   6.870  0.00  0.00     0.156 HD
HETATM   12  H   UNK N   1      26.766  17.807   7.185  0.00  0.00     0.156 HD
ENDBRANCH   7  10
ENDBRANCH   1   4
BRANCH   1  13
HETATM   13  C   UNK N   1      34.589  16.327   9.073  0.00  0.00     0.064 A 
HETATM   14  C   UNK N   1      35.109  15.205   8.413  0.00  0.00     0.026 A 
HETATM   15  C   UNK N   1      36.139  14.456   8.988  0.00  0.00     0.030 A 
HETATM   16  C   UNK N   1      36.649  14.825  10.230  0.00  0.00     0.025 A 
HETATM   17  C   UNK N   1      36.141  15.946  10.897  0.00  0.00     0.030 A 
HETATM   18  C   UNK N   1      35.106  16.699  10.318  0.00  0.00     0.026 A 
BRANCH  16  19
HETATM   19  N   UNK N   1      37.680  14.058  10.816  0.00  0.00    -0.399 N 
HETATM   20  H   UNK N   1      38.547  14.474  11.030  0.00  0.00     0.156 HD
HETATM   21  H   UNK N   1      37.533  13.104  11.010  0.00  0.00     0.156 HD
ENDBRANCH  16  19
ENDBRANCH   1  13
TORSDOF 4
ENDMDL
MODEL 8
REMARK VINA RESULT:      -5.8     12.177     14.320
REMARK  4 active torsions:
REMARK  status: ('A' for Active; 'I' for Inactive)
REMARK    1  A    between atoms: S_1  and  C_6 
REMARK    2  A    between atoms: S_1  and  C_7 
REMARK    3  A    between atoms: N_4  and  C_16 
REMARK    4  A    between atoms: N_5  and  C_17 
ROOT
HETATM    1  S   UNK N   1      21.048  15.954   7.580  0.00  0.00     0.206 S 
HETATM    2  O   UNK N   1      19.631  15.388   7.393  0.00  0.00    -0.217 OA
HETATM    3  O   UNK N   1      20.585  16.935   8.669  0.00  0.00    -0.217 OA
ENDROOT
BRANCH   1   4
HETATM    4  C   UNK N   1      21.500  14.496   8.543  0.00  0.00     0.064 A 
HETATM    5  C   UNK N   1      22.683  13.791   8.287  0.00  0.00     0.026 A 
HETATM    6  C   UNK N   1      23.038  12.702   9.093  0.00  0.00     0.030 A 
HETATM    7  C   UNK N   1      22.219  12.317  10.166  0.00  0.00     0.025 A 
HETATM    8  C   UNK N   1      21.044  13.026  10.427  0.00  0.00     0.030 A 
HETATM    9  C   UNK N   1      20.691  14.108   9.627  0.00  0.00     0.026 A 
BRANCH   7  10
HETATM   10  N   UNK N   1      22.575  11.229  10.980  0.00  0.00    -0.399 N 
HETATM   11  H   UNK N   1      22.040  10.403  10.968  0.00  0.00     0.156 HD
HETATM   12  H   UNK N   1      23.365  11.293  11.565  0.00  0.00     0.156 HD
ENDBRANCH   7  10
ENDBRANCH   1   4
BRANCH   1  13
HETATM   13  C   UNK N   1      20.801  16.886   6.057  0.00  0.00     0.064 A 
HETATM   14  C   UNK N   1      19.954  16.358   5.073  0.00  0.00     0.026 A 
HETATM   15  C   UNK N   1      19.778  17.020   3.856  0.00  0.00     0.030 A 
HETATM   16  C   UNK N   1      20.454  18.214   3.617  0.00  0.00     0.025 A 
HETATM   17  C   UNK N   1      21.299  18.755   4.593  0.00  0.00     0.030 A 
HETATM   18  C   UNK N   1      21.476  18.088   5.817  0.00  0.00     0.026 A 
BRANCH  16  19
HETATM   19  N   UNK N   1      20.285  18.875   2.380  0.00  0.00    -0.399 N 
HETATM   20  H   UNK N   1      21.011  19.426   2.009  0.00  0.00     0.156 HD
HETATM   21  H   UNK N   1      19.437  18.785   1.887  0.00  0.00     0.156 HD
ENDBRANCH  16  19
ENDBRANCH   1  13
TORSDOF 4
ENDMDL
MODEL 9
REMARK VINA RESULT:      -5.6     13.107     15.726
REMARK  4 active torsions:
REMARK  status: ('A' for Active; 'I' for Inactive)
REMARK    1  A    between atoms: S_1  and  C_6 
REMARK    2  A    between atoms: S_1  and  C_7 
REMARK    3  A    between atoms: N_4  and  C_16 
REMARK    4  A    between atoms: N_5  and  C_17 
ROOT
HETATM    1  S   UNK N   1      27.915  24.699  -4.425  0.00  0.00     0.206 S 
HETATM    2  O   UNK N   1      27.397  24.296  -3.035  0.00  0.00    -0.217 OA
HETATM    3  O   UNK N   1      26.694  24.089  -5.131  0.00  0.00    -0.217 OA
ENDROOT
BRANCH   1   4
HETATM    4  C   UNK N   1      27.378  26.397  -4.128  0.00  0.00     0.064 A 
HETATM    5  C   UNK N   1      28.296  27.406  -3.809  0.00  0.00     0.026 A 
HETATM    6  C   UNK N   1      27.857  28.727  -3.647  0.00  0.00     0.030 A 
HETATM    7  C   UNK N   1      26.501  29.048  -3.814  0.00  0.00     0.025 A 
HETATM    8  C   UNK N   1      25.588  28.044  -4.140  0.00  0.00     0.030 A 
HETATM    9  C   UNK N   1      26.023  26.732  -4.302  0.00  0.00     0.026 A 
BRANCH   7  10
HETATM   10  N   UNK N   1      26.059  30.372  -3.658  0.00  0.00    -0.399 N 
HETATM   11  H   UNK N   1      26.674  31.066  -3.329  0.00  0.00     0.156 HD
HETATM   12  H   UNK N   1      25.129  30.607  -3.881  0.00  0.00     0.156 HD
ENDBRANCH   7  10
ENDBRANCH   1   4
BRANCH   1  13
HETATM   13  C   UNK N   1      29.065  23.314  -4.323  0.00  0.00     0.064 A 
HETATM   14  C   UNK N   1      29.277  22.529  -5.464  0.00  0.00     0.026 A 
HETATM   15  C   UNK N   1      30.117  21.414  -5.414  0.00  0.00     0.030 A 
HETATM   16  C   UNK N   1      30.745  21.078  -4.218  0.00  0.00     0.025 A 
HETATM   17  C   UNK N   1      30.545  21.857  -3.072  0.00  0.00     0.030 A 
HETATM   18  C   UNK N   1      29.700  22.978  -3.123  0.00  0.00     0.026 A 
BRANCH  16  19
HETATM   19  N   UNK N   1      31.584  19.942  -4.165  0.00  0.00    -0.399 N 
HETATM   20  H   UNK N   1      32.138  19.699  -4.941  0.00  0.00     0.156 HD
HETATM   21  H   UNK N   1      31.613  19.391  -3.350  0.00  0.00     0.156 HD
ENDBRANCH  16  19
ENDBRANCH   1  13
TORSDOF 4
ENDMDL
