MODEL 1
REMARK VINA RESULT:      -8.1      0.000      0.000
REMARK  8 active torsions:
REMARK  status: ('A' for Active; 'I' for Inactive)
REMARK    1  A    between atoms: O_5  and  C_24 
REMARK    2  A    between atoms: O_5  and  C_29 
REMARK    3  A    between atoms: N_6  and  C_18 
REMARK    4  A    between atoms: N_7  and  C_22 
REMARK    5  A    between atoms: N_8  and  C_21 
REMARK    6  A    between atoms: C_17  and  C_21 
REMARK    7  A    between atoms: C_17  and  C_23 
REMARK    8  A    between atoms: C_19  and  C_24 
ROOT
HETATM    1  O   UNK N   1      34.629  13.372  13.180  0.00  0.00    -0.340 OA
HETATM    2  O   UNK N   1      36.510  12.020  13.172  0.00  0.00    -0.347 OA
HETATM    3  C   UNK N   1      35.186  12.165  13.659  0.00  0.00     0.213 C 
HETATM    4  C   UNK N   1      35.433  13.699  12.089  0.00  0.00     0.173 C 
HETATM    5  C   UNK N   1      36.778  13.209  12.489  0.00  0.00     0.206 C 
ENDROOT
BRANCH   4   6
HETATM    6  C   UNK N   1      35.393  15.185  11.761  0.00  0.00     0.209 C 
BRANCH   6   7
HETATM    7  O   UNK N   1      35.348  15.335  10.399  0.00  0.00    -0.349 OA
BRANCH   7   8
HETATM    8  C   UNK N   1      34.302  15.829   9.716  0.00  0.00     0.069 A 
HETATM    9  C   UNK N   1      33.161  15.038   9.621  0.00  0.00     0.039 A 
HETATM   10  C   UNK N   1      32.023  15.522   8.992  0.00  0.00     0.032 A 
HETATM   11  C   UNK N   1      32.011  16.804   8.423  0.00  0.00     0.030 A 
HETATM   12  C   UNK N   1      33.176  17.591   8.485  0.00  0.00     0.032 A 
HETATM   13  C   UNK N   1      34.317  17.110   9.139  0.00  0.00     0.039 A 
BRANCH  11  14
HETATM   14  N   UNK N   1      30.814  17.303   7.828  0.00  0.00    -0.378 N 
HETATM   15  C   UNK N   1      30.617  17.106   6.396  0.00  0.00     0.153 C 
HETATM   16  C   UNK N   1      29.204  17.410   5.939  0.00  0.00     0.292 C 
HETATM   17  N   UNK N   1      28.761  18.662   6.533  0.00  0.00     0.095 N 
HETATM   18  C   UNK N   1      28.533  18.346   7.940  0.00  0.00     0.292 C 
HETATM   19  C   UNK N   1      29.844  18.013   8.658  0.00  0.00     0.153 C 
BRANCH  17  20
HETATM   20  C   UNK N   1      27.480  19.050   5.931  0.00  0.00     0.215 C 
HETATM   21  C   UNK N   1      27.082  20.446   6.381  0.00  0.00     0.042 C 
HETATM   22  C   UNK N   1      27.562  19.069   4.409  0.00  0.00     0.042 C 
ENDBRANCH  17  20
ENDBRANCH  11  14
ENDBRANCH   7   8
ENDBRANCH   6   7
ENDBRANCH   4   6
BRANCH   3  23
HETATM   23  C   UNK N   1      34.306  11.013  13.149  0.00  0.00     0.224 C 
BRANCH  23  24
HETATM   24  N   UNK N   1      34.784  10.515  11.867  0.00  0.00    -0.281 N 
HETATM   25  N   UNK N   1      35.835   9.735  11.698  0.00  0.00    -0.293 N 
HETATM   26  C   UNK N   1      35.906   9.467  10.381  0.00  0.00     0.198 A 
ATOM     27  HN  UNK N   1      36.469   9.400  12.423  1.00  0.00     0.188 HD
HETATM   28  N   UNK N   1      34.899  10.080   9.718  0.00  0.00    -0.346 N 
HETATM   29  C   UNK N   1      34.211  10.731  10.676  0.00  0.00     0.201 A 
ATOM     30  HN  UNK N   1      34.705  10.055   8.716  1.00  0.00     0.167 HD
ENDBRANCH  23  24
ENDBRANCH   3  23
BRANCH   3  31
HETATM   31  C   UNK N   1      35.236  12.140  15.183  0.00  0.00     0.027 A 
HETATM   32  C   UNK N   1      35.704  11.001  15.891  0.00  0.00     0.047 A 
HETATM   33 Cl   UNK N   1      36.239   9.536  15.074  0.00  0.00    -0.084 Cl
HETATM   34  C   UNK N   1      35.746  11.014  17.288  0.00  0.00     0.048 A 
HETATM   35  C   UNK N   1      35.340  12.140  17.999  0.00  0.00     0.035 A 
HETATM   36 Cl   UNK N   1      35.407  12.134  19.749  0.00  0.00    -0.084 Cl
HETATM   37  C   UNK N   1      34.883  13.268  17.316  0.00  0.00     0.024 A 
HETATM   38  C   UNK N   1      34.828  13.268  15.918  0.00  0.00     0.016 A 
ENDBRANCH   3  31
TORSDOF 8
ENDMDL
MODEL 2
REMARK VINA RESULT:      -7.8      1.984      2.593
REMARK  8 active torsions:
REMARK  status: ('A' for Active; 'I' for Inactive)
REMARK    1  A    between atoms: O_5  and  C_24 
REMARK    2  A    between atoms: O_5  and  C_29 
REMARK    3  A    between atoms: N_6  and  C_18 
REMARK    4  A    between atoms: N_7  and  C_22 
REMARK    5  A    between atoms: N_8  and  C_21 
REMARK    6  A    between atoms: C_17  and  C_21 
REMARK    7  A    between atoms: C_17  and  C_23 
REMARK    8  A    between atoms: C_19  and  C_24 
ROOT
HETATM    1  O   UNK N   1      34.600  13.303  11.914  0.00  0.00    -0.340 OA
HETATM    2  O   UNK N   1      36.575  14.447  12.311  0.00  0.00    -0.347 OA
HETATM    3  C   UNK N   1      35.844  13.262  12.583  0.00  0.00     0.213 C 
HETATM    4  C   UNK N   1      34.787  14.269  10.925  0.00  0.00     0.173 C 
HETATM    5  C   UNK N   1      35.708  15.246  11.562  0.00  0.00     0.206 C 
ENDROOT
BRANCH   4   6
HETATM    6  C   UNK N   1      33.474  14.879  10.453  0.00  0.00     0.209 C 
BRANCH   6   7
HETATM    7  O   UNK N   1      33.502  14.981   9.086  0.00  0.00    -0.349 OA
BRANCH   7   8
HETATM    8  C   UNK N   1      32.594  15.640   8.348  0.00  0.00     0.069 A 
HETATM    9  C   UNK N   1      32.026  14.967   7.270  0.00  0.00     0.039 A 
HETATM   10  C   UNK N   1      31.029  15.567   6.515  0.00  0.00     0.032 A 
HETATM   11  C   UNK N   1      30.594  16.868   6.809  0.00  0.00     0.030 A 
HETATM   12  C   UNK N   1      31.193  17.565   7.875  0.00  0.00     0.032 A 
HETATM   13  C   UNK N   1      32.184  16.949   8.650  0.00  0.00     0.039 A 
BRANCH  11  14
HETATM   14  N   UNK N   1      29.530  17.447   6.055  0.00  0.00    -0.378 N 
HETATM   15  C   UNK N   1      29.495  17.214   4.615  0.00  0.00     0.153 C 
HETATM   16  C   UNK N   1      28.182  17.622   3.975  0.00  0.00     0.292 C 
HETATM   17  N   UNK N   1      27.786  18.930   4.475  0.00  0.00     0.095 N 
HETATM   18  C   UNK N   1      27.358  18.689   5.849  0.00  0.00     0.292 C 
HETATM   19  C   UNK N   1      28.534  18.270   6.735  0.00  0.00     0.153 C 
BRANCH  17  20
HETATM   20  C   UNK N   1      26.630  19.405   3.705  0.00  0.00     0.215 C 
HETATM   21  C   UNK N   1      25.671  18.258   3.426  0.00  0.00     0.042 C 
HETATM   22  C   UNK N   1      25.853  20.472   4.467  0.00  0.00     0.042 C 
ENDBRANCH  17  20
ENDBRANCH  11  14
ENDBRANCH   7   8
ENDBRANCH   6   7
ENDBRANCH   4   6
BRANCH   3  23
HETATM   23  C   UNK N   1      36.611  12.036  12.063  0.00  0.00     0.224 C 
BRANCH  23  24
HETATM   24  N   UNK N   1      37.471  12.391  10.943  0.00  0.00    -0.281 N 
HETATM   25  N   UNK N   1      38.612  13.046  11.038  0.00  0.00    -0.293 N 
HETATM   26  C   UNK N   1      39.112  13.127   9.791  0.00  0.00     0.198 A 
ATOM     27  HN  UNK N   1      39.033  13.418  11.889  1.00  0.00     0.188 HD
HETATM   28  N   UNK N   1      38.285  12.522   8.908  0.00  0.00    -0.346 N 
HETATM   29  C   UNK N   1      37.262  12.070   9.660  0.00  0.00     0.201 A 
ATOM     30  HN  UNK N   1      38.408  12.430   7.899  1.00  0.00     0.167 HD
ENDBRANCH  23  24
ENDBRANCH   3  23
BRANCH   3  31
HETATM   31  C   UNK N   1      35.660  13.155  14.093  0.00  0.00     0.027 A 
HETATM   32  C   UNK N   1      34.819  12.165  14.669  0.00  0.00     0.047 A 
HETATM   33 Cl   UNK N   1      33.917  11.010  13.694  0.00  0.00    -0.084 Cl
HETATM   34  C   UNK N   1      34.680  12.087  16.057  0.00  0.00     0.048 A 
HETATM   35  C   UNK N   1      35.367  12.968  16.889  0.00  0.00     0.035 A 
HETATM   36 Cl   UNK N   1      35.179  12.847  18.627  0.00  0.00    -0.084 Cl
HETATM   37  C   UNK N   1      36.201  13.941  16.337  0.00  0.00     0.024 A 
HETATM   38  C   UNK N   1      36.345  14.037  14.949  0.00  0.00     0.016 A 
ENDBRANCH   3  31
TORSDOF 8
ENDMDL
MODEL 3
REMARK VINA RESULT:      -7.8      8.750     14.321
REMARK  8 active torsions:
REMARK  status: ('A' for Active; 'I' for Inactive)
REMARK    1  A    between atoms: O_5  and  C_24 
REMARK    2  A    between atoms: O_5  and  C_29 
REMARK    3  A    between atoms: N_6  and  C_18 
REMARK    4  A    between atoms: N_7  and  C_22 
REMARK    5  A    between atoms: N_8  and  C_21 
REMARK    6  A    between atoms: C_17  and  C_21 
REMARK    7  A    between atoms: C_17  and  C_23 
REMARK    8  A    between atoms: C_19  and  C_24 
ROOT
HETATM    1  O   UNK N   1      22.764  17.846   3.836  0.00  0.00    -0.340 OA
HETATM    2  O   UNK N   1      20.531  18.408   4.082  0.00  0.00    -0.347 OA
HETATM    3  C   UNK N   1      21.492  17.375   4.228  0.00  0.00     0.213 C 
HETATM    4  C   UNK N   1      22.635  19.233   3.889  0.00  0.00     0.173 C 
HETATM    5  C   UNK N   1      21.223  19.467   3.492  0.00  0.00     0.206 C 
ENDROOT
BRANCH   4   6
HETATM    6  C   UNK N   1      23.649  19.946   3.005  0.00  0.00     0.209 C 
BRANCH   6   7
HETATM    7  O   UNK N   1      24.557  20.591   3.806  0.00  0.00    -0.349 OA
BRANCH   7   8
HETATM    8  C   UNK N   1      25.634  20.013   4.364  0.00  0.00     0.069 A 
HETATM    9  C   UNK N   1      26.214  20.649   5.456  0.00  0.00     0.039 A 
HETATM   10  C   UNK N   1      27.282  20.066   6.122  0.00  0.00     0.032 A 
HETATM   11  C   UNK N   1      27.809  18.839   5.691  0.00  0.00     0.030 A 
HETATM   12  C   UNK N   1      27.247  18.212   4.562  0.00  0.00     0.032 A 
HETATM   13  C   UNK N   1      26.155  18.792   3.906  0.00  0.00     0.039 A 
BRANCH  11  14
HETATM   14  N   UNK N   1      28.873  18.229   6.420  0.00  0.00    -0.378 N 
HETATM   15  C   UNK N   1      29.875  17.469   5.680  0.00  0.00     0.153 C 
HETATM   16  C   UNK N   1      31.096  17.123   6.509  0.00  0.00     0.292 C 
HETATM   17  N   UNK N   1      30.673  16.628   7.810  0.00  0.00     0.095 N 
HETATM   18  C   UNK N   1      30.187  17.808   8.518  0.00  0.00     0.292 C 
HETATM   19  C   UNK N   1      28.912  18.359   7.874  0.00  0.00     0.153 C 
BRANCH  17  20
HETATM   20  C   UNK N   1      31.845  16.108   8.526  0.00  0.00     0.215 C 
HETATM   21  C   UNK N   1      32.402  14.885   7.815  0.00  0.00     0.042 C 
HETATM   22  C   UNK N   1      32.962  17.143   8.593  0.00  0.00     0.042 C 
ENDBRANCH  17  20
ENDBRANCH  11  14
ENDBRANCH   7   8
ENDBRANCH   6   7
ENDBRANCH   4   6
BRANCH   3  23
HETATM   23  C   UNK N   1      21.588  16.947   5.701  0.00  0.00     0.224 C 
BRANCH  23  24
HETATM   24  N   UNK N   1      22.751  16.101   5.928  0.00  0.00    -0.281 N 
HETATM   25  N   UNK N   1      24.001  16.522   5.973  0.00  0.00    -0.293 N 
HETATM   26  C   UNK N   1      24.759  15.445   6.247  0.00  0.00     0.198 A 
ATOM     27  HN  UNK N   1      24.328  17.477   5.828  1.00  0.00     0.188 HD
HETATM   28  N   UNK N   1      23.986  14.341   6.375  0.00  0.00    -0.346 N 
HETATM   29  C   UNK N   1      22.730  14.784   6.169  0.00  0.00     0.201 A 
ATOM     30  HN  UNK N   1      24.287  13.388   6.581  1.00  0.00     0.167 HD
ENDBRANCH  23  24
ENDBRANCH   3  23
BRANCH   3  31
HETATM   31  C   UNK N   1      21.049  16.191   3.375  0.00  0.00     0.027 A 
HETATM   32  C   UNK N   1      19.838  15.497   3.641  0.00  0.00     0.047 A 
HETATM   33 Cl   UNK N   1      18.775  15.932   4.976  0.00  0.00    -0.084 Cl
HETATM   34  C   UNK N   1      19.456  14.422   2.835  0.00  0.00     0.048 A 
HETATM   35  C   UNK N   1      20.248  14.025   1.760  0.00  0.00     0.035 A 
HETATM   36 Cl   UNK N   1      19.744  12.677   0.761  0.00  0.00    -0.084 Cl
HETATM   37  C   UNK N   1      21.436  14.701   1.483  0.00  0.00     0.024 A 
HETATM   38  C   UNK N   1      21.837  15.775   2.287  0.00  0.00     0.016 A 
ENDBRANCH   3  31
TORSDOF 8
ENDMDL
MODEL 4
REMARK VINA RESULT:      -7.7      7.856     14.182
REMARK  8 active torsions:
REMARK  status: ('A' for Active; 'I' for Inactive)
REMARK    1  A    between atoms: O_5  and  C_24 
REMARK    2  A    between atoms: O_5  and  C_29 
REMARK    3  A    between atoms: N_6  and  C_18 
REMARK    4  A    between atoms: N_7  and  C_22 
REMARK    5  A    between atoms: N_8  and  C_21 
REMARK    6  A    between atoms: C_17  and  C_21 
REMARK    7  A    between atoms: C_17  and  C_23 
REMARK    8  A    between atoms: C_19  and  C_24 
ROOT
HETATM    1  O   UNK N   1      23.938  17.010   4.798  0.00  0.00    -0.340 OA
HETATM    2  O   UNK N   1      23.378  19.156   4.131  0.00  0.00    -0.347 OA
HETATM    3  C   UNK N   1      22.870  17.902   4.557  0.00  0.00     0.213 C 
HETATM    4  C   UNK N   1      25.043  17.847   4.944  0.00  0.00     0.173 C 
HETATM    5  C   UNK N   1      24.757  18.969   4.013  0.00  0.00     0.206 C 
ENDROOT
BRANCH   4   6
HETATM    6  C   UNK N   1      26.357  17.132   4.660  0.00  0.00     0.209 C 
BRANCH   6   7
HETATM    7  O   UNK N   1      27.385  18.032   4.783  0.00  0.00    -0.349 OA
BRANCH   7   8
HETATM    8  C   UNK N   1      28.536  17.798   5.434  0.00  0.00     0.069 A 
HETATM    9  C   UNK N   1      28.514  17.848   6.824  0.00  0.00     0.039 A 
HETATM   10  C   UNK N   1      29.653  17.543   7.555  0.00  0.00     0.032 A 
HETATM   11  C   UNK N   1      30.849  17.202   6.906  0.00  0.00     0.030 A 
HETATM   12  C   UNK N   1      30.884  17.187   5.499  0.00  0.00     0.032 A 
HETATM   13  C   UNK N   1      29.728  17.474   4.763  0.00  0.00     0.039 A 
BRANCH  11  14
HETATM   14  N   UNK N   1      31.994  16.839   7.676  0.00  0.00    -0.378 N 
HETATM   15  C   UNK N   1      33.159  17.717   7.642  0.00  0.00     0.153 C 
HETATM   16  C   UNK N   1      34.185  17.391   8.710  0.00  0.00     0.292 C 
HETATM   17  N   UNK N   1      34.402  15.954   8.750  0.00  0.00     0.095 N 
HETATM   18  C   UNK N   1      33.191  15.411   9.359  0.00  0.00     0.292 C 
HETATM   19  C   UNK N   1      31.976  15.599   8.447  0.00  0.00     0.153 C 
BRANCH  17  20
HETATM   20  C   UNK N   1      35.536  15.667   9.638  0.00  0.00     0.215 C 
HETATM   21  C   UNK N   1      35.395  16.434  10.943  0.00  0.00     0.042 C 
HETATM   22  C   UNK N   1      35.610  14.185   9.987  0.00  0.00     0.042 C 
ENDBRANCH  17  20
ENDBRANCH  11  14
ENDBRANCH   7   8
ENDBRANCH   6   7
ENDBRANCH   4   6
BRANCH   3  23
HETATM   23  C   UNK N   1      22.094  18.064   5.873  0.00  0.00     0.224 C 
BRANCH  23  24
HETATM   24  N   UNK N   1      21.636  16.777   6.375  0.00  0.00    -0.281 N 
HETATM   25  N   UNK N   1      22.419  15.809   6.813  0.00  0.00    -0.293 N 
HETATM   26  C   UNK N   1      21.608  14.818   7.227  0.00  0.00     0.198 A 
ATOM     27  HN  UNK N   1      23.438  15.811   6.833  1.00  0.00     0.188 HD
HETATM   28  N   UNK N   1      20.311  15.161   7.050  0.00  0.00    -0.346 N 
HETATM   29  C   UNK N   1      20.360  16.396   6.513  0.00  0.00     0.201 A 
ATOM     30  HN  UNK N   1      19.482  14.608   7.273  1.00  0.00     0.167 HD
ENDBRANCH  23  24
ENDBRANCH   3  23
BRANCH   3  31
HETATM   31  C   UNK N   1      21.938  17.375   3.470  0.00  0.00     0.027 A 
HETATM   32  C   UNK N   1      20.912  18.186   2.916  0.00  0.00     0.047 A 
HETATM   33 Cl   UNK N   1      20.625  19.839   3.448  0.00  0.00    -0.084 Cl
HETATM   34  C   UNK N   1      20.081  17.676   1.915  0.00  0.00     0.048 A 
HETATM   35  C   UNK N   1      20.253  16.377   1.444  0.00  0.00     0.035 A 
HETATM   36 Cl   UNK N   1      19.201  15.762   0.185  0.00  0.00    -0.084 Cl
HETATM   37  C   UNK N   1      21.260  15.571   1.975  0.00  0.00     0.024 A 
HETATM   38  C   UNK N   1      22.096  16.064   2.984  0.00  0.00     0.016 A 
ENDBRANCH   3  31
TORSDOF 8
ENDMDL
MODEL 5
REMARK VINA RESULT:      -7.5      3.730     10.835
REMARK  8 active torsions:
REMARK  status: ('A' for Active; 'I' for Inactive)
REMARK    1  A    between atoms: O_5  and  C_24 
REMARK    2  A    between atoms: O_5  and  C_29 
REMARK    3  A    between atoms: N_6  and  C_18 
REMARK    4  A    between atoms: N_7  and  C_22 
REMARK    5  A    between atoms: N_8  and  C_21 
REMARK    6  A    between atoms: C_17  and  C_21 
REMARK    7  A    between atoms: C_17  and  C_23 
REMARK    8  A    between atoms: C_19  and  C_24 
ROOT
HETATM    1  O   UNK N   1      33.606  15.718   8.208  0.00  0.00    -0.340 OA
HETATM    2  O   UNK N   1      32.763  17.595   7.145  0.00  0.00    -0.347 OA
HETATM    3  C   UNK N   1      32.755  16.177   7.178  0.00  0.00     0.213 C 
HETATM    4  C   UNK N   1      33.752  16.830   9.038  0.00  0.00     0.173 C 
HETATM    5  C   UNK N   1      33.714  17.976   8.094  0.00  0.00     0.206 C 
ENDROOT
BRANCH   4   6
HETATM    6  C   UNK N   1      35.021  16.766   9.877  0.00  0.00     0.209 C 
BRANCH   6   7
HETATM    7  O   UNK N   1      35.458  15.467   9.918  0.00  0.00    -0.349 OA
BRANCH   7   8
HETATM    8  C   UNK N   1      35.541  14.720  11.032  0.00  0.00     0.069 A 
HETATM    9  C   UNK N   1      36.090  15.310  12.166  0.00  0.00     0.039 A 
HETATM   10  C   UNK N   1      36.135  14.615  13.366  0.00  0.00     0.032 A 
HETATM   11  C   UNK N   1      35.650  13.302  13.450  0.00  0.00     0.030 A 
HETATM   12  C   UNK N   1      35.128  12.690  12.295  0.00  0.00     0.032 A 
HETATM   13  C   UNK N   1      35.064  13.400  11.090  0.00  0.00     0.039 A 
BRANCH  11  14
HETATM   14  N   UNK N   1      35.656  12.624  14.705  0.00  0.00    -0.378 N 
HETATM   15  C   UNK N   1      36.306  11.320  14.786  0.00  0.00     0.153 C 
HETATM   16  C   UNK N   1      36.506  10.838  16.210  0.00  0.00     0.292 C 
HETATM   17  N   UNK N   1      35.283  11.050  16.969  0.00  0.00     0.095 N 
HETATM   18  C   UNK N   1      35.218  12.494  17.174  0.00  0.00     0.292 C 
HETATM   19  C   UNK N   1      34.994  13.236  15.854  0.00  0.00     0.153 C 
BRANCH  17  20
HETATM   20  C   UNK N   1      35.416  10.400  18.278  0.00  0.00     0.215 C 
HETATM   21  C   UNK N   1      35.305  11.427  19.394  0.00  0.00     0.042 C 
HETATM   22  C   UNK N   1      34.318   9.365  18.501  0.00  0.00     0.042 C 
ENDBRANCH  17  20
ENDBRANCH  11  14
ENDBRANCH   7   8
ENDBRANCH   6   7
ENDBRANCH   4   6
BRANCH   3  23
HETATM   23  C   UNK N   1      31.339  15.663   7.481  0.00  0.00     0.224 C 
BRANCH  23  24
HETATM   24  N   UNK N   1      30.393  16.763   7.588  0.00  0.00    -0.281 N 
HETATM   25  N   UNK N   1      29.835  17.389   6.569  0.00  0.00    -0.293 N 
HETATM   26  C   UNK N   1      28.995  18.301   7.092  0.00  0.00     0.198 A 
ATOM     27  HN  UNK N   1      30.007  17.216   5.579  1.00  0.00     0.188 HD
HETATM   28  N   UNK N   1      29.022  18.250   8.444  0.00  0.00    -0.346 N 
HETATM   29  C   UNK N   1      29.909  17.276   8.726  0.00  0.00     0.201 A 
ATOM     30  HN  UNK N   1      28.491  18.823   9.101  1.00  0.00     0.167 HD
ENDBRANCH  23  24
ENDBRANCH   3  23
BRANCH   3  31
HETATM   31  C   UNK N   1      33.209  15.669   5.814  0.00  0.00     0.027 A 
HETATM   32  C   UNK N   1      33.791  14.382   5.657  0.00  0.00     0.047 A 
HETATM   33 Cl   UNK N   1      34.050  13.293   7.016  0.00  0.00    -0.084 Cl
HETATM   34  C   UNK N   1      34.187  13.943   4.392  0.00  0.00     0.048 A 
HETATM   35  C   UNK N   1      34.010  14.752   3.272  0.00  0.00     0.035 A 
HETATM   36 Cl   UNK N   1      34.511  14.176   1.695  0.00  0.00    -0.084 Cl
HETATM   37  C   UNK N   1      33.434  16.015   3.410  0.00  0.00     0.024 A 
HETATM   38  C   UNK N   1      33.039  16.473   4.672  0.00  0.00     0.016 A 
ENDBRANCH   3  31
TORSDOF 8
ENDMDL
MODEL 6
REMARK VINA RESULT:      -7.5      4.844      7.152
REMARK  8 active torsions:
REMARK  status: ('A' for Active; 'I' for Inactive)
REMARK    1  A    between atoms: O_5  and  C_24 
REMARK    2  A    between atoms: O_5  and  C_29 
REMARK    3  A    between atoms: N_6  and  C_18 
REMARK    4  A    between atoms: N_7  and  C_22 
REMARK    5  A    between atoms: N_8  and  C_21 
REMARK    6  A    between atoms: C_17  and  C_21 
REMARK    7  A    between atoms: C_17  and  C_23 
REMARK    8  A    between atoms: C_19  and  C_24 
ROOT
HETATM    1  O   UNK N   1      33.396  14.199   6.338  0.00  0.00    -0.340 OA
HETATM    2  O   UNK N   1      34.896  15.659   7.331  0.00  0.00    -0.347 OA
HETATM    3  C   UNK N   1      33.674  14.957   7.498  0.00  0.00     0.213 C 
HETATM    4  C   UNK N   1      34.632  14.105   5.699  0.00  0.00     0.173 C 
HETATM    5  C   UNK N   1      35.287  15.401   6.015  0.00  0.00     0.206 C 
ENDROOT
BRANCH   4   6
HETATM    6  C   UNK N   1      34.495  13.833   4.207  0.00  0.00     0.209 C 
BRANCH   6   7
HETATM    7  O   UNK N   1      34.151  15.001   3.575  0.00  0.00    -0.349 OA
BRANCH   7   8
HETATM    8  C   UNK N   1      32.939  15.577   3.633  0.00  0.00     0.069 A 
HETATM    9  C   UNK N   1      31.836  14.792   3.313  0.00  0.00     0.039 A 
HETATM   10  C   UNK N   1      30.553  15.307   3.425  0.00  0.00     0.032 A 
HETATM   11  C   UNK N   1      30.347  16.631   3.839  0.00  0.00     0.030 A 
HETATM   12  C   UNK N   1      31.464  17.439   4.127  0.00  0.00     0.032 A 
HETATM   13  C   UNK N   1      32.757  16.911   4.034  0.00  0.00     0.039 A 
BRANCH  11  14
HETATM   14  N   UNK N   1      29.019  17.126   3.999  0.00  0.00    -0.378 N 
HETATM   15  C   UNK N   1      28.815  18.312   4.825  0.00  0.00     0.153 C 
HETATM   16  C   UNK N   1      27.428  18.907   4.684  0.00  0.00     0.292 C 
HETATM   17  N   UNK N   1      26.436  17.845   4.742  0.00  0.00     0.095 N 
HETATM   18  C   UNK N   1      26.565  17.145   3.467  0.00  0.00     0.292 C 
HETATM   19  C   UNK N   1      27.910  16.422   3.360  0.00  0.00     0.153 C 
BRANCH  17  20
HETATM   20  C   UNK N   1      25.098  18.444   4.808  0.00  0.00     0.215 C 
HETATM   21  C   UNK N   1      24.996  19.625   3.856  0.00  0.00     0.042 C 
HETATM   22  C   UNK N   1      24.018  17.444   4.410  0.00  0.00     0.042 C 
ENDBRANCH  17  20
ENDBRANCH  11  14
ENDBRANCH   7   8
ENDBRANCH   6   7
ENDBRANCH   4   6
BRANCH   3  23
HETATM   23  C   UNK N   1      33.785  13.979   8.678  0.00  0.00     0.224 C 
BRANCH  23  24
HETATM   24  N   UNK N   1      34.680  14.492   9.704  0.00  0.00    -0.281 N 
HETATM   25  N   UNK N   1      35.995  14.549   9.606  0.00  0.00    -0.293 N 
HETATM   26  C   UNK N   1      36.439  15.127  10.738  0.00  0.00     0.198 A 
ATOM     27  HN  UNK N   1      36.564  14.220   8.827  1.00  0.00     0.188 HD
HETATM   28  N   UNK N   1      35.402  15.435  11.551  0.00  0.00    -0.346 N 
HETATM   29  C   UNK N   1      34.311  15.024  10.876  0.00  0.00     0.201 A 
ATOM     30  HN  UNK N   1      35.438  15.878  12.470  1.00  0.00     0.167 HD
ENDBRANCH  23  24
ENDBRANCH   3  23
BRANCH   3  31
HETATM   31  C   UNK N   1      32.575  15.977   7.774  0.00  0.00     0.027 A 
HETATM   32  C   UNK N   1      32.871  17.263   8.299  0.00  0.00     0.047 A 
HETATM   33 Cl   UNK N   1      34.513  17.768   8.687  0.00  0.00    -0.084 Cl
HETATM   34  C   UNK N   1      31.842  18.178   8.532  0.00  0.00     0.048 A 
HETATM   35  C   UNK N   1      30.520  17.846   8.245  0.00  0.00     0.035 A 
HETATM   36 Cl   UNK N   1      29.247  19.013   8.542  0.00  0.00    -0.084 Cl
HETATM   37  C   UNK N   1      30.215  16.589   7.724  0.00  0.00     0.024 A 
HETATM   38  C   UNK N   1      31.234  15.658   7.492  0.00  0.00     0.016 A 
ENDBRANCH   3  31
TORSDOF 8
ENDMDL
MODEL 7
REMARK VINA RESULT:      -7.4      9.532     13.555
REMARK  8 active torsions:
REMARK  status: ('A' for Active; 'I' for Inactive)
REMARK    1  A    between atoms: O_5  and  C_24 
REMARK    2  A    between atoms: O_5  and  C_29 
REMARK    3  A    between atoms: N_6  and  C_18 
REMARK    4  A    between atoms: N_7  and  C_22 
REMARK    5  A    between atoms: N_8  and  C_21 
REMARK    6  A    between atoms: C_17  and  C_21 
REMARK    7  A    between atoms: C_17  and  C_23 
REMARK    8  A    between atoms: C_19  and  C_24 
ROOT
HETATM    1  O   UNK N   1      23.391  14.775   4.249  0.00  0.00    -0.340 OA
HETATM    2  O   UNK N   1      22.091  16.476   5.132  0.00  0.00    -0.347 OA
HETATM    3  C   UNK N   1      22.979  16.116   4.086  0.00  0.00     0.213 C 
HETATM    4  C   UNK N   1      22.428  14.233   5.100  0.00  0.00     0.173 C 
HETATM    5  C   UNK N   1      22.065  15.370   5.984  0.00  0.00     0.206 C 
ENDROOT
BRANCH   4   6
HETATM    6  C   UNK N   1      22.937  13.009   5.849  0.00  0.00     0.209 C 
BRANCH   6   7
HETATM    7  O   UNK N   1      23.849  13.415   6.790  0.00  0.00    -0.349 OA
BRANCH   7   8
HETATM    8  C   UNK N   1      25.056  13.934   6.514  0.00  0.00     0.069 A 
HETATM    9  C   UNK N   1      25.887  13.218   5.657  0.00  0.00     0.039 A 
HETATM   10  C   UNK N   1      27.115  13.737   5.275  0.00  0.00     0.032 A 
HETATM   11  C   UNK N   1      27.550  14.978   5.763  0.00  0.00     0.030 A 
HETATM   12  C   UNK N   1      26.728  15.687   6.660  0.00  0.00     0.032 A 
HETATM   13  C   UNK N   1      25.479  15.172   7.027  0.00  0.00     0.039 A 
BRANCH  11  14
HETATM   14  N   UNK N   1      28.793  15.519   5.317  0.00  0.00    -0.378 N 
HETATM   15  C   UNK N   1      29.233  16.794   5.873  0.00  0.00     0.153 C 
HETATM   16  C   UNK N   1      30.680  17.118   5.553  0.00  0.00     0.292 C 
HETATM   17  N   UNK N   1      30.936  16.851   4.146  0.00  0.00     0.095 N 
HETATM   18  C   UNK N   1      30.951  15.395   4.041  0.00  0.00     0.292 C 
HETATM   19  C   UNK N   1      29.566  14.801   4.307  0.00  0.00     0.153 C 
BRANCH  17  20
HETATM   20  C   UNK N   1      32.271  17.355   3.800  0.00  0.00     0.215 C 
HETATM   21  C   UNK N   1      33.102  17.563   5.056  0.00  0.00     0.042 C 
HETATM   22  C   UNK N   1      33.025  16.372   2.912  0.00  0.00     0.042 C 
ENDBRANCH  17  20
ENDBRANCH  11  14
ENDBRANCH   7   8
ENDBRANCH   6   7
ENDBRANCH   4   6
BRANCH   3  23
HETATM   23  C   UNK N   1      22.268  16.222   2.728  0.00  0.00     0.224 C 
BRANCH  23  24
HETATM   24  N   UNK N   1      21.127  17.123   2.802  0.00  0.00    -0.281 N 
HETATM   25  N   UNK N   1      21.183  18.394   3.152  0.00  0.00    -0.293 N 
HETATM   26  C   UNK N   1      19.930  18.876   3.047  0.00  0.00     0.198 A 
ATOM     27  HN  UNK N   1      22.012  18.911   3.444  1.00  0.00     0.188 HD
HETATM   28  N   UNK N   1      19.082  17.907   2.631  0.00  0.00    -0.346 N 
HETATM   29  C   UNK N   1      19.862  16.817   2.487  0.00  0.00     0.201 A 
ATOM     30  HN  UNK N   1      18.079  17.984   2.465  1.00  0.00     0.167 HD
ENDBRANCH  23  24
ENDBRANCH   3  23
BRANCH   3  31
HETATM   31  C   UNK N   1      24.167  17.072   4.123  0.00  0.00     0.027 A 
HETATM   32  C   UNK N   1      25.351  16.812   3.382  0.00  0.00     0.047 A 
HETATM   33 Cl   UNK N   1      25.546  15.372   2.389  0.00  0.00    -0.084 Cl
HETATM   34  C   UNK N   1      26.418  17.713   3.429  0.00  0.00     0.048 A 
HETATM   35  C   UNK N   1      26.332  18.875   4.193  0.00  0.00     0.035 A 
HETATM   36 Cl   UNK N   1      27.681  19.991   4.233  0.00  0.00    -0.084 Cl
HETATM   37  C   UNK N   1      25.173  19.145   4.921  0.00  0.00     0.024 A 
HETATM   38  C   UNK N   1      24.099  18.249   4.890  0.00  0.00     0.016 A 
ENDBRANCH   3  31
TORSDOF 8
ENDMDL
MODEL 8
REMARK VINA RESULT:      -7.4      3.562     10.701
REMARK  8 active torsions:
REMARK  status: ('A' for Active; 'I' for Inactive)
REMARK    1  A    between atoms: O_5  and  C_24 
REMARK    2  A    between atoms: O_5  and  C_29 
REMARK    3  A    between atoms: N_6  and  C_18 
REMARK    4  A    between atoms: N_7  and  C_22 
REMARK    5  A    between atoms: N_8  and  C_21 
REMARK    6  A    between atoms: C_17  and  C_21 
REMARK    7  A    between atoms: C_17  and  C_23 
REMARK    8  A    between atoms: C_19  and  C_24 
ROOT
HETATM    1  O   UNK N   1      34.545  14.735   9.980  0.00  0.00    -0.340 OA
HETATM    2  O   UNK N   1      34.085  16.688   8.824  0.00  0.00    -0.347 OA
HETATM    3  C   UNK N   1      33.868  15.287   8.870  0.00  0.00     0.213 C 
HETATM    4  C   UNK N   1      34.775  15.833  10.809  0.00  0.00     0.173 C 
HETATM    5  C   UNK N   1      34.991  16.950   9.854  0.00  0.00     0.206 C 
ENDROOT
BRANCH   4   6
HETATM    6  C   UNK N   1      35.938  15.607  11.764  0.00  0.00     0.209 C 
BRANCH   6   7
HETATM    7  O   UNK N   1      36.090  14.258  11.964  0.00  0.00    -0.349 OA
BRANCH   7   8
HETATM    8  C   UNK N   1      35.858  13.625  13.126  0.00  0.00     0.069 A 
HETATM    9  C   UNK N   1      34.988  12.539  13.107  0.00  0.00     0.039 A 
HETATM   10  C   UNK N   1      34.766  11.798  14.258  0.00  0.00     0.032 A 
HETATM   11  C   UNK N   1      35.393  12.145  15.464  0.00  0.00     0.030 A 
HETATM   12  C   UNK N   1      36.244  13.266  15.494  0.00  0.00     0.032 A 
HETATM   13  C   UNK N   1      36.485  13.999  14.326  0.00  0.00     0.039 A 
BRANCH  11  14
HETATM   14  N   UNK N   1      35.193  11.339  16.624  0.00  0.00    -0.378 N 
HETATM   15  C   UNK N   1      34.855   9.931  16.441  0.00  0.00     0.153 C 
HETATM   16  C   UNK N   1      34.956   9.121  17.719  0.00  0.00     0.292 C 
HETATM   17  N   UNK N   1      34.322   9.850  18.806  0.00  0.00     0.095 N 
HETATM   18  C   UNK N   1      35.238  10.947  19.104  0.00  0.00     0.292 C 
HETATM   19  C   UNK N   1      35.306  11.948  17.947  0.00  0.00     0.153 C 
BRANCH  17  20
HETATM   20  C   UNK N   1      34.244   8.977  19.984  0.00  0.00     0.215 C 
HETATM   21  C   UNK N   1      34.021   9.802  21.242  0.00  0.00     0.042 C 
HETATM   22  C   UNK N   1      33.085   7.993  19.874  0.00  0.00     0.042 C 
ENDBRANCH  17  20
ENDBRANCH  11  14
ENDBRANCH   7   8
ENDBRANCH   6   7
ENDBRANCH   4   6
BRANCH   3  23
HETATM   23  C   UNK N   1      32.371  14.989   9.043  0.00  0.00     0.224 C 
BRANCH  23  24
HETATM   24  N   UNK N   1      31.557  16.102   8.578  0.00  0.00    -0.281 N 
HETATM   25  N   UNK N   1      31.247  17.169   9.291  0.00  0.00    -0.293 N 
HETATM   26  C   UNK N   1      30.527  17.972   8.486  0.00  0.00     0.198 A 
ATOM     27  HN  UNK N   1      31.502  17.349  10.261  1.00  0.00     0.188 HD
HETATM   28  N   UNK N   1      30.383  17.412   7.262  0.00  0.00    -0.346 N 
HETATM   29  C   UNK N   1      31.039  16.239   7.350  0.00  0.00     0.201 A 
ATOM     30  HN  UNK N   1      29.887  17.793   6.456  1.00  0.00     0.167 HD
ENDBRANCH  23  24
ENDBRANCH   3  23
BRANCH   3  31
HETATM   31  C   UNK N   1      34.366  14.687   7.559  0.00  0.00     0.027 A 
HETATM   32  C   UNK N   1      34.473  13.281   7.381  0.00  0.00     0.047 A 
HETATM   33 Cl   UNK N   1      34.062  12.135   8.652  0.00  0.00    -0.084 Cl
HETATM   34  C   UNK N   1      34.923  12.763   6.164  0.00  0.00     0.048 A 
HETATM   35  C   UNK N   1      35.263  13.612   5.114  0.00  0.00     0.035 A 
HETATM   36 Cl   UNK N   1      35.821  12.938   3.596  0.00  0.00    -0.084 Cl
HETATM   37  C   UNK N   1      35.157  14.994   5.273  0.00  0.00     0.024 A 
HETATM   38  C   UNK N   1      34.715  15.529   6.488  0.00  0.00     0.016 A 
ENDBRANCH   3  31
TORSDOF 8
ENDMDL
MODEL 9
REMARK VINA RESULT:      -7.3      7.163     12.967
REMARK  8 active torsions:
REMARK  status: ('A' for Active; 'I' for Inactive)
REMARK    1  A    between atoms: O_5  and  C_24 
REMARK    2  A    between atoms: O_5  and  C_29 
REMARK    3  A    between atoms: N_6  and  C_18 
REMARK    4  A    between atoms: N_7  and  C_22 
REMARK    5  A    between atoms: N_8  and  C_21 
REMARK    6  A    between atoms: C_17  and  C_21 
REMARK    7  A    between atoms: C_17  and  C_23 
REMARK    8  A    between atoms: C_19  and  C_24 
ROOT
HETATM    1  O   UNK N   1      25.343  17.410   4.728  0.00  0.00    -0.340 OA
HETATM    2  O   UNK N   1      23.387  18.374   3.945  0.00  0.00    -0.347 OA
HETATM    3  C   UNK N   1      23.988  17.174   4.404  0.00  0.00     0.213 C 
HETATM    4  C   UNK N   1      25.410  18.794   4.883  0.00  0.00     0.173 C 
HETATM    5  C   UNK N   1      24.428  19.304   3.892  0.00  0.00     0.206 C 
ENDROOT
BRANCH   4   6
HETATM    6  C   UNK N   1      26.820  19.334   4.685  0.00  0.00     0.209 C 
BRANCH   6   7
HETATM    7  O   UNK N   1      27.650  18.291   4.363  0.00  0.00    -0.349 OA
BRANCH   7   8
HETATM    8  C   UNK N   1      28.660  17.850   5.131  0.00  0.00     0.069 A 
HETATM    9  C   UNK N   1      29.891  17.634   4.518  0.00  0.00     0.039 A 
HETATM   10  C   UNK N   1      30.991  17.250   5.271  0.00  0.00     0.032 A 
HETATM   11  C   UNK N   1      30.877  17.050   6.654  0.00  0.00     0.030 A 
HETATM   12  C   UNK N   1      29.624  17.231   7.270  0.00  0.00     0.032 A 
HETATM   13  C   UNK N   1      28.520  17.640   6.513  0.00  0.00     0.039 A 
BRANCH  11  14
HETATM   14  N   UNK N   1      32.031  16.707   7.419  0.00  0.00    -0.378 N 
HETATM   15  C   UNK N   1      32.301  15.295   7.673  0.00  0.00     0.153 C 
HETATM   16  C   UNK N   1      33.687  15.042   8.231  0.00  0.00     0.292 C 
HETATM   17  N   UNK N   1      33.967  16.002   9.288  0.00  0.00     0.095 N 
HETATM   18  C   UNK N   1      34.177  17.269   8.594  0.00  0.00     0.292 C 
HETATM   19  C   UNK N   1      32.887  17.769   7.941  0.00  0.00     0.153 C 
BRANCH  17  20
HETATM   20  C   UNK N   1      35.219  15.625   9.956  0.00  0.00     0.215 C 
HETATM   21  C   UNK N   1      35.458  16.505  11.172  0.00  0.00     0.042 C 
HETATM   22  C   UNK N   1      35.178  14.180  10.441  0.00  0.00     0.042 C 
ENDBRANCH  17  20
ENDBRANCH  11  14
ENDBRANCH   7   8
ENDBRANCH   6   7
ENDBRANCH   4   6
BRANCH   3  23
HETATM   23  C   UNK N   1      23.284  16.684   5.679  0.00  0.00     0.224 C 
BRANCH  23  24
HETATM   24  N   UNK N   1      23.995  15.561   6.273  0.00  0.00    -0.281 N 
HETATM   25  N   UNK N   1      25.212  15.614   6.780  0.00  0.00    -0.293 N 
HETATM   26  C   UNK N   1      25.479  14.387   7.265  0.00  0.00     0.198 A 
ATOM     27  HN  UNK N   1      25.829  16.425   6.801  1.00  0.00     0.188 HD
HETATM   28  N   UNK N   1      24.428  13.559   7.063  0.00  0.00    -0.346 N 
HETATM   29  C   UNK N   1      23.512  14.323   6.438  0.00  0.00     0.201 A 
ATOM     30  HN  UNK N   1      24.349  12.575   7.325  1.00  0.00     0.167 HD
ENDBRANCH  23  24
ENDBRANCH   3  23
BRANCH   3  31
HETATM   31  C   UNK N   1      23.853  16.126   3.304  0.00  0.00     0.027 A 
HETATM   32  C   UNK N   1      22.581  15.723   2.815  0.00  0.00     0.047 A 
HETATM   33 Cl   UNK N   1      21.076  16.382   3.447  0.00  0.00    -0.084 Cl
HETATM   34  C   UNK N   1      22.492  14.767   1.800  0.00  0.00     0.048 A 
HETATM   35  C   UNK N   1      23.643  14.206   1.252  0.00  0.00     0.035 A 
HETATM   36 Cl   UNK N   1      23.505  13.012  -0.023  0.00  0.00    -0.084 Cl
HETATM   37  C   UNK N   1      24.899  14.595   1.719  0.00  0.00     0.024 A 
HETATM   38  C   UNK N   1      25.004  15.546   2.740  0.00  0.00     0.016 A 
ENDBRANCH   3  31
TORSDOF 8
ENDMDL
