REMARK  8 active torsions:
REMARK  status: ('A' for Active; 'I' for Inactive)
REMARK    1  A    between atoms: O_5  and  C_24 
REMARK    2  A    between atoms: O_5  and  C_29 
REMARK    3  A    between atoms: N_6  and  C_18 
REMARK    4  A    between atoms: N_7  and  C_22 
REMARK    5  A    between atoms: N_8  and  C_21 
REMARK    6  A    between atoms: C_17  and  C_21 
REMARK    7  A    between atoms: C_17  and  C_23 
REMARK    8  A    between atoms: C_19  and  C_24 
ROOT
HETATM    1  O   UNK N   1       3.529  -0.055   0.599  0.00  0.00    -0.340 OA
HETATM    2  O   UNK N   1       2.548  -0.715  -1.393  0.00  0.00    -0.347 OA
HETATM    3  C   UNK N   1       2.784  -1.071  -0.040  0.00  0.00     0.213 C 
HETATM    4  C   UNK N   1       3.346   1.057  -0.222  0.00  0.00     0.173 C 
HETATM    5  C   UNK N   1       3.257   0.473  -1.585  0.00  0.00     0.206 C 
ENDROOT
BRANCH   4   6
HETATM    6  C   UNK N   1       4.458   2.085  -0.065  0.00  0.00     0.209 C 
BRANCH   6   7
HETATM    7  O   UNK N   1       5.527   1.488   0.553  0.00  0.00    -0.349 OA
BRANCH   7   8
HETATM    8  C   UNK N   1       6.803   1.891   0.437  0.00  0.00     0.069 A 
HETATM    9  C   UNK N   1       7.798   1.015   0.859  0.00  0.00     0.039 A 
HETATM   10  C   UNK N   1       9.136   1.343   0.697  0.00  0.00     0.032 A 
HETATM   11  C   UNK N   1       9.508   2.570   0.128  0.00  0.00     0.030 A 
HETATM   12  C   UNK N   1       8.503   3.474  -0.265  0.00  0.00     0.032 A 
HETATM   13  C   UNK N   1       7.153   3.132  -0.121  0.00  0.00     0.039 A 
BRANCH  11  14
HETATM   14  N   UNK N   1      10.888   2.866  -0.079  0.00  0.00    -0.378 N 
HETATM   15  C   UNK N   1      11.870   1.822   0.196  0.00  0.00     0.153 C 
HETATM   16  C   UNK N   1      13.253   2.148  -0.333  0.00  0.00     0.292 C 
HETATM   17  N   UNK N   1      13.590   3.522   0.006  0.00  0.00     0.095 N 
HETATM   18  C   UNK N   1      12.760   4.337  -0.876  0.00  0.00     0.292 C 
HETATM   19  C   UNK N   1      11.275   4.200  -0.530  0.00  0.00     0.153 C 
BRANCH  17  20
HETATM   20  C   UNK N   1      14.999   3.764  -0.328  0.00  0.00     0.215 C 
HETATM   21  C   UNK N   1      15.399   5.181   0.052  0.00  0.00     0.042 C 
HETATM   22  C   UNK N   1      15.922   2.813   0.426  0.00  0.00     0.042 C 
ENDBRANCH  17  20
ENDBRANCH  11  14
ENDBRANCH   7   8
ENDBRANCH   6   7
ENDBRANCH   4   6
BRANCH   3  23
HETATM   23  C   UNK N   1       1.450  -1.211   0.710  0.00  0.00     0.224 C 
BRANCH  23  24
HETATM   24  N   UNK N   1       0.649  -0.002   0.587  0.00  0.00    -0.281 N 
HETATM   25  N   UNK N   1       0.822   1.100   1.292  0.00  0.00    -0.293 N 
HETATM   26  C   UNK N   1      -0.085   1.988   0.844  0.00  0.00     0.198 A 
ATOM     27  HN  UNK N   1       1.508   1.250   2.031  1.00  0.00     0.188 HD
HETATM   28  N   UNK N   1      -0.832   1.445  -0.145  0.00  0.00    -0.346 N 
HETATM   29  C   UNK N   1      -0.349   0.195  -0.284  0.00  0.00     0.201 A 
ATOM     30  HN  UNK N   1      -1.591   1.884  -0.667  1.00  0.00     0.167 HD
ENDBRANCH  23  24
ENDBRANCH   3  23
BRANCH   3  31
HETATM   31  C   UNK N   1       3.528  -2.402  -0.023  0.00  0.00     0.027 A 
HETATM   32  C   UNK N   1       2.940  -3.587  -0.542  0.00  0.00     0.047 A 
HETATM   33 Cl   UNK N   1       1.316  -3.615  -1.221  0.00  0.00    -0.084 Cl
HETATM   34  C   UNK N   1       3.652  -4.789  -0.520  0.00  0.00     0.048 A 
HETATM   35  C   UNK N   1       4.943  -4.839  -0.000  0.00  0.00     0.035 A 
HETATM   36 Cl   UNK N   1       5.817  -6.357   0.012  0.00  0.00    -0.084 Cl
HETATM   37  C   UNK N   1       5.535  -3.682   0.508  0.00  0.00     0.024 A 
HETATM   38  C   UNK N   1       4.832  -2.472   0.500  0.00  0.00     0.016 A 
ENDBRANCH   3  31
TORSDOF 8
