REMARK  2 active torsions:
REMARK  status: ('A' for Active; 'I' for Inactive)
REMARK    1  A    between atoms: C_10  and  O_1 
REMARK    2  A    between atoms: C_11  and  C_20 
ROOT
HETATM    1  O   UNK N   1       0.234  -3.765   0.841  0.00  0.00    -0.293 OA
HETATM    2  C   UNK N   1       6.909  -0.268  -0.234  0.00  0.00    -0.001 C 
HETATM    3  C   UNK N   1       6.825   1.220   0.085  0.00  0.00    -0.027 C 
HETATM    4  C   UNK N   1       5.637  -1.032   0.184  0.00  0.00    -0.002 C 
HETATM    5  C   UNK N   1       4.423  -0.383  -0.566  0.00  0.00     0.031 C 
HETATM    6  C   UNK N   1       3.100  -1.158  -0.272  0.00  0.00    -0.013 C 
HETATM    7  C   UNK N   1       5.648   1.845  -0.654  0.00  0.00     0.042 C 
HETATM    8  C   UNK N   1       4.343   1.141  -0.257  0.00  0.00     0.124 C 
HETATM    9  C   UNK N   1       8.199   1.641  -0.416  0.00  0.00     0.063 C 
HETATM   10  C   UNK N   1       8.249  -0.674   0.373  0.00  0.00     0.006 C 
HETATM   11  C   UNK N   1       5.798  -2.535  -0.156  0.00  0.00     0.014 C 
HETATM   12  C   UNK N   1       9.140   0.566   0.153  0.00  0.00     0.013 C 
HETATM   13  C   UNK N   1       4.658  -3.117  -1.001  0.00  0.00     0.012 C 
HETATM   14  C   UNK N   1       3.332  -2.654  -0.441  0.00  0.00    -0.064 C 
HETATM   15  C   UNK N   1       6.686   1.498   1.594  0.00  0.00     0.016 C 
HETATM   16  C   UNK N   1       2.567  -0.937   1.153  0.00  0.00     0.022 C 
HETATM   17  C   UNK N   1       2.030  -0.713  -1.276  0.00  0.00     0.020 C 
HETATM   18  C   UNK N   1       1.221  -1.672   1.354  0.00  0.00     0.084 C 
HETATM   19  C   UNK N   1       2.390  -3.526  -0.033  0.00  0.00     0.054 C 
HETATM   20  C   UNK N   1       4.811  -4.627  -1.107  0.00  0.00     0.015 C 
HETATM   21  C   UNK N   1       1.207  -3.041   0.709  0.00  0.00     0.149 C 
ENDROOT
BRANCH   9  22
HETATM   22  C   UNK N   1       8.577   3.081  -0.181  0.00  0.00     0.128 C 
HETATM   23  O   UNK N   1       7.900   3.967  -0.677  0.00  0.00    -0.298 OA
HETATM   24  C   UNK N   1       9.781   3.447   0.620  0.00  0.00     0.091 C 
ENDBRANCH   9  22
BRANCH   8  25
HETATM   25  O   UNK N   1       3.289   1.752  -0.936  0.00  0.00    -0.395 OA
HETATM   26  H   UNK N   1       3.291   2.599  -1.408  0.00  0.00     0.210 HD
ENDBRANCH   8  25
TORSDOF 2
