MODEL 1
REMARK VINA RESULT:      -7.6      0.000      0.000
REMARK  2 active torsions:
REMARK  status: ('A' for Active; 'I' for Inactive)
REMARK    1  A    between atoms: C_10  and  O_1 
REMARK    2  A    between atoms: C_11  and  C_20 
ROOT
HETATM    1  O   UNK N   1      34.220  20.089  -5.950  0.00  0.00    -0.293 OA
HETATM    2  C   UNK N   1      27.718  24.024  -5.524  0.00  0.00    -0.001 C 
HETATM    3  C   UNK N   1      27.817  25.172  -4.527  0.00  0.00    -0.027 C 
HETATM    4  C   UNK N   1      29.081  23.354  -5.787  0.00  0.00    -0.002 C 
HETATM    5  C   UNK N   1      29.630  22.835  -4.413  0.00  0.00     0.031 C 
HETATM    6  C   UNK N   1      30.970  22.056  -4.601  0.00  0.00    -0.013 C 
HETATM    7  C   UNK N   1      28.343  24.658  -3.192  0.00  0.00     0.042 C 
HETATM    8  C   UNK N   1      29.717  24.001  -3.385  0.00  0.00     0.124 C 
HETATM    9  C   UNK N   1      26.356  25.600  -4.523  0.00  0.00     0.063 C 
HETATM   10  C   UNK N   1      26.963  24.649  -6.693  0.00  0.00     0.006 C 
HETATM   11  C   UNK N   1      28.908  22.209  -6.817  0.00  0.00     0.014 C 
HETATM   12  C   UNK N   1      25.979  25.624  -6.013  0.00  0.00     0.013 C 
HETATM   13  C   UNK N   1      29.462  20.856  -6.356  0.00  0.00     0.012 C 
HETATM   14  C   UNK N   1      30.829  21.057  -5.741  0.00  0.00    -0.064 C 
HETATM   15  C   UNK N   1      28.719  26.317  -5.025  0.00  0.00     0.016 C 
HETATM   16  C   UNK N   1      32.163  22.966  -4.936  0.00  0.00     0.022 C 
HETATM   17  C   UNK N   1      31.282  21.286  -3.312  0.00  0.00     0.020 C 
HETATM   18  C   UNK N   1      33.469  22.143  -5.037  0.00  0.00     0.084 C 
HETATM   19  C   UNK N   1      31.921  20.429  -6.218  0.00  0.00     0.054 C 
HETATM   20  C   UNK N   1      29.423  19.861  -7.507  0.00  0.00     0.015 C 
HETATM   21  C   UNK N   1      33.264  20.818  -5.738  0.00  0.00     0.149 C 
ENDROOT
BRANCH   9  22
HETATM   22  C   UNK N   1      26.028  26.827  -3.710  0.00  0.00     0.128 C 
HETATM   23  O   UNK N   1      26.070  26.767  -2.492  0.00  0.00    -0.298 OA
HETATM   24  C   UNK N   1      25.621  28.105  -4.363  0.00  0.00     0.091 C 
ENDBRANCH   9  22
BRANCH   8  25
HETATM   25  O   UNK N   1      30.174  23.563  -2.143  0.00  0.00    -0.395 OA
HETATM   26  H   UNK N   1      29.651  23.255  -1.387  0.00  0.00     0.210 HD
ENDBRANCH   8  25
TORSDOF 2
ENDMDL
MODEL 2
REMARK VINA RESULT:      -7.5     10.579     13.808
REMARK  2 active torsions:
REMARK  status: ('A' for Active; 'I' for Inactive)
REMARK    1  A    between atoms: C_10  and  O_1 
REMARK    2  A    between atoms: C_11  and  C_20 
ROOT
HETATM    1  O   UNK N   1      26.303  21.342   7.096  0.00  0.00    -0.293 OA
HETATM    2  C   UNK N   1      31.545  16.088   5.407  0.00  0.00    -0.001 C 
HETATM    3  C   UNK N   1      31.606  15.811   3.910  0.00  0.00    -0.027 C 
HETATM    4  C   UNK N   1      30.652  17.297   5.747  0.00  0.00    -0.002 C 
HETATM    5  C   UNK N   1      29.217  17.001   5.190  0.00  0.00     0.031 C 
HETATM    6  C   UNK N   1      28.219  18.139   5.572  0.00  0.00    -0.013 C 
HETATM    7  C   UNK N   1      30.209  15.516   3.378  0.00  0.00     0.042 C 
HETATM    8  C   UNK N   1      29.276  16.701   3.663  0.00  0.00     0.124 C 
HETATM    9  C   UNK N   1      32.553  14.620   3.934  0.00  0.00     0.063 C 
HETATM   10  C   UNK N   1      33.017  16.118   5.811  0.00  0.00     0.006 C 
HETATM   11  C   UNK N   1      30.648  17.527   7.279  0.00  0.00     0.014 C 
HETATM   12  C   UNK N   1      33.668  15.059   4.898  0.00  0.00     0.013 C 
HETATM   13  C   UNK N   1      29.249  17.594   7.904  0.00  0.00     0.012 C 
HETATM   14  C   UNK N   1      28.360  18.471   7.052  0.00  0.00    -0.064 C 
HETATM   15  C   UNK N   1      32.220  16.979   3.114  0.00  0.00     0.016 C 
HETATM   16  C   UNK N   1      28.448  19.442   4.788  0.00  0.00     0.022 C 
HETATM   17  C   UNK N   1      26.788  17.652   5.316  0.00  0.00     0.020 C 
HETATM   18  C   UNK N   1      27.384  20.500   5.162  0.00  0.00     0.084 C 
HETATM   19  C   UNK N   1      27.752  19.564   7.552  0.00  0.00     0.054 C 
HETATM   20  C   UNK N   1      29.353  18.018   9.361  0.00  0.00     0.015 C 
HETATM   21  C   UNK N   1      27.076  20.514   6.643  0.00  0.00     0.149 C 
ENDROOT
BRANCH   9  22
HETATM   22  C   UNK N   1      32.976  14.083   2.590  0.00  0.00     0.128 C 
HETATM   23  O   UNK N   1      33.886  14.628   1.987  0.00  0.00    -0.298 OA
HETATM   24  C   UNK N   1      32.285  12.918   1.967  0.00  0.00     0.091 C 
ENDBRANCH   9  22
BRANCH   8  25
HETATM   25  O   UNK N   1      28.016  16.404   3.145  0.00  0.00    -0.395 OA
HETATM   26  H   UNK N   1      27.148  16.636   3.510  0.00  0.00     0.210 HD
ENDBRANCH   8  25
TORSDOF 2
ENDMDL
MODEL 3
REMARK VINA RESULT:      -7.3     14.592     15.983
REMARK  2 active torsions:
REMARK  status: ('A' for Active; 'I' for Inactive)
REMARK    1  A    between atoms: C_10  and  O_1 
REMARK    2  A    between atoms: C_11  and  C_20 
ROOT
HETATM    1  O   UNK N   1      22.946  11.219  10.264  0.00  0.00    -0.293 OA
HETATM    2  C   UNK N   1      22.780  16.778   5.067  0.00  0.00    -0.001 C 
HETATM    3  C   UNK N   1      21.429  17.483   5.037  0.00  0.00    -0.027 C 
HETATM    4  C   UNK N   1      22.908  15.803   6.254  0.00  0.00    -0.002 C 
HETATM    5  C   UNK N   1      21.750  14.753   6.136  0.00  0.00     0.031 C 
HETATM    6  C   UNK N   1      21.859  13.665   7.250  0.00  0.00    -0.013 C 
HETATM    7  C   UNK N   1      20.309  16.457   4.914  0.00  0.00     0.042 C 
HETATM    8  C   UNK N   1      20.368  15.469   6.087  0.00  0.00     0.124 C 
HETATM    9  C   UNK N   1      21.649  18.350   3.806  0.00  0.00     0.063 C 
HETATM   10  C   UNK N   1      23.772  17.932   4.947  0.00  0.00     0.006 C 
HETATM   11  C   UNK N   1      24.306  15.135   6.230  0.00  0.00     0.014 C 
HETATM   12  C   UNK N   1      23.057  18.933   4.017  0.00  0.00     0.013 C 
HETATM   13  C   UNK N   1      24.275  13.602   6.272  0.00  0.00     0.012 C 
HETATM   14  C   UNK N   1      23.291  13.150   7.327  0.00  0.00    -0.064 C 
HETATM   15  C   UNK N   1      21.186  18.356   6.283  0.00  0.00     0.016 C 
HETATM   16  C   UNK N   1      21.486  14.185   8.648  0.00  0.00     0.022 C 
HETATM   17  C   UNK N   1      20.936  12.494   6.894  0.00  0.00     0.020 C 
HETATM   18  C   UNK N   1      21.545  13.043   9.690  0.00  0.00     0.084 C 
HETATM   19  C   UNK N   1      23.663  12.364   8.355  0.00  0.00     0.054 C 
HETATM   20  C   UNK N   1      25.686  13.060   6.445  0.00  0.00     0.015 C 
HETATM   21  C   UNK N   1      22.732  12.127   9.478  0.00  0.00     0.149 C 
ENDROOT
BRANCH   9  22
HETATM   22  C   UNK N   1      20.545  19.321   3.474  0.00  0.00     0.128 C 
HETATM   23  O   UNK N   1      20.582  20.451   3.933  0.00  0.00    -0.298 OA
HETATM   24  C   UNK N   1      19.390  18.920   2.620  0.00  0.00     0.091 C 
ENDBRANCH   9  22
BRANCH   8  25
HETATM   25  O   UNK N   1      19.319  14.561   5.951  0.00  0.00    -0.395 OA
HETATM   26  H   UNK N   1      19.119  13.985   5.197  0.00  0.00     0.210 HD
ENDBRANCH   8  25
TORSDOF 2
ENDMDL
MODEL 4
REMARK VINA RESULT:      -7.1      2.469      3.568
REMARK  2 active torsions:
REMARK  status: ('A' for Active; 'I' for Inactive)
REMARK    1  A    between atoms: C_10  and  O_1 
REMARK    2  A    between atoms: C_11  and  C_20 
ROOT
HETATM    1  O   UNK N   1      29.242  20.428  -9.693  0.00  0.00    -0.293 OA
HETATM    2  C   UNK N   1      26.071  25.907  -5.467  0.00  0.00    -0.001 C 
HETATM    3  C   UNK N   1      27.108  26.904  -4.964  0.00  0.00    -0.027 C 
HETATM    4  C   UNK N   1      26.654  24.921  -6.499  0.00  0.00    -0.002 C 
HETATM    5  C   UNK N   1      27.847  24.167  -5.816  0.00  0.00     0.031 C 
HETATM    6  C   UNK N   1      28.440  23.077  -6.763  0.00  0.00    -0.013 C 
HETATM    7  C   UNK N   1      28.259  26.164  -4.294  0.00  0.00     0.042 C 
HETATM    8  C   UNK N   1      28.901  25.182  -5.284  0.00  0.00     0.124 C 
HETATM    9  C   UNK N   1      26.220  27.704  -4.022  0.00  0.00     0.063 C 
HETATM   10  C   UNK N   1      24.904  26.802  -5.877  0.00  0.00     0.006 C 
HETATM   11  C   UNK N   1      25.545  23.950  -6.975  0.00  0.00     0.014 C 
HETATM   12  C   UNK N   1      24.942  27.946  -4.843  0.00  0.00     0.013 C 
HETATM   13  C   UNK N   1      25.907  22.465  -6.846  0.00  0.00     0.012 C 
HETATM   14  C   UNK N   1      27.312  22.245  -7.360  0.00  0.00    -0.064 C 
HETATM   15  C   UNK N   1      27.662  27.802  -6.086  0.00  0.00     0.016 C 
HETATM   16  C   UNK N   1      29.247  23.660  -7.934  0.00  0.00     0.022 C 
HETATM   17  C   UNK N   1      29.350  22.151  -5.946  0.00  0.00     0.020 C 
HETATM   18  C   UNK N   1      29.865  22.529  -8.789  0.00  0.00     0.084 C 
HETATM   19  C   UNK N   1      27.574  21.388  -8.366  0.00  0.00     0.054 C 
HETATM   20  C   UNK N   1      24.843  21.612  -7.520  0.00  0.00     0.015 C 
HETATM   21  C   UNK N   1      28.916  21.366  -8.985  0.00  0.00     0.149 C 
ENDROOT
BRANCH   9  22
HETATM   22  C   UNK N   1      26.857  28.905  -3.371  0.00  0.00     0.128 C 
HETATM   23  O   UNK N   1      27.659  28.741  -2.466  0.00  0.00    -0.298 OA
HETATM   24  C   UNK N   1      26.506  30.293  -3.790  0.00  0.00     0.091 C 
ENDBRANCH   9  22
BRANCH   8  25
HETATM   25  O   UNK N   1      29.960  24.540  -4.643  0.00  0.00    -0.395 OA
HETATM   26  H   UNK N   1      30.632  23.958  -5.032  0.00  0.00     0.210 HD
ENDBRANCH   8  25
TORSDOF 2
ENDMDL
MODEL 5
REMARK VINA RESULT:      -6.9      1.504      2.266
REMARK  2 active torsions:
REMARK  status: ('A' for Active; 'I' for Inactive)
REMARK    1  A    between atoms: C_10  and  O_1 
REMARK    2  A    between atoms: C_11  and  C_20 
ROOT
HETATM    1  O   UNK N   1      36.620  20.349  -6.171  0.00  0.00    -0.293 OA
HETATM    2  C   UNK N   1      29.352  22.545  -5.639  0.00  0.00    -0.001 C 
HETATM    3  C   UNK N   1      29.136  23.507  -4.477  0.00  0.00    -0.027 C 
HETATM    4  C   UNK N   1      30.845  22.262  -5.899  0.00  0.00    -0.002 C 
HETATM    5  C   UNK N   1      31.453  21.668  -4.582  0.00  0.00     0.031 C 
HETATM    6  C   UNK N   1      32.947  21.263  -4.785  0.00  0.00    -0.013 C 
HETATM    7  C   UNK N   1      29.722  22.919  -3.199  0.00  0.00     0.042 C 
HETATM    8  C   UNK N   1      31.220  22.639  -3.387  0.00  0.00     0.124 C 
HETATM    9  C   UNK N   1      27.616  23.579  -4.516  0.00  0.00     0.063 C 
HETATM   10  C   UNK N   1      28.511  23.160  -6.754  0.00  0.00     0.006 C 
HETATM   11  C   UNK N   1      30.989  21.292  -7.098  0.00  0.00     0.014 C 
HETATM   12  C   UNK N   1      27.298  23.756  -6.010  0.00  0.00     0.013 C 
HETATM   13  C   UNK N   1      31.836  20.047  -6.806  0.00  0.00     0.012 C 
HETATM   14  C   UNK N   1      33.091  20.457  -6.069  0.00  0.00    -0.064 C 
HETATM   15  C   UNK N   1      29.754  24.895  -4.730  0.00  0.00     0.016 C 
HETATM   16  C   UNK N   1      33.897  22.467  -4.892  0.00  0.00     0.022 C 
HETATM   17  C   UNK N   1      33.388  20.386  -3.606  0.00  0.00     0.020 C 
HETATM   18  C   UNK N   1      35.365  21.996  -5.018  0.00  0.00     0.084 C 
HETATM   19  C   UNK N   1      34.319  20.185  -6.553  0.00  0.00     0.054 C 
HETATM   20  C   UNK N   1      32.078  19.272  -8.092  0.00  0.00     0.015 C 
HETATM   21  C   UNK N   1      35.511  20.792  -5.923  0.00  0.00     0.149 C 
ENDROOT
BRANCH   9  22
HETATM   22  C   UNK N   1      26.973  24.546  -3.556  0.00  0.00     0.128 C 
HETATM   23  O   UNK N   1      26.895  24.254  -2.373  0.00  0.00    -0.298 OA
HETATM   24  C   UNK N   1      26.402  25.842  -4.024  0.00  0.00     0.091 C 
ENDBRANCH   9  22
BRANCH   8  25
HETATM   25  O   UNK N   1      31.724  22.122  -2.194  0.00  0.00    -0.395 OA
HETATM   26  H   UNK N   1      31.241  21.671  -1.485  0.00  0.00     0.210 HD
ENDBRANCH   8  25
TORSDOF 2
ENDMDL
MODEL 6
REMARK VINA RESULT:      -6.8     11.673     14.510
REMARK  2 active torsions:
REMARK  status: ('A' for Active; 'I' for Inactive)
REMARK    1  A    between atoms: C_10  and  O_1 
REMARK    2  A    between atoms: C_11  and  C_20 
ROOT
HETATM    1  O   UNK N   1      35.415  17.789   9.924  0.00  0.00    -0.293 OA
HETATM    2  C   UNK N   1      30.759  14.124   5.144  0.00  0.00    -0.001 C 
HETATM    3  C   UNK N   1      29.984  15.092   4.258  0.00  0.00    -0.027 C 
HETATM    4  C   UNK N   1      31.861  14.828   5.961  0.00  0.00    -0.002 C 
HETATM    5  C   UNK N   1      31.174  15.934   6.834  0.00  0.00     0.031 C 
HETATM    6  C   UNK N   1      32.209  16.638   7.767  0.00  0.00    -0.013 C 
HETATM    7  C   UNK N   1      29.313  16.158   5.114  0.00  0.00     0.042 C 
HETATM    8  C   UNK N   1      30.367  16.916   5.934  0.00  0.00     0.124 C 
HETATM    9  C   UNK N   1      29.036  14.097   3.605  0.00  0.00     0.063 C 
HETATM   10  C   UNK N   1      31.152  13.012   4.177  0.00  0.00     0.006 C 
HETATM   11  C   UNK N   1      32.614  13.786   6.825  0.00  0.00     0.014 C 
HETATM   12  C   UNK N   1      29.950  12.924   3.214  0.00  0.00     0.013 C 
HETATM   13  C   UNK N   1      32.685  14.135   8.317  0.00  0.00     0.012 C 
HETATM   14  C   UNK N   1      33.060  15.591   8.474  0.00  0.00    -0.064 C 
HETATM   15  C   UNK N   1      30.874  15.772   3.200  0.00  0.00     0.016 C 
HETATM   16  C   UNK N   1      33.169  17.576   7.017  0.00  0.00     0.022 C 
HETATM   17  C   UNK N   1      31.452  17.449   8.826  0.00  0.00     0.020 C 
HETATM   18  C   UNK N   1      34.117  18.294   8.006  0.00  0.00     0.084 C 
HETATM   19  C   UNK N   1      34.153  15.973   9.162  0.00  0.00     0.054 C 
HETATM   20  C   UNK N   1      33.607  13.160   9.034  0.00  0.00     0.015 C 
HETATM   21  C   UNK N   1      34.607  17.378   9.107  0.00  0.00     0.149 C 
ENDROOT
BRANCH   9  22
HETATM   22  C   UNK N   1      28.130  14.650   2.535  0.00  0.00     0.128 C 
HETATM   23  O   UNK N   1      28.465  14.566   1.364  0.00  0.00    -0.298 OA
HETATM   24  C   UNK N   1      26.845  15.325   2.878  0.00  0.00     0.091 C 
ENDBRANCH   9  22
BRANCH   8  25
HETATM   25  O   UNK N   1      29.718  17.894   6.688  0.00  0.00    -0.395 OA
HETATM   26  H   UNK N   1      28.803  17.895   7.009  0.00  0.00     0.210 HD
ENDBRANCH   8  25
TORSDOF 2
ENDMDL
MODEL 7
REMARK VINA RESULT:      -6.8      1.887      3.647
REMARK  2 active torsions:
REMARK  status: ('A' for Active; 'I' for Inactive)
REMARK    1  A    between atoms: C_10  and  O_1 
REMARK    2  A    between atoms: C_11  and  C_20 
ROOT
HETATM    1  O   UNK N   1      36.579  20.157  -4.431  0.00  0.00    -0.293 OA
HETATM    2  C   UNK N   1      30.435  24.643  -4.707  0.00  0.00    -0.001 C 
HETATM    3  C   UNK N   1      29.158  23.871  -4.400  0.00  0.00    -0.027 C 
HETATM    4  C   UNK N   1      31.704  23.809  -4.443  0.00  0.00    -0.002 C 
HETATM    5  C   UNK N   1      31.622  22.520  -5.331  0.00  0.00     0.031 C 
HETATM    6  C   UNK N   1      32.917  21.659  -5.196  0.00  0.00    -0.013 C 
HETATM    7  C   UNK N   1      29.080  22.624  -5.273  0.00  0.00     0.042 C 
HETATM    8  C   UNK N   1      30.310  21.736  -5.033  0.00  0.00     0.124 C 
HETATM    9  C   UNK N   1      28.145  24.957  -4.735  0.00  0.00     0.063 C 
HETATM   10  C   UNK N   1      30.237  25.951  -3.946  0.00  0.00     0.006 C 
HETATM   11  C   UNK N   1      32.960  24.659  -4.762  0.00  0.00     0.014 C 
HETATM   12  C   UNK N   1      28.721  26.213  -4.059  0.00  0.00     0.013 C 
HETATM   13  C   UNK N   1      33.941  23.995  -5.737  0.00  0.00     0.012 C 
HETATM   14  C   UNK N   1      34.144  22.550  -5.337  0.00  0.00    -0.064 C 
HETATM   15  C   UNK N   1      29.051  23.464  -2.918  0.00  0.00     0.016 C 
HETATM   16  C   UNK N   1      33.031  20.936  -3.844  0.00  0.00     0.022 C 
HETATM   17  C   UNK N   1      32.939  20.616  -6.320  0.00  0.00     0.020 C 
HETATM   18  C   UNK N   1      34.296  20.047  -3.804  0.00  0.00     0.084 C 
HETATM   19  C   UNK N   1      35.363  22.059  -5.044  0.00  0.00     0.054 C 
HETATM   20  C   UNK N   1      35.219  24.815  -5.824  0.00  0.00     0.015 C 
HETATM   21  C   UNK N   1      35.493  20.713  -4.447  0.00  0.00     0.149 C 
ENDROOT
BRANCH   9  22
HETATM   22  C   UNK N   1      26.702  24.625  -4.456  0.00  0.00     0.128 C 
HETATM   23  O   UNK N   1      26.248  24.816  -3.339  0.00  0.00    -0.298 OA
HETATM   24  C   UNK N   1      25.822  24.039  -5.509  0.00  0.00     0.091 C 
ENDBRANCH   9  22
BRANCH   8  25
HETATM   25  O   UNK N   1      30.193  20.599  -5.832  0.00  0.00    -0.395 OA
HETATM   26  H   UNK N   1      30.887  20.149  -6.339  0.00  0.00     0.210 HD
ENDBRANCH   8  25
TORSDOF 2
ENDMDL
MODEL 8
REMARK VINA RESULT:      -6.7     15.519     17.487
REMARK  2 active torsions:
REMARK  status: ('A' for Active; 'I' for Inactive)
REMARK    1  A    between atoms: C_10  and  O_1 
REMARK    2  A    between atoms: C_11  and  C_20 
ROOT
HETATM    1  O   UNK N   1      20.406  17.773   2.223  0.00  0.00    -0.293 OA
HETATM    2  C   UNK N   1      23.438  13.893   8.028  0.00  0.00    -0.001 C 
HETATM    3  C   UNK N   1      22.373  13.426   9.013  0.00  0.00    -0.027 C 
HETATM    4  C   UNK N   1      22.830  14.486   6.741  0.00  0.00    -0.002 C 
HETATM    5  C   UNK N   1      21.911  15.686   7.157  0.00  0.00     0.031 C 
HETATM    6  C   UNK N   1      21.325  16.407   5.903  0.00  0.00    -0.013 C 
HETATM    7  C   UNK N   1      21.489  14.600   9.419  0.00  0.00     0.042 C 
HETATM    8  C   UNK N   1      20.832  15.218   8.177  0.00  0.00     0.124 C 
HETATM    9  C   UNK N   1      23.288  12.898  10.108  0.00  0.00     0.063 C 
HETATM   10  C   UNK N   1      24.360  12.682   7.920  0.00  0.00     0.006 C 
HETATM   11  C   UNK N   1      23.966  14.924   5.783  0.00  0.00     0.014 C 
HETATM   12  C   UNK N   1      24.342  12.082   9.341  0.00  0.00     0.013 C 
HETATM   13  C   UNK N   1      23.862  16.377   5.304  0.00  0.00     0.012 C 
HETATM   14  C   UNK N   1      22.436  16.669   4.894  0.00  0.00    -0.064 C 
HETATM   15  C   UNK N   1      21.492  12.296   8.446  0.00  0.00     0.016 C 
HETATM   16  C   UNK N   1      20.238  15.593   5.182  0.00  0.00     0.022 C 
HETATM   17  C   UNK N   1      20.731  17.753   6.336  0.00  0.00     0.020 C 
HETATM   18  C   UNK N   1      19.651  16.393   3.996  0.00  0.00     0.084 C 
HETATM   19  C   UNK N   1      22.126  17.088   3.652  0.00  0.00     0.054 C 
HETATM   20  C   UNK N   1      24.901  16.642   4.224  0.00  0.00     0.015 C 
HETATM   21  C   UNK N   1      20.712  17.149   3.226  0.00  0.00     0.149 C 
ENDROOT
BRANCH   9  22
HETATM   22  C   UNK N   1      22.607  12.223  11.271  0.00  0.00     0.128 C 
HETATM   23  O   UNK N   1      21.412  11.983  11.210  0.00  0.00    -0.298 OA
HETATM   24  C   UNK N   1      23.357  11.870  12.512  0.00  0.00     0.091 C 
ENDBRANCH   9  22
BRANCH   8  25
HETATM   25  O   UNK N   1      20.018  16.272   8.589  0.00  0.00    -0.395 OA
HETATM   26  H   UNK N   1      20.169  16.899   9.313  0.00  0.00     0.210 HD
ENDBRANCH   8  25
TORSDOF 2
ENDMDL
MODEL 9
REMARK VINA RESULT:      -6.7      1.751      3.156
REMARK  2 active torsions:
REMARK  status: ('A' for Active; 'I' for Inactive)
REMARK    1  A    between atoms: C_10  and  O_1 
REMARK    2  A    between atoms: C_11  and  C_20 
ROOT
HETATM    1  O   UNK N   1      33.214  19.749  -4.481  0.00  0.00    -0.293 OA
HETATM    2  C   UNK N   1      29.147  26.182  -4.642  0.00  0.00    -0.001 C 
HETATM    3  C   UNK N   1      27.649  25.905  -4.593  0.00  0.00    -0.027 C 
HETATM    4  C   UNK N   1      29.988  24.915  -4.390  0.00  0.00    -0.002 C 
HETATM    5  C   UNK N   1      29.596  23.858  -5.479  0.00  0.00     0.031 C 
HETATM    6  C   UNK N   1      30.471  22.571  -5.356  0.00  0.00    -0.013 C 
HETATM    7  C   UNK N   1      27.274  24.883  -5.660  0.00  0.00     0.042 C 
HETATM    8  C   UNK N   1      28.063  23.584  -5.446  0.00  0.00     0.124 C 
HETATM    9  C   UNK N   1      27.145  27.318  -4.848  0.00  0.00     0.063 C 
HETATM   10  C   UNK N   1      29.306  27.374  -3.702  0.00  0.00     0.006 C 
HETATM   11  C   UNK N   1      31.495  25.273  -4.440  0.00  0.00     0.014 C 
HETATM   12  C   UNK N   1      28.013  28.187  -3.923  0.00  0.00     0.013 C 
HETATM   13  C   UNK N   1      32.318  24.411  -5.405  0.00  0.00     0.012 C 
HETATM   14  C   UNK N   1      31.939  22.958  -5.227  0.00  0.00    -0.064 C 
HETATM   15  C   UNK N   1      27.182  25.398  -3.215  0.00  0.00     0.016 C 
HETATM   16  C   UNK N   1      30.117  21.707  -4.135  0.00  0.00     0.022 C 
HETATM   17  C   UNK N   1      30.298  21.729  -6.626  0.00  0.00     0.020 C 
HETATM   18  C   UNK N   1      30.969  20.416  -4.113  0.00  0.00     0.084 C 
HETATM   19  C   UNK N   1      32.849  22.022  -4.896  0.00  0.00     0.054 C 
HETATM   20  C   UNK N   1      33.799  24.707  -5.230  0.00  0.00     0.015 C 
HETATM   21  C   UNK N   1      32.407  20.664  -4.515  0.00  0.00     0.149 C 
ENDROOT
BRANCH   9  22
HETATM   22  C   UNK N   1      25.652  27.512  -4.773  0.00  0.00     0.128 C 
HETATM   23  O   UNK N   1      25.163  28.022  -3.778  0.00  0.00    -0.298 OA
HETATM   24  C   UNK N   1      24.754  27.064  -5.877  0.00  0.00     0.091 C 
ENDBRANCH   9  22
BRANCH   8  25
HETATM   25  O   UNK N   1      27.680  22.669  -6.426  0.00  0.00    -0.395 OA
HETATM   26  H   UNK N   1      27.408  21.745  -6.310  0.00  0.00     0.210 HD
ENDBRANCH   8  25
TORSDOF 2
ENDMDL
