MODEL 1
REMARK VINA RESULT:      -6.8      0.000      0.000
REMARK  6 active torsions:
REMARK  status: ('A' for Active; 'I' for Inactive)
REMARK    1  A    between atoms: O_1  and  C_19 
REMARK    2  A    between atoms: O_2  and  C_20 
REMARK    3  A    between atoms: C_3  and  C_5 
REMARK    4  A    between atoms: C_3  and  C_7 
REMARK    5  A    between atoms: C_4  and  C_6 
REMARK    6  A    between atoms: C_4  and  C_8 
ROOT
HETATM    1  C   UNK N   1      36.197  13.602  14.719  0.00  0.00    -0.041 C 
HETATM    2  C   UNK N   1      35.323  12.684  15.371  0.00  0.00    -0.041 C 
ENDROOT
BRANCH   1   3
HETATM    3  C   UNK N   1      37.302  14.450  15.388  0.00  0.00     0.035 C 
HETATM    4  C   UNK N   1      37.416  15.725  16.198  0.00  0.00     0.010 C 
ENDBRANCH   1   3
BRANCH   1   5
HETATM    5  C   UNK N   1      36.199  13.917  13.224  0.00  0.00    -0.029 A 
HETATM    6  C   UNK N   1      35.778  15.120  12.671  0.00  0.00     0.014 A 
HETATM    7  C   UNK N   1      35.800  15.362  11.296  0.00  0.00     0.037 A 
HETATM    8  C   UNK N   1      36.255  14.377  10.427  0.00  0.00     0.065 A 
HETATM    9  C   UNK N   1      36.687  13.156  10.935  0.00  0.00     0.037 A 
HETATM   10  C   UNK N   1      36.659  12.931  12.312  0.00  0.00     0.014 A 
BRANCH   8  11
HETATM   11  O   UNK N   1      36.278  14.605   9.104  0.00  0.00    -0.361 OA
HETATM   12  H   UNK N   1      36.845  14.103   8.552  0.00  0.00     0.217 HD
ENDBRANCH   8  11
ENDBRANCH   1   5
BRANCH   2  13
HETATM   13  C   UNK N   1      34.217  11.833  14.703  0.00  0.00     0.035 C 
HETATM   14  C   UNK N   1      34.112  10.584  13.853  0.00  0.00     0.010 C 
ENDBRANCH   2  13
BRANCH   2  15
HETATM   15  C   UNK N   1      35.320  12.369  16.868  0.00  0.00    -0.029 A 
HETATM   16  C   UNK N   1      35.071  13.302  17.867  0.00  0.00     0.014 A 
HETATM   17  C   UNK N   1      35.079  12.968  19.223  0.00  0.00     0.037 A 
HETATM   18  C   UNK N   1      35.343  11.659  19.612  0.00  0.00     0.065 A 
HETATM   19  C   UNK N   1      35.596  10.690  18.645  0.00  0.00     0.037 A 
HETATM   20  C   UNK N   1      35.584  11.043  17.293  0.00  0.00     0.014 A 
BRANCH  18  21
HETATM   21  O   UNK N   1      35.350  11.333  20.914  0.00  0.00    -0.361 OA
HETATM   22  H   UNK N   1      36.037  10.795  21.258  0.00  0.00     0.217 HD
ENDBRANCH  18  21
ENDBRANCH   2  15
TORSDOF 6
ENDMDL
MODEL 2
REMARK VINA RESULT:      -6.8      0.102      7.279
REMARK  6 active torsions:
REMARK  status: ('A' for Active; 'I' for Inactive)
REMARK    1  A    between atoms: O_1  and  C_19 
REMARK    2  A    between atoms: O_2  and  C_20 
REMARK    3  A    between atoms: C_3  and  C_5 
REMARK    4  A    between atoms: C_3  and  C_7 
REMARK    5  A    between atoms: C_4  and  C_6 
REMARK    6  A    between atoms: C_4  and  C_8 
ROOT
HETATM    1  C   UNK N   1      35.311  12.621  15.393  0.00  0.00    -0.041 C 
HETATM    2  C   UNK N   1      36.191  13.526  14.731  0.00  0.00    -0.041 C 
ENDROOT
BRANCH   1   3
HETATM    3  C   UNK N   1      34.203  11.769  14.734  0.00  0.00     0.035 C 
HETATM    4  C   UNK N   1      34.092  10.612  13.762  0.00  0.00     0.010 C 
ENDBRANCH   1   3
BRANCH   1   5
HETATM    5  C   UNK N   1      35.304  12.327  16.893  0.00  0.00    -0.029 A 
HETATM    6  C   UNK N   1      35.086  13.278  17.882  0.00  0.00     0.014 A 
HETATM    7  C   UNK N   1      35.087  12.960  19.242  0.00  0.00     0.037 A 
HETATM    8  C   UNK N   1      35.315  11.650  19.646  0.00  0.00     0.065 A 
HETATM    9  C   UNK N   1      35.538  10.663  18.691  0.00  0.00     0.037 A 
HETATM   10  C   UNK N   1      35.532  10.998  17.336  0.00  0.00     0.014 A 
BRANCH   8  11
HETATM   11  O   UNK N   1      35.319  11.339  20.952  0.00  0.00    -0.361 OA
HETATM   12  H   UNK N   1      35.182  10.453  21.223  0.00  0.00     0.217 HD
ENDBRANCH   8  11
ENDBRANCH   1   5
BRANCH   2  13
HETATM   13  C   UNK N   1      37.301  14.378  15.389  0.00  0.00     0.035 C 
HETATM   14  C   UNK N   1      37.427  15.701  16.116  0.00  0.00     0.010 C 
ENDBRANCH   2  13
BRANCH   2  15
HETATM   15  C   UNK N   1      36.197  13.821  13.230  0.00  0.00    -0.029 A 
HETATM   16  C   UNK N   1      36.600  12.919  12.252  0.00  0.00     0.014 A 
HETATM   17  C   UNK N   1      36.589  13.235  10.893  0.00  0.00     0.037 A 
HETATM   18  C   UNK N   1      36.162  14.491  10.476  0.00  0.00     0.065 A 
HETATM   19  C   UNK N   1      35.749  15.426  11.420  0.00  0.00     0.037 A 
HETATM   20  C   UNK N   1      35.767  15.093  12.777  0.00  0.00     0.014 A 
BRANCH  18  21
HETATM   21  O   UNK N   1      36.149  14.798   9.169  0.00  0.00    -0.361 OA
HETATM   22  H   UNK N   1      36.939  14.741   8.668  0.00  0.00     0.217 HD
ENDBRANCH  18  21
ENDBRANCH   2  15
TORSDOF 6
ENDMDL
MODEL 3
REMARK VINA RESULT:      -6.4     11.546     15.317
REMARK  6 active torsions:
REMARK  status: ('A' for Active; 'I' for Inactive)
REMARK    1  A    between atoms: O_1  and  C_19 
REMARK    2  A    between atoms: O_2  and  C_20 
REMARK    3  A    between atoms: C_3  and  C_5 
REMARK    4  A    between atoms: C_3  and  C_7 
REMARK    5  A    between atoms: C_4  and  C_6 
REMARK    6  A    between atoms: C_4  and  C_8 
ROOT
HETATM    1  C   UNK N   1      27.484  19.028   6.113  0.00  0.00    -0.041 C 
HETATM    2  C   UNK N   1      26.617  18.379   5.188  0.00  0.00    -0.041 C 
ENDROOT
BRANCH   1   3
HETATM    3  C   UNK N   1      27.504  20.536   6.452  0.00  0.00     0.035 C 
HETATM    4  C   UNK N   1      26.514  21.637   6.772  0.00  0.00     0.010 C 
ENDBRANCH   1   3
BRANCH   1   5
HETATM    5  C   UNK N   1      28.565  18.342   6.949  0.00  0.00    -0.029 A 
HETATM    6  C   UNK N   1      29.593  17.568   6.425  0.00  0.00     0.014 A 
HETATM    7  C   UNK N   1      30.560  16.961   7.231  0.00  0.00     0.037 A 
HETATM    8  C   UNK N   1      30.513  17.124   8.610  0.00  0.00     0.065 A 
HETATM    9  C   UNK N   1      29.502  17.891   9.179  0.00  0.00     0.037 A 
HETATM   10  C   UNK N   1      28.544  18.491   8.360  0.00  0.00     0.014 A 
BRANCH   8  11
HETATM   11  O   UNK N   1      31.439  16.542   9.389  0.00  0.00    -0.361 OA
HETATM   12  H   UNK N   1      31.176  16.037  10.132  0.00  0.00     0.217 HD
ENDBRANCH   8  11
ENDBRANCH   1   5
BRANCH   2  13
HETATM   13  C   UNK N   1      26.596  16.870   4.849  0.00  0.00     0.035 C 
HETATM   14  C   UNK N   1      27.280  15.918   3.891  0.00  0.00     0.010 C 
ENDBRANCH   2  13
BRANCH   2  15
HETATM   15  C   UNK N   1      25.536  19.065   4.351  0.00  0.00    -0.029 A 
HETATM   16  C   UNK N   1      25.785  20.033   3.386  0.00  0.00     0.014 A 
HETATM   17  C   UNK N   1      24.764  20.633   2.646  0.00  0.00     0.037 A 
HETATM   18  C   UNK N   1      23.441  20.263   2.864  0.00  0.00     0.065 A 
HETATM   19  C   UNK N   1      23.145  19.296   3.820  0.00  0.00     0.037 A 
HETATM   20  C   UNK N   1      24.179  18.707   4.551  0.00  0.00     0.014 A 
BRANCH  18  21
HETATM   21  O   UNK N   1      22.457  20.836   2.154  0.00  0.00    -0.361 OA
HETATM   22  H   UNK N   1      21.754  21.271   2.596  0.00  0.00     0.217 HD
ENDBRANCH  18  21
ENDBRANCH   2  15
TORSDOF 6
ENDMDL
MODEL 4
REMARK VINA RESULT:      -6.3      7.931     11.401
REMARK  6 active torsions:
REMARK  status: ('A' for Active; 'I' for Inactive)
REMARK    1  A    between atoms: O_1  and  C_19 
REMARK    2  A    between atoms: O_2  and  C_20 
REMARK    3  A    between atoms: C_3  and  C_5 
REMARK    4  A    between atoms: C_3  and  C_7 
REMARK    5  A    between atoms: C_4  and  C_6 
REMARK    6  A    between atoms: C_4  and  C_8 
ROOT
HETATM    1  C   UNK N   1      30.006  17.318   6.901  0.00  0.00    -0.041 C 
HETATM    2  C   UNK N   1      31.373  17.069   6.586  0.00  0.00    -0.041 C 
ENDROOT
BRANCH   1   3
HETATM    3  C   UNK N   1      29.428  17.634   8.300  0.00  0.00     0.035 C 
HETATM    4  C   UNK N   1      29.726  18.554   9.465  0.00  0.00     0.010 C 
ENDBRANCH   1   3
BRANCH   1   5
HETATM    5  C   UNK N   1      28.850  17.319   5.901  0.00  0.00    -0.029 A 
HETATM    6  C   UNK N   1      27.928  16.289   5.762  0.00  0.00     0.014 A 
HETATM    7  C   UNK N   1      26.886  16.336   4.833  0.00  0.00     0.037 A 
HETATM    8  C   UNK N   1      26.746  17.443   4.005  0.00  0.00     0.065 A 
HETATM    9  C   UNK N   1      27.646  18.499   4.109  0.00  0.00     0.037 A 
HETATM   10  C   UNK N   1      28.681  18.437   5.043  0.00  0.00     0.014 A 
BRANCH   8  11
HETATM   11  O   UNK N   1      25.747  17.492   3.110  0.00  0.00    -0.361 OA
HETATM   12  H   UNK N   1      24.856  17.489   3.401  0.00  0.00     0.217 HD
ENDBRANCH   8  11
ENDBRANCH   1   5
BRANCH   2  13
HETATM   13  C   UNK N   1      31.953  16.754   5.187  0.00  0.00     0.035 C 
HETATM   14  C   UNK N   1      32.377  17.508   3.945  0.00  0.00     0.010 C 
ENDBRANCH   2  13
BRANCH   2  15
HETATM   15  C   UNK N   1      32.530  17.067   7.587  0.00  0.00    -0.029 A 
HETATM   16  C   UNK N   1      32.738  16.085   8.548  0.00  0.00     0.014 A 
HETATM   17  C   UNK N   1      33.809  16.126   9.441  0.00  0.00     0.037 A 
HETATM   18  C   UNK N   1      34.717  17.179   9.387  0.00  0.00     0.065 A 
HETATM   19  C   UNK N   1      34.549  18.185   8.440  0.00  0.00     0.037 A 
HETATM   20  C   UNK N   1      33.471  18.127   7.553  0.00  0.00     0.014 A 
BRANCH  18  21
HETATM   21  O   UNK N   1      35.749  17.222  10.244  0.00  0.00    -0.361 OA
HETATM   22  H   UNK N   1      36.627  17.241   9.917  0.00  0.00     0.217 HD
ENDBRANCH  18  21
ENDBRANCH   2  15
TORSDOF 6
ENDMDL
MODEL 5
REMARK VINA RESULT:      -6.3      7.942     12.274
REMARK  6 active torsions:
REMARK  status: ('A' for Active; 'I' for Inactive)
REMARK    1  A    between atoms: O_1  and  C_19 
REMARK    2  A    between atoms: O_2  and  C_20 
REMARK    3  A    between atoms: C_3  and  C_5 
REMARK    4  A    between atoms: C_3  and  C_7 
REMARK    5  A    between atoms: C_4  and  C_6 
REMARK    6  A    between atoms: C_4  and  C_8 
ROOT
HETATM    1  C   UNK N   1      31.352  17.073   6.598  0.00  0.00    -0.041 C 
HETATM    2  C   UNK N   1      29.986  17.325   6.912  0.00  0.00    -0.041 C 
ENDROOT
BRANCH   1   3
HETATM    3  C   UNK N   1      31.931  16.755   5.200  0.00  0.00     0.035 C 
HETATM    4  C   UNK N   1      32.270  17.494   3.922  0.00  0.00     0.010 C 
ENDBRANCH   1   3
BRANCH   1   5
HETATM    5  C   UNK N   1      32.508  17.070   7.599  0.00  0.00    -0.029 A 
HETATM    6  C   UNK N   1      32.705  16.097   8.572  0.00  0.00     0.014 A 
HETATM    7  C   UNK N   1      33.778  16.137   9.465  0.00  0.00     0.037 A 
HETATM    8  C   UNK N   1      34.696  17.179   9.399  0.00  0.00     0.065 A 
HETATM    9  C   UNK N   1      34.539  18.175   8.441  0.00  0.00     0.037 A 
HETATM   10  C   UNK N   1      33.461  18.120   7.555  0.00  0.00     0.014 A 
BRANCH   8  11
HETATM   11  O   UNK N   1      35.729  17.222  10.255  0.00  0.00    -0.361 OA
HETATM   12  H   UNK N   1      35.625  16.903  11.130  0.00  0.00     0.217 HD
ENDBRANCH   8  11
ENDBRANCH   1   5
BRANCH   2  13
HETATM   13  C   UNK N   1      29.406  17.643   8.310  0.00  0.00     0.035 C 
HETATM   14  C   UNK N   1      29.719  18.548   9.483  0.00  0.00     0.010 C 
ENDBRANCH   2  13
BRANCH   2  15
HETATM   15  C   UNK N   1      28.829  17.327   5.910  0.00  0.00    -0.029 A 
HETATM   16  C   UNK N   1      27.965  16.259   5.705  0.00  0.00     0.014 A 
HETATM   17  C   UNK N   1      26.922  16.307   4.778  0.00  0.00     0.037 A 
HETATM   18  C   UNK N   1      26.721  17.456   4.021  0.00  0.00     0.065 A 
HETATM   19  C   UNK N   1      27.562  18.551   4.193  0.00  0.00     0.037 A 
HETATM   20  C   UNK N   1      28.600  18.485   5.126  0.00  0.00     0.014 A 
BRANCH  18  21
HETATM   21  O   UNK N   1      25.719  17.506   3.129  0.00  0.00    -0.361 OA
HETATM   22  H   UNK N   1      25.054  18.162   3.209  0.00  0.00     0.217 HD
ENDBRANCH  18  21
ENDBRANCH   2  15
TORSDOF 6
ENDMDL
MODEL 6
REMARK VINA RESULT:      -6.3     11.563     14.591
REMARK  6 active torsions:
REMARK  status: ('A' for Active; 'I' for Inactive)
REMARK    1  A    between atoms: O_1  and  C_19 
REMARK    2  A    between atoms: O_2  and  C_20 
REMARK    3  A    between atoms: C_3  and  C_5 
REMARK    4  A    between atoms: C_3  and  C_7 
REMARK    5  A    between atoms: C_4  and  C_6 
REMARK    6  A    between atoms: C_4  and  C_8 
ROOT
HETATM    1  C   UNK N   1      26.483  18.298   5.284  0.00  0.00    -0.041 C 
HETATM    2  C   UNK N   1      27.444  18.987   6.078  0.00  0.00    -0.041 C 
ENDROOT
BRANCH   1   3
HETATM    3  C   UNK N   1      26.361  16.767   5.110  0.00  0.00     0.035 C 
HETATM    4  C   UNK N   1      25.941  15.565   5.930  0.00  0.00     0.010 C 
ENDBRANCH   1   3
BRANCH   1   5
HETATM    5  C   UNK N   1      25.384  18.957   4.449  0.00  0.00    -0.029 A 
HETATM    6  C   UNK N   1      24.027  18.694   4.586  0.00  0.00     0.014 A 
HETATM    7  C   UNK N   1      23.058  19.322   3.800  0.00  0.00     0.037 A 
HETATM    8  C   UNK N   1      23.442  20.249   2.838  0.00  0.00     0.065 A 
HETATM    9  C   UNK N   1      24.790  20.545   2.666  0.00  0.00     0.037 A 
HETATM   10  C   UNK N   1      25.745  19.908   3.460  0.00  0.00     0.014 A 
BRANCH   8  11
HETATM   11  O   UNK N   1      22.515  20.856   2.080  0.00  0.00    -0.361 OA
HETATM   12  H   UNK N   1      21.645  20.511   2.039  0.00  0.00     0.217 HD
ENDBRANCH   8  11
ENDBRANCH   1   5
BRANCH   2  13
HETATM   13  C   UNK N   1      27.566  20.519   6.253  0.00  0.00     0.035 C 
HETATM   14  C   UNK N   1      26.675  21.688   6.615  0.00  0.00     0.010 C 
ENDBRANCH   2  13
BRANCH   2  15
HETATM   15  C   UNK N   1      28.545  18.328   6.912  0.00  0.00    -0.029 A 
HETATM   16  C   UNK N   1      29.551  17.523   6.392  0.00  0.00     0.014 A 
HETATM   17  C   UNK N   1      30.535  16.942   7.193  0.00  0.00     0.037 A 
HETATM   18  C   UNK N   1      30.530  17.164   8.566  0.00  0.00     0.065 A 
HETATM   19  C   UNK N   1      29.542  17.964   9.131  0.00  0.00     0.037 A 
HETATM   20  C   UNK N   1      28.565  18.537   8.314  0.00  0.00     0.014 A 
BRANCH  18  21
HETATM   21  O   UNK N   1      31.475  16.608   9.340  0.00  0.00    -0.361 OA
HETATM   22  H   UNK N   1      32.249  17.091   9.554  0.00  0.00     0.217 HD
ENDBRANCH  18  21
ENDBRANCH   2  15
TORSDOF 6
ENDMDL
MODEL 7
REMARK VINA RESULT:      -6.1      8.086     12.405
REMARK  6 active torsions:
REMARK  status: ('A' for Active; 'I' for Inactive)
REMARK    1  A    between atoms: O_1  and  C_19 
REMARK    2  A    between atoms: O_2  and  C_20 
REMARK    3  A    between atoms: C_3  and  C_5 
REMARK    4  A    between atoms: C_3  and  C_7 
REMARK    5  A    between atoms: C_4  and  C_6 
REMARK    6  A    between atoms: C_4  and  C_8 
ROOT
HETATM    1  C   UNK N   1      30.688  17.383   7.278  0.00  0.00    -0.041 C 
HETATM    2  C   UNK N   1      30.439  17.271   5.879  0.00  0.00    -0.041 C 
ENDROOT
BRANCH   1   3
HETATM    3  C   UNK N   1      29.648  17.718   8.372  0.00  0.00     0.035 C 
HETATM    4  C   UNK N   1      29.588  18.479   9.680  0.00  0.00     0.010 C 
ENDBRANCH   1   3
BRANCH   1   5
HETATM    5  C   UNK N   1      32.043  17.191   7.957  0.00  0.00    -0.029 A 
HETATM    6  C   UNK N   1      33.081  18.113   7.920  0.00  0.00     0.014 A 
HETATM    7  C   UNK N   1      34.304  17.893   8.558  0.00  0.00     0.037 A 
HETATM    8  C   UNK N   1      34.514  16.713   9.262  0.00  0.00     0.065 A 
HETATM    9  C   UNK N   1      33.503  15.760   9.327  0.00  0.00     0.037 A 
HETATM   10  C   UNK N   1      32.287  15.996   8.684  0.00  0.00     0.014 A 
BRANCH   8  11
HETATM   11  O   UNK N   1      35.688  16.496   9.877  0.00  0.00    -0.361 OA
HETATM   12  H   UNK N   1      36.165  17.214  10.242  0.00  0.00     0.217 HD
ENDBRANCH   8  11
ENDBRANCH   1   5
BRANCH   2  13
HETATM   13  C   UNK N   1      31.477  16.934   4.783  0.00  0.00     0.035 C 
HETATM   14  C   UNK N   1      32.747  17.528   4.212  0.00  0.00     0.010 C 
ENDBRANCH   2  13
BRANCH   2  15
HETATM   15  C   UNK N   1      29.082  17.465   5.199  0.00  0.00    -0.029 A 
HETATM   16  C   UNK N   1      28.208  16.433   4.878  0.00  0.00     0.014 A 
HETATM   17  C   UNK N   1      26.979  16.658   4.256  0.00  0.00     0.037 A 
HETATM   18  C   UNK N   1      26.592  17.955   3.938  0.00  0.00     0.065 A 
HETATM   19  C   UNK N   1      27.434  19.021   4.242  0.00  0.00     0.037 A 
HETATM   20  C   UNK N   1      28.661  18.776   4.864  0.00  0.00     0.014 A 
BRANCH  18  21
HETATM   21  O   UNK N   1      25.410  18.177   3.341  0.00  0.00    -0.361 OA
HETATM   22  H   UNK N   1      24.615  17.920   3.768  0.00  0.00     0.217 HD
ENDBRANCH  18  21
ENDBRANCH   2  15
TORSDOF 6
ENDMDL
MODEL 8
REMARK VINA RESULT:      -6.1      8.065     11.500
REMARK  6 active torsions:
REMARK  status: ('A' for Active; 'I' for Inactive)
REMARK    1  A    between atoms: O_1  and  C_19 
REMARK    2  A    between atoms: O_2  and  C_20 
REMARK    3  A    between atoms: C_3  and  C_5 
REMARK    4  A    between atoms: C_3  and  C_7 
REMARK    5  A    between atoms: C_4  and  C_6 
REMARK    6  A    between atoms: C_4  and  C_8 
ROOT
HETATM    1  C   UNK N   1      30.458  17.235   5.914  0.00  0.00    -0.041 C 
HETATM    2  C   UNK N   1      30.673  17.286   7.322  0.00  0.00    -0.041 C 
ENDROOT
BRANCH   1   3
HETATM    3  C   UNK N   1      31.519  16.923   4.834  0.00  0.00     0.035 C 
HETATM    4  C   UNK N   1      32.742  17.578   4.227  0.00  0.00     0.010 C 
ENDBRANCH   1   3
BRANCH   1   5
HETATM    5  C   UNK N   1      29.125  17.483   5.209  0.00  0.00    -0.029 A 
HETATM    6  C   UNK N   1      28.257  16.482   4.790  0.00  0.00     0.014 A 
HETATM    7  C   UNK N   1      27.047  16.758   4.150  0.00  0.00     0.037 A 
HETATM    8  C   UNK N   1      26.675  18.076   3.912  0.00  0.00     0.065 A 
HETATM    9  C   UNK N   1      27.512  19.112   4.314  0.00  0.00     0.037 A 
HETATM   10  C   UNK N   1      28.717  18.818   4.954  0.00  0.00     0.014 A 
BRANCH   8  11
HETATM   11  O   UNK N   1      25.513  18.347   3.296  0.00  0.00    -0.361 OA
HETATM   12  H   UNK N   1      24.755  18.566   3.802  0.00  0.00     0.217 HD
ENDBRANCH   8  11
ENDBRANCH   1   5
BRANCH   2  13
HETATM   13  C   UNK N   1      29.612  17.597   8.404  0.00  0.00     0.035 C 
HETATM   14  C   UNK N   1      29.463  18.495   9.614  0.00  0.00     0.010 C 
ENDBRANCH   2  13
BRANCH   2  15
HETATM   15  C   UNK N   1      32.007  17.039   8.028  0.00  0.00    -0.029 A 
HETATM   16  C   UNK N   1      32.321  15.886   8.737  0.00  0.00     0.014 A 
HETATM   17  C   UNK N   1      33.554  15.706   9.366  0.00  0.00     0.037 A 
HETATM   18  C   UNK N   1      34.521  16.702   9.292  0.00  0.00     0.065 A 
HETATM   19  C   UNK N   1      34.252  17.874   8.591  0.00  0.00     0.037 A 
HETATM   20  C   UNK N   1      33.012  18.037   7.969  0.00  0.00     0.014 A 
BRANCH  18  21
HETATM   21  O   UNK N   1      35.709  16.532   9.895  0.00  0.00    -0.361 OA
HETATM   22  H   UNK N   1      35.745  16.223  10.779  0.00  0.00     0.217 HD
ENDBRANCH  18  21
ENDBRANCH   2  15
TORSDOF 6
ENDMDL
MODEL 9
REMARK VINA RESULT:      -6.1     11.340     14.637
REMARK  6 active torsions:
REMARK  status: ('A' for Active; 'I' for Inactive)
REMARK    1  A    between atoms: O_1  and  C_19 
REMARK    2  A    between atoms: O_2  and  C_20 
REMARK    3  A    between atoms: C_3  and  C_5 
REMARK    4  A    between atoms: C_3  and  C_7 
REMARK    5  A    between atoms: C_4  and  C_6 
REMARK    6  A    between atoms: C_4  and  C_8 
ROOT
HETATM    1  C   UNK N   1      27.504  19.082   4.907  0.00  0.00    -0.041 C 
HETATM    2  C   UNK N   1      28.314  17.959   4.568  0.00  0.00    -0.041 C 
ENDROOT
BRANCH   1   3
HETATM    3  C   UNK N   1      27.762  20.088   6.052  0.00  0.00     0.035 C 
HETATM    4  C   UNK N   1      27.473  21.541   6.367  0.00  0.00     0.010 C 
ENDBRANCH   1   3
BRANCH   1   5
HETATM    5  C   UNK N   1      26.219  19.499   4.192  0.00  0.00    -0.029 A 
HETATM    6  C   UNK N   1      26.164  20.391   3.128  0.00  0.00     0.014 A 
HETATM    7  C   UNK N   1      24.963  20.741   2.505  0.00  0.00     0.037 A 
HETATM    8  C   UNK N   1      23.767  20.189   2.948  0.00  0.00     0.065 A 
HETATM    9  C   UNK N   1      23.774  19.291   4.010  0.00  0.00     0.037 A 
HETATM   10  C   UNK N   1      24.982  18.951   4.621  0.00  0.00     0.014 A 
BRANCH   8  11
HETATM   11  O   UNK N   1      22.611  20.523   2.353  0.00  0.00    -0.361 OA
HETATM   12  H   UNK N   1      22.196  21.337   2.559  0.00  0.00     0.217 HD
ENDBRANCH   8  11
ENDBRANCH   1   5
BRANCH   2  13
HETATM   13  C   UNK N   1      28.057  16.952   3.423  0.00  0.00     0.035 C 
HETATM   14  C   UNK N   1      26.939  16.053   2.939  0.00  0.00     0.010 C 
ENDBRANCH   2  13
BRANCH   2  15
HETATM   15  C   UNK N   1      29.599  17.541   5.284  0.00  0.00    -0.029 A 
HETATM   16  C   UNK N   1      30.862  17.551   4.704  0.00  0.00     0.014 A 
HETATM   17  C   UNK N   1      32.008  17.159   5.399  0.00  0.00     0.037 A 
HETATM   18  C   UNK N   1      31.907  16.742   6.721  0.00  0.00     0.065 A 
HETATM   19  C   UNK N   1      30.663  16.717   7.344  0.00  0.00     0.037 A 
HETATM   20  C   UNK N   1      29.527  17.112   6.633  0.00  0.00     0.014 A 
BRANCH  18  21
HETATM   21  O   UNK N   1      33.007  16.366   7.393  0.00  0.00    -0.361 OA
HETATM   22  H   UNK N   1      33.380  15.519   7.243  0.00  0.00     0.217 HD
ENDBRANCH  18  21
ENDBRANCH   2  15
TORSDOF 6
ENDMDL
