MODEL 1
REMARK VINA RESULT:      -6.8      0.000      0.000
REMARK  4 active torsions:
REMARK  status: ('A' for Active; 'I' for Inactive)
REMARK    1  A    between atoms: N_2  and  C_5 
REMARK    2  A    between atoms: C_5  and  C_6 
REMARK    3  A    between atoms: C_5  and  C_7 
REMARK    4  A    between atoms: C_5  and  C_8 
ROOT
HETATM    1  C   UNK N   1      31.033  17.109   6.879  0.00  0.00     0.121 C 
ENDROOT
BRANCH   1   2
HETATM    2  N   UNK N   1      30.354  17.493   8.164  0.00  0.00    -0.329 N 
HETATM    3  C   UNK N   1      29.465  16.739   8.863  0.00  0.00     0.110 A 
HETATM    4  C   UNK N   1      29.108  17.441   9.993  0.00  0.00     0.106 A 
HETATM    5  N   UNK N   1      29.777  18.613  10.001  0.00  0.00    -0.361 N 
HETATM    6  C   UNK N   1      30.530  18.626   8.882  0.00  0.00     0.184 A 
ATOM      7  HN  UNK N   1      29.724  19.343  10.711  1.00  0.00     0.166 HD
ENDBRANCH   1   2
BRANCH   1   8
HETATM    8  C   UNK N   1      31.800  16.605   5.567  0.00  0.00     0.002 A 
HETATM    9  C   UNK N   1      32.187  15.238   5.290  0.00  0.00     0.043 A 
HETATM   10 Cl   UNK N   1      31.928  13.879   6.371  0.00  0.00    -0.084 Cl
HETATM   11  C   UNK N   1      32.815  14.915   4.081  0.00  0.00     0.024 A 
HETATM   12  C   UNK N   1      33.063  15.883   3.116  0.00  0.00     0.002 A 
HETATM   13  C   UNK N   1      32.712  17.205   3.358  0.00  0.00     0.001 A 
HETATM   14  C   UNK N   1      32.108  17.564   4.565  0.00  0.00     0.012 A 
ENDBRANCH   1   8
BRANCH   1  15
HETATM   15  C   UNK N   1      32.401  17.138   7.648  0.00  0.00    -0.020 A 
HETATM   16  C   UNK N   1      32.666  16.146   8.633  0.00  0.00     0.010 A 
HETATM   17  C   UNK N   1      33.839  16.157   9.381  0.00  0.00     0.001 A 
HETATM   18  C   UNK N   1      34.779  17.161   9.171  0.00  0.00     0.000 A 
HETATM   19  C   UNK N   1      34.541  18.159   8.220  0.00  0.00     0.001 A 
HETATM   20  C   UNK N   1      33.357  18.160   7.468  0.00  0.00     0.010 A 
ENDBRANCH   1  15
BRANCH   1  21
HETATM   21  C   UNK N   1      29.639  17.177   6.124  0.00  0.00    -0.020 A 
HETATM   22  C   UNK N   1      28.975  15.991   5.704  0.00  0.00     0.010 A 
HETATM   23  C   UNK N   1      27.820  16.045   4.918  0.00  0.00     0.001 A 
HETATM   24  C   UNK N   1      27.264  17.278   4.578  0.00  0.00     0.000 A 
HETATM   25  C   UNK N   1      27.867  18.457   5.016  0.00  0.00     0.001 A 
HETATM   26  C   UNK N   1      29.056  18.413   5.750  0.00  0.00     0.010 A 
ENDBRANCH   1  21
TORSDOF 4
ENDMDL
MODEL 2
REMARK VINA RESULT:      -6.7      0.305      4.492
REMARK  4 active torsions:
REMARK  status: ('A' for Active; 'I' for Inactive)
REMARK    1  A    between atoms: N_2  and  C_5 
REMARK    2  A    between atoms: C_5  and  C_6 
REMARK    3  A    between atoms: C_5  and  C_7 
REMARK    4  A    between atoms: C_5  and  C_8 
ROOT
HETATM    1  C   UNK N   1      31.008  17.051   6.855  0.00  0.00     0.121 C 
ENDROOT
BRANCH   1   2
HETATM    2  N   UNK N   1      30.200  17.539   8.027  0.00  0.00    -0.329 N 
HETATM    3  C   UNK N   1      29.129  16.916   8.582  0.00  0.00     0.110 A 
HETATM    4  C   UNK N   1      28.701  17.676   9.648  0.00  0.00     0.106 A 
HETATM    5  N   UNK N   1      29.506  18.753   9.759  0.00  0.00    -0.361 N 
HETATM    6  C   UNK N   1      30.412  18.652   8.766  0.00  0.00     0.184 A 
ATOM      7  HN  UNK N   1      29.442  19.496  10.456  1.00  0.00     0.166 HD
ENDBRANCH   1   2
BRANCH   1   8
HETATM    8  C   UNK N   1      31.825  16.624   5.546  0.00  0.00     0.002 A 
HETATM    9  C   UNK N   1      32.315  15.294   5.256  0.00  0.00     0.043 A 
HETATM   10 Cl   UNK N   1      32.145  13.904   6.315  0.00  0.00    -0.084 Cl
HETATM   11  C   UNK N   1      32.978  15.035   4.050  0.00  0.00     0.024 A 
HETATM   12  C   UNK N   1      33.166  16.033   3.102  0.00  0.00     0.002 A 
HETATM   13  C   UNK N   1      32.715  17.321   3.357  0.00  0.00     0.001 A 
HETATM   14  C   UNK N   1      32.073  17.618   4.562  0.00  0.00     0.012 A 
ENDBRANCH   1   8
BRANCH   1  15
HETATM   15  C   UNK N   1      29.675  16.976   6.029  0.00  0.00    -0.020 A 
HETATM   16  C   UNK N   1      29.120  15.703   5.718  0.00  0.00     0.010 A 
HETATM   17  C   UNK N   1      27.971  15.578   4.945  0.00  0.00     0.001 A 
HETATM   18  C   UNK N   1      27.344  16.720   4.456  0.00  0.00     0.000 A 
HETATM   19  C   UNK N   1      27.873  17.985   4.733  0.00  0.00     0.001 A 
HETATM   20  C   UNK N   1      29.036  18.119   5.504  0.00  0.00     0.010 A 
ENDBRANCH   1  15
BRANCH   1  21
HETATM   21  C   UNK N   1      32.315  17.060   7.755  0.00  0.00    -0.020 A 
HETATM   22  C   UNK N   1      33.332  18.034   7.557  0.00  0.00     0.010 A 
HETATM   23  C   UNK N   1      34.546  17.966   8.249  0.00  0.00     0.001 A 
HETATM   24  C   UNK N   1      34.757  16.963   9.193  0.00  0.00     0.000 A 
HETATM   25  C   UNK N   1      33.758  16.021   9.442  0.00  0.00     0.001 A 
HETATM   26  C   UNK N   1      32.565  16.045   8.712  0.00  0.00     0.010 A 
ENDBRANCH   1  21
TORSDOF 4
ENDMDL
MODEL 3
REMARK VINA RESULT:      -6.5      2.705      6.532
REMARK  4 active torsions:
REMARK  status: ('A' for Active; 'I' for Inactive)
REMARK    1  A    between atoms: N_2  and  C_5 
REMARK    2  A    between atoms: C_5  and  C_6 
REMARK    3  A    between atoms: C_5  and  C_7 
REMARK    4  A    between atoms: C_5  and  C_8 
ROOT
HETATM    1  C   UNK N   1      28.913  16.723   4.953  0.00  0.00     0.121 C 
ENDROOT
BRANCH   1   2
HETATM    2  N   UNK N   1      29.321  15.351   4.490  0.00  0.00    -0.329 N 
HETATM    3  C   UNK N   1      29.726  15.010   3.239  0.00  0.00     0.110 A 
HETATM    4  C   UNK N   1      30.036  13.668   3.244  0.00  0.00     0.106 A 
HETATM    5  N   UNK N   1      29.835  13.184   4.488  0.00  0.00    -0.361 N 
HETATM    6  C   UNK N   1      29.402  14.222   5.231  0.00  0.00     0.184 A 
ATOM      7  HN  UNK N   1      29.982  12.226   4.802  1.00  0.00     0.166 HD
ENDBRANCH   1   2
BRANCH   1   8
HETATM    8  C   UNK N   1      28.406  18.130   5.523  0.00  0.00     0.002 A 
HETATM    9  C   UNK N   1      28.154  18.433   6.916  0.00  0.00     0.043 A 
HETATM   10 Cl   UNK N   1      28.312  17.291   8.240  0.00  0.00    -0.084 Cl
HETATM   11  C   UNK N   1      27.756  19.721   7.296  0.00  0.00     0.024 A 
HETATM   12  C   UNK N   1      27.612  20.736   6.359  0.00  0.00     0.002 A 
HETATM   13  C   UNK N   1      27.837  20.473   5.015  0.00  0.00     0.001 A 
HETATM   14  C   UNK N   1      28.210  19.192   4.600  0.00  0.00     0.012 A 
ENDBRANCH   1   8
BRANCH   1  15
HETATM   15  C   UNK N   1      27.431  16.350   4.596  0.00  0.00    -0.020 A 
HETATM   16  C   UNK N   1      26.980  16.498   3.255  0.00  0.00     0.010 A 
HETATM   17  C   UNK N   1      25.663  16.233   2.895  0.00  0.00     0.001 A 
HETATM   18  C   UNK N   1      24.756  15.816   3.865  0.00  0.00     0.000 A 
HETATM   19  C   UNK N   1      25.165  15.674   5.195  0.00  0.00     0.001 A 
HETATM   20  C   UNK N   1      26.489  15.949   5.567  0.00  0.00     0.010 A 
ENDBRANCH   1  15
BRANCH   1  21
HETATM   21  C   UNK N   1      30.436  17.084   5.216  0.00  0.00    -0.020 A 
HETATM   22  C   UNK N   1      31.270  17.550   4.163  0.00  0.00     0.010 A 
HETATM   23  C   UNK N   1      32.643  17.737   4.353  0.00  0.00     0.001 A 
HETATM   24  C   UNK N   1      33.211  17.518   5.607  0.00  0.00     0.000 A 
HETATM   25  C   UNK N   1      32.408  17.106   6.671  0.00  0.00     0.001 A 
HETATM   26  C   UNK N   1      31.046  16.858   6.475  0.00  0.00     0.010 A 
ENDBRANCH   1  21
TORSDOF 4
ENDMDL
MODEL 4
REMARK VINA RESULT:      -6.3      2.235      3.625
REMARK  4 active torsions:
REMARK  status: ('A' for Active; 'I' for Inactive)
REMARK    1  A    between atoms: N_2  and  C_5 
REMARK    2  A    between atoms: C_5  and  C_6 
REMARK    3  A    between atoms: C_5  and  C_7 
REMARK    4  A    between atoms: C_5  and  C_8 
ROOT
HETATM    1  C   UNK N   1      32.829  15.882   7.081  0.00  0.00     0.121 C 
ENDROOT
BRANCH   1   2
HETATM    2  N   UNK N   1      33.151  15.538   8.510  0.00  0.00    -0.329 N 
HETATM    3  C   UNK N   1      34.279  15.878   9.187  0.00  0.00     0.110 A 
HETATM    4  C   UNK N   1      34.164  15.398  10.472  0.00  0.00     0.106 A 
HETATM    5  N   UNK N   1      32.973  14.776  10.595  0.00  0.00    -0.361 N 
HETATM    6  C   UNK N   1      32.371  14.872   9.392  0.00  0.00     0.184 A 
ATOM      7  HN  UNK N   1      32.602  14.323  11.430  1.00  0.00     0.166 HD
ENDBRANCH   1   2
BRANCH   1   8
HETATM    8  C   UNK N   1      32.475  16.131   5.540  0.00  0.00     0.002 A 
HETATM    9  C   UNK N   1      31.688  15.250   4.704  0.00  0.00     0.043 A 
HETATM   10 Cl   UNK N   1      31.014  13.711   5.215  0.00  0.00    -0.084 Cl
HETATM   11  C   UNK N   1      31.407  15.603   3.378  0.00  0.00     0.024 A 
HETATM   12  C   UNK N   1      31.853  16.803   2.841  0.00  0.00     0.002 A 
HETATM   13  C   UNK N   1      32.619  17.664   3.616  0.00  0.00     0.001 A 
HETATM   14  C   UNK N   1      32.939  17.330   4.935  0.00  0.00     0.012 A 
ENDBRANCH   1   8
BRANCH   1  15
HETATM   15  C   UNK N   1      34.029  14.969   6.642  0.00  0.00    -0.020 A 
HETATM   16  C   UNK N   1      33.953  13.566   6.865  0.00  0.00     0.010 A 
HETATM   17  C   UNK N   1      35.009  12.720   6.544  0.00  0.00     0.001 A 
HETATM   18  C   UNK N   1      36.172  13.249   5.994  0.00  0.00     0.000 A 
HETATM   19  C   UNK N   1      36.283  14.626   5.775  0.00  0.00     0.001 A 
HETATM   20  C   UNK N   1      35.226  15.488   6.105  0.00  0.00     0.010 A 
ENDBRANCH   1  15
BRANCH   1  21
HETATM   21  C   UNK N   1      31.683  16.861   7.578  0.00  0.00    -0.020 A 
HETATM   22  C   UNK N   1      31.986  17.992   8.384  0.00  0.00     0.010 A 
HETATM   23  C   UNK N   1      30.972  18.779   8.941  0.00  0.00     0.001 A 
HETATM   24  C   UNK N   1      29.636  18.494   8.665  0.00  0.00     0.000 A 
HETATM   25  C   UNK N   1      29.310  17.418   7.838  0.00  0.00     0.001 A 
HETATM   26  C   UNK N   1      30.315  16.590   7.327  0.00  0.00     0.010 A 
ENDBRANCH   1  21
TORSDOF 4
ENDMDL
MODEL 5
REMARK VINA RESULT:      -6.3      2.761      5.081
REMARK  4 active torsions:
REMARK  status: ('A' for Active; 'I' for Inactive)
REMARK    1  A    between atoms: N_2  and  C_5 
REMARK    2  A    between atoms: C_5  and  C_6 
REMARK    3  A    between atoms: C_5  and  C_7 
REMARK    4  A    between atoms: C_5  and  C_8 
ROOT
HETATM    1  C   UNK N   1      28.740  16.536   5.091  0.00  0.00     0.121 C 
ENDROOT
BRANCH   1   2
HETATM    2  N   UNK N   1      29.192  15.202   4.564  0.00  0.00    -0.329 N 
HETATM    3  C   UNK N   1      29.116  14.777   3.276  0.00  0.00     0.110 A 
HETATM    4  C   UNK N   1      29.664  13.515   3.212  0.00  0.00     0.106 A 
HETATM    5  N   UNK N   1      30.087  13.166   4.445  0.00  0.00    -0.361 N 
HETATM    6  C   UNK N   1      29.793  14.205   5.253  0.00  0.00     0.184 A 
ATOM      7  HN  UNK N   1      30.539  12.292   4.713  1.00  0.00     0.166 HD
ENDBRANCH   1   2
BRANCH   1   8
HETATM    8  C   UNK N   1      28.319  18.007   5.563  0.00  0.00     0.002 A 
HETATM    9  C   UNK N   1      28.083  18.418   6.930  0.00  0.00     0.043 A 
HETATM   10 Cl   UNK N   1      28.168  17.360   8.329  0.00  0.00    -0.084 Cl
HETATM   11  C   UNK N   1      27.764  19.750   7.220  0.00  0.00     0.024 A 
HETATM   12  C   UNK N   1      27.685  20.708   6.217  0.00  0.00     0.002 A 
HETATM   13  C   UNK N   1      27.897  20.341   4.895  0.00  0.00     0.001 A 
HETATM   14  C   UNK N   1      28.191  19.015   4.569  0.00  0.00     0.012 A 
ENDBRANCH   1   8
BRANCH   1  15
HETATM   15  C   UNK N   1      30.251  16.948   5.208  0.00  0.00    -0.020 A 
HETATM   16  C   UNK N   1      30.963  17.322   4.035  0.00  0.00     0.010 A 
HETATM   17  C   UNK N   1      32.315  17.644   4.075  0.00  0.00     0.001 A 
HETATM   18  C   UNK N   1      32.998  17.598   5.287  0.00  0.00     0.000 A 
HETATM   19  C   UNK N   1      32.329  17.220   6.456  0.00  0.00     0.001 A 
HETATM   20  C   UNK N   1      30.968  16.885   6.422  0.00  0.00     0.010 A 
ENDBRANCH   1  15
BRANCH   1  21
HETATM   21  C   UNK N   1      27.233  16.045   5.037  0.00  0.00    -0.020 A 
HETATM   22  C   UNK N   1      26.366  16.456   3.987  0.00  0.00     0.010 A 
HETATM   23  C   UNK N   1      25.003  16.143   4.006  0.00  0.00     0.001 A 
HETATM   24  C   UNK N   1      24.479  15.366   5.038  0.00  0.00     0.000 A 
HETATM   25  C   UNK N   1      25.315  14.909   6.057  0.00  0.00     0.001 A 
HETATM   26  C   UNK N   1      26.667  15.268   6.078  0.00  0.00     0.010 A 
ENDBRANCH   1  21
TORSDOF 4
ENDMDL
MODEL 6
REMARK VINA RESULT:      -6.2     14.576     17.237
REMARK  4 active torsions:
REMARK  status: ('A' for Active; 'I' for Inactive)
REMARK    1  A    between atoms: N_2  and  C_5 
REMARK    2  A    between atoms: C_5  and  C_6 
REMARK    3  A    between atoms: C_5  and  C_7 
REMARK    4  A    between atoms: C_5  and  C_8 
ROOT
HETATM    1  C   UNK N   1      27.025  25.013  -7.307  0.00  0.00     0.121 C 
ENDROOT
BRANCH   1   2
HETATM    2  N   UNK N   1      26.695  25.367  -8.731  0.00  0.00    -0.329 N 
HETATM    3  C   UNK N   1      27.438  25.069  -9.829  0.00  0.00     0.110 A 
HETATM    4  C   UNK N   1      26.770  25.543 -10.936  0.00  0.00     0.106 A 
HETATM    5  N   UNK N   1      25.619  26.119 -10.530  0.00  0.00    -0.361 N 
HETATM    6  C   UNK N   1      25.591  26.002  -9.187  0.00  0.00     0.184 A 
ATOM      7  HN  UNK N   1      24.912  26.556 -11.121  1.00  0.00     0.166 HD
ENDBRANCH   1   2
BRANCH   1   8
HETATM    8  C   UNK N   1      27.457  24.558  -5.834  0.00  0.00     0.002 A 
HETATM    9  C   UNK N   1      28.815  24.342  -5.383  0.00  0.00     0.043 A 
HETATM   10 Cl   UNK N   1      30.246  24.493  -6.388  0.00  0.00    -0.084 Cl
HETATM   11  C   UNK N   1      29.067  23.990  -4.051  0.00  0.00     0.024 A 
HETATM   12  C   UNK N   1      28.034  23.857  -3.132  0.00  0.00     0.002 A 
HETATM   13  C   UNK N   1      26.719  24.048  -3.538  0.00  0.00     0.001 A 
HETATM   14  C   UNK N   1      26.432  24.375  -4.866  0.00  0.00     0.012 A 
ENDBRANCH   1   8
BRANCH   1  15
HETATM   15  C   UNK N   1      26.664  23.523  -7.645  0.00  0.00    -0.020 A 
HETATM   16  C   UNK N   1      25.299  23.122  -7.650  0.00  0.00     0.010 A 
HETATM   17  C   UNK N   1      24.928  21.803  -7.890  0.00  0.00     0.001 A 
HETATM   18  C   UNK N   1      25.908  20.846  -8.129  0.00  0.00     0.000 A 
HETATM   19  C   UNK N   1      27.260  21.205  -8.117  0.00  0.00     0.001 A 
HETATM   20  C   UNK N   1      27.643  22.531  -7.866  0.00  0.00     0.010 A 
ENDBRANCH   1  15
BRANCH   1  21
HETATM   21  C   UNK N   1      27.295  26.544  -6.991  0.00  0.00    -0.020 A 
HETATM   22  C   UNK N   1      28.368  27.241  -7.612  0.00  0.00     0.010 A 
HETATM   23  C   UNK N   1      28.700  28.547  -7.237  0.00  0.00     0.001 A 
HETATM   24  C   UNK N   1      27.939  29.211  -6.275  0.00  0.00     0.000 A 
HETATM   25  C   UNK N   1      26.852  28.569  -5.683  0.00  0.00     0.001 A 
HETATM   26  C   UNK N   1      26.551  27.242  -6.008  0.00  0.00     0.010 A 
ENDBRANCH   1  21
TORSDOF 4
ENDMDL
MODEL 7
REMARK VINA RESULT:      -6.1     14.732     17.254
REMARK  4 active torsions:
REMARK  status: ('A' for Active; 'I' for Inactive)
REMARK    1  A    between atoms: N_2  and  C_5 
REMARK    2  A    between atoms: C_5  and  C_6 
REMARK    3  A    between atoms: C_5  and  C_7 
REMARK    4  A    between atoms: C_5  and  C_8 
ROOT
HETATM    1  C   UNK N   1      26.930  24.957  -7.502  0.00  0.00     0.121 C 
ENDROOT
BRANCH   1   2
HETATM    2  N   UNK N   1      26.547  25.363  -8.898  0.00  0.00    -0.329 N 
HETATM    3  C   UNK N   1      27.232  25.078 -10.037  0.00  0.00     0.110 A 
HETATM    4  C   UNK N   1      26.529  25.604 -11.098  0.00  0.00     0.106 A 
HETATM    5  N   UNK N   1      25.414  26.198 -10.625  0.00  0.00    -0.361 N 
HETATM    6  C   UNK N   1      25.442  26.041  -9.285  0.00  0.00     0.184 A 
ATOM      7  HN  UNK N   1      24.694  26.672 -11.170  1.00  0.00     0.166 HD
ENDBRANCH   1   2
BRANCH   1   8
HETATM    8  C   UNK N   1      27.258  24.606  -5.975  0.00  0.00     0.002 A 
HETATM    9  C   UNK N   1      28.581  24.421  -5.419  0.00  0.00     0.043 A 
HETATM   10 Cl   UNK N   1      30.079  24.502  -6.332  0.00  0.00    -0.084 Cl
HETATM   11  C   UNK N   1      28.741  24.162  -4.052  0.00  0.00     0.024 A 
HETATM   12  C   UNK N   1      27.648  24.094  -3.198  0.00  0.00     0.002 A 
HETATM   13  C   UNK N   1      26.365  24.257  -3.704  0.00  0.00     0.001 A 
HETATM   14  C   UNK N   1      26.170  24.491  -5.068  0.00  0.00     0.012 A 
ENDBRANCH   1   8
BRANCH   1  15
HETATM   15  C   UNK N   1      27.315  26.453  -7.224  0.00  0.00    -0.020 A 
HETATM   16  C   UNK N   1      28.420  27.027  -7.915  0.00  0.00     0.010 A 
HETATM   17  C   UNK N   1      28.836  28.330  -7.668  0.00  0.00     0.001 A 
HETATM   18  C   UNK N   1      28.166  29.099  -6.722  0.00  0.00     0.000 A 
HETATM   19  C   UNK N   1      27.085  28.560  -6.016  0.00  0.00     0.001 A 
HETATM   20  C   UNK N   1      26.665  27.243  -6.252  0.00  0.00     0.010 A 
ENDBRANCH   1  15
BRANCH   1  21
HETATM   21  C   UNK N   1      26.609  23.444  -7.856  0.00  0.00    -0.020 A 
HETATM   22  C   UNK N   1      25.267  22.980  -7.935  0.00  0.00     0.010 A 
HETATM   23  C   UNK N   1      24.977  21.622  -8.107  0.00  0.00     0.001 A 
HETATM   24  C   UNK N   1      26.013  20.702  -8.261  0.00  0.00     0.000 A 
HETATM   25  C   UNK N   1      27.339  21.135  -8.235  0.00  0.00     0.001 A 
HETATM   26  C   UNK N   1      27.638  22.482  -8.002  0.00  0.00     0.010 A 
ENDBRANCH   1  21
TORSDOF 4
ENDMDL
MODEL 8
REMARK VINA RESULT:      -6.1     14.458     17.194
REMARK  4 active torsions:
REMARK  status: ('A' for Active; 'I' for Inactive)
REMARK    1  A    between atoms: N_2  and  C_5 
REMARK    2  A    between atoms: C_5  and  C_6 
REMARK    3  A    between atoms: C_5  and  C_7 
REMARK    4  A    between atoms: C_5  and  C_8 
ROOT
HETATM    1  C   UNK N   1      27.228  24.958  -6.801  0.00  0.00     0.121 C 
ENDROOT
BRANCH   1   2
HETATM    2  N   UNK N   1      26.900  23.565  -7.264  0.00  0.00    -0.329 N 
HETATM    3  C   UNK N   1      27.685  22.766  -8.033  0.00  0.00     0.110 A 
HETATM    4  C   UNK N   1      27.032  21.565  -8.202  0.00  0.00     0.106 A 
HETATM    5  N   UNK N   1      25.860  21.615  -7.537  0.00  0.00    -0.361 N 
HETATM    6  C   UNK N   1      25.798  22.838  -6.972  0.00  0.00     0.184 A 
ATOM      7  HN  UNK N   1      25.160  20.876  -7.473  1.00  0.00     0.166 HD
ENDBRANCH   1   2
BRANCH   1   8
HETATM    8  C   UNK N   1      27.466  26.473  -6.341  0.00  0.00     0.002 A 
HETATM    9  C   UNK N   1      26.442  27.383  -5.875  0.00  0.00     0.043 A 
HETATM   10 Cl   UNK N   1      24.730  27.006  -5.774  0.00  0.00    -0.084 Cl
HETATM   11  C   UNK N   1      26.785  28.674  -5.454  0.00  0.00     0.024 A 
HETATM   12  C   UNK N   1      28.105  29.105  -5.455  0.00  0.00     0.002 A 
HETATM   13  C   UNK N   1      29.108  28.258  -5.906  0.00  0.00     0.001 A 
HETATM   14  C   UNK N   1      28.796  26.973  -6.356  0.00  0.00     0.012 A 
ENDBRANCH   1   8
BRANCH   1  15
HETATM   15  C   UNK N   1      26.890  25.467  -8.247  0.00  0.00    -0.020 A 
HETATM   16  C   UNK N   1      27.934  25.982  -9.065  0.00  0.00     0.010 A 
HETATM   17  C   UNK N   1      27.680  26.494 -10.333  0.00  0.00     0.001 A 
HETATM   18  C   UNK N   1      26.378  26.511 -10.820  0.00  0.00     0.000 A 
HETATM   19  C   UNK N   1      25.327  26.025 -10.035  0.00  0.00     0.001 A 
HETATM   20  C   UNK N   1      25.573  25.516  -8.751  0.00  0.00     0.010 A 
ENDBRANCH   1  15
BRANCH   1  21
HETATM   21  C   UNK N   1      27.642  24.386  -5.380  0.00  0.00    -0.020 A 
HETATM   22  C   UNK N   1      26.775  24.512  -4.260  0.00  0.00     0.010 A 
HETATM   23  C   UNK N   1      27.188  24.137  -2.977  0.00  0.00     0.001 A 
HETATM   24  C   UNK N   1      28.450  23.577  -2.785  0.00  0.00     0.000 A 
HETATM   25  C   UNK N   1      29.304  23.397  -3.874  0.00  0.00     0.001 A 
HETATM   26  C   UNK N   1      28.923  23.826  -5.150  0.00  0.00     0.010 A 
ENDBRANCH   1  21
TORSDOF 4
ENDMDL
MODEL 9
REMARK VINA RESULT:      -6.1      1.290      4.441
REMARK  4 active torsions:
REMARK  status: ('A' for Active; 'I' for Inactive)
REMARK    1  A    between atoms: N_2  and  C_5 
REMARK    2  A    between atoms: C_5  and  C_6 
REMARK    3  A    between atoms: C_5  and  C_7 
REMARK    4  A    between atoms: C_5  and  C_8 
ROOT
HETATM    1  C   UNK N   1      31.048  16.988   6.442  0.00  0.00     0.121 C 
ENDROOT
BRANCH   1   2
HETATM    2  N   UNK N   1      32.215  17.001   7.390  0.00  0.00    -0.329 N 
HETATM    3  C   UNK N   1      33.252  17.878   7.380  0.00  0.00     0.110 A 
HETATM    4  C   UNK N   1      34.086  17.562   8.430  0.00  0.00     0.106 A 
HETATM    5  N   UNK N   1      33.565  16.508   9.092  0.00  0.00    -0.361 N 
HETATM    6  C   UNK N   1      32.427  16.182   8.445  0.00  0.00     0.184 A 
ATOM      7  HN  UNK N   1      33.954  16.050   9.915  1.00  0.00     0.166 HD
ENDBRANCH   1   2
BRANCH   1   8
HETATM    8  C   UNK N   1      29.784  17.087   5.463  0.00  0.00     0.002 A 
HETATM    9  C   UNK N   1      29.052  15.965   4.916  0.00  0.00     0.043 A 
HETATM   10 Cl   UNK N   1      29.446  14.276   5.189  0.00  0.00    -0.084 Cl
HETATM   11  C   UNK N   1      27.931  16.183   4.106  0.00  0.00     0.024 A 
HETATM   12  C   UNK N   1      27.485  17.468   3.823  0.00  0.00     0.002 A 
HETATM   13  C   UNK N   1      28.173  18.564   4.325  0.00  0.00     0.001 A 
HETATM   14  C   UNK N   1      29.310  18.381   5.116  0.00  0.00     0.012 A 
ENDBRANCH   1   8
BRANCH   1  15
HETATM   15  C   UNK N   1      30.123  17.376   7.649  0.00  0.00    -0.020 A 
HETATM   16  C   UNK N   1      28.856  16.745   7.787  0.00  0.00     0.010 A 
HETATM   17  C   UNK N   1      27.977  17.089   8.807  0.00  0.00     0.001 A 
HETATM   18  C   UNK N   1      28.335  18.077   9.719  0.00  0.00     0.000 A 
HETATM   19  C   UNK N   1      29.568  18.727   9.603  0.00  0.00     0.001 A 
HETATM   20  C   UNK N   1      30.456  18.391   8.571  0.00  0.00     0.010 A 
ENDBRANCH   1  15
BRANCH   1  21
HETATM   21  C   UNK N   1      32.007  16.511   5.271  0.00  0.00    -0.020 A 
HETATM   22  C   UNK N   1      32.209  17.317   4.116  0.00  0.00     0.010 A 
HETATM   23  C   UNK N   1      32.939  16.846   3.021  0.00  0.00     0.001 A 
HETATM   24  C   UNK N   1      33.533  15.585   3.068  0.00  0.00     0.000 A 
HETATM   25  C   UNK N   1      33.392  14.792   4.207  0.00  0.00     0.001 A 
HETATM   26  C   UNK N   1      32.613  15.231   5.282  0.00  0.00     0.010 A 
ENDBRANCH   1  21
TORSDOF 4
ENDMDL
