MODEL 1
REMARK VINA RESULT:      -4.8      0.000      0.000
REMARK  3 active torsions:
REMARK  status: ('A' for Active; 'I' for Inactive)
REMARK    1  A    between atoms: S_1  and  N_4 
REMARK    2  A    between atoms: S_1  and  C_6 
REMARK    3  A    between atoms: N_5  and  C_9 
ROOT
HETATM    1  C   UNK N   1      35.581  12.886  16.230  0.00  0.00     0.079 A 
HETATM    2  C   UNK N   1      35.516  11.639  16.860  0.00  0.00     0.027 A 
HETATM    3  C   UNK N   1      35.472  14.058  16.984  0.00  0.00     0.027 A 
HETATM    4  C   UNK N   1      35.243  12.738  19.000  0.00  0.00     0.025 A 
HETATM    5  C   UNK N   1      35.345  11.565  18.248  0.00  0.00     0.030 A 
HETATM    6  C   UNK N   1      35.302  13.984  18.371  0.00  0.00     0.030 A 
ENDROOT
BRANCH   1   7
HETATM    7  S   UNK N   1      35.874  12.981  14.468  0.00  0.00     0.256 S 
HETATM    8  O   UNK N   1      34.586  12.933  13.633  0.00  0.00    -0.201 OA
HETATM    9  O   UNK N   1      36.647  11.763  13.946  0.00  0.00    -0.201 OA
BRANCH   7  10
HETATM   10  N   UNK N   1      36.762  14.378  13.858  0.00  0.00    -0.324 N 
HETATM   11  H   UNK N   1      37.576  14.419  13.245  0.00  0.00     0.169 HD
HETATM   12  H   UNK N   1      36.406  15.284  14.163  0.00  0.00     0.169 HD
ENDBRANCH   7  10
ENDBRANCH   1   7
BRANCH   4  13
HETATM   13  N   UNK N   1      35.093  12.664  20.401  0.00  0.00    -0.399 N 
HETATM   14  H   UNK N   1      34.239  12.365  20.789  0.00  0.00     0.156 HD
HETATM   15  H   UNK N   1      35.841  12.912  20.990  0.00  0.00     0.156 HD
ENDBRANCH   4  13
TORSDOF 3
ENDMDL
MODEL 2
REMARK VINA RESULT:      -4.8      0.110      1.464
REMARK  3 active torsions:
REMARK  status: ('A' for Active; 'I' for Inactive)
REMARK    1  A    between atoms: S_1  and  N_4 
REMARK    2  A    between atoms: S_1  and  C_6 
REMARK    3  A    between atoms: N_5  and  C_9 
ROOT
HETATM    1  C   UNK N   1      35.658  12.893  16.230  0.00  0.00     0.079 A 
HETATM    2  C   UNK N   1      35.563  14.090  16.946  0.00  0.00     0.027 A 
HETATM    3  C   UNK N   1      35.541  11.669  16.894  0.00  0.00     0.027 A 
HETATM    4  C   UNK N   1      35.224  12.838  18.990  0.00  0.00     0.025 A 
HETATM    5  C   UNK N   1      35.347  14.063  18.329  0.00  0.00     0.030 A 
HETATM    6  C   UNK N   1      35.325  11.641  18.277  0.00  0.00     0.030 A 
ENDROOT
BRANCH   1   7
HETATM    7  S   UNK N   1      35.859  12.929  14.453  0.00  0.00     0.256 S 
HETATM    8  O   UNK N   1      34.527  12.922  13.688  0.00  0.00    -0.201 OA
HETATM    9  O   UNK N   1      36.546  11.662  13.925  0.00  0.00    -0.201 OA
BRANCH   7  10
HETATM   10  N   UNK N   1      36.778  14.266  13.758  0.00  0.00    -0.324 N 
HETATM   11  H   UNK N   1      36.610  15.271  13.809  0.00  0.00     0.169 HD
HETATM   12  H   UNK N   1      37.603  13.992  13.225  0.00  0.00     0.169 HD
ENDBRANCH   7  10
ENDBRANCH   1   7
BRANCH   4  13
HETATM   13  N   UNK N   1      34.985  12.810  20.380  0.00  0.00    -0.399 N 
HETATM   14  H   UNK N   1      35.204  12.004  20.902  0.00  0.00     0.156 HD
HETATM   15  H   UNK N   1      34.600  13.597  20.828  0.00  0.00     0.156 HD
ENDBRANCH   4  13
TORSDOF 3
ENDMDL
MODEL 3
REMARK VINA RESULT:      -4.7      1.650      2.405
REMARK  3 active torsions:
REMARK  status: ('A' for Active; 'I' for Inactive)
REMARK    1  A    between atoms: S_1  and  N_4 
REMARK    2  A    between atoms: S_1  and  C_6 
REMARK    3  A    between atoms: N_5  and  C_9 
ROOT
HETATM    1  C   UNK N   1      35.092  12.070  16.294  0.00  0.00     0.079 A 
HETATM    2  C   UNK N   1      35.042  13.384  16.770  0.00  0.00     0.027 A 
HETATM    3  C   UNK N   1      35.259  11.008  17.188  0.00  0.00     0.027 A 
HETATM    4  C   UNK N   1      35.312  12.572  19.034  0.00  0.00     0.025 A 
HETATM    5  C   UNK N   1      35.153  13.636  18.142  0.00  0.00     0.030 A 
HETATM    6  C   UNK N   1      35.371  11.259  18.560  0.00  0.00     0.030 A 
ENDROOT
BRANCH   1   7
HETATM    7  S   UNK N   1      34.876  11.743  14.549  0.00  0.00     0.256 S 
HETATM    8  O   UNK N   1      36.149  11.227  13.863  0.00  0.00    -0.201 OA
HETATM    9  O   UNK N   1      34.573  13.022  13.757  0.00  0.00    -0.201 OA
BRANCH   7  10
HETATM   10  N   UNK N   1      33.610  10.607  14.078  0.00  0.00    -0.324 N 
HETATM   11  H   UNK N   1      33.675   9.617  13.841  0.00  0.00     0.169 HD
HETATM   12  H   UNK N   1      32.670  11.001  14.036  0.00  0.00     0.169 HD
ENDBRANCH   7  10
ENDBRANCH   1   7
BRANCH   4  13
HETATM   13  N   UNK N   1      35.404  12.825  20.419  0.00  0.00    -0.399 N 
HETATM   14  H   UNK N   1      34.586  12.885  20.964  0.00  0.00     0.156 HD
HETATM   15  H   UNK N   1      36.285  12.940  20.841  0.00  0.00     0.156 HD
ENDBRANCH   4  13
TORSDOF 3
ENDMDL
MODEL 4
REMARK VINA RESULT:      -4.7      1.663      1.942
REMARK  3 active torsions:
REMARK  status: ('A' for Active; 'I' for Inactive)
REMARK    1  A    between atoms: S_1  and  N_4 
REMARK    2  A    between atoms: S_1  and  C_6 
REMARK    3  A    between atoms: N_5  and  C_9 
ROOT
HETATM    1  C   UNK N   1      35.009  12.021  16.302  0.00  0.00     0.079 A 
HETATM    2  C   UNK N   1      35.212  10.944  17.171  0.00  0.00     0.027 A 
HETATM    3  C   UNK N   1      34.972  13.326  16.800  0.00  0.00     0.027 A 
HETATM    4  C   UNK N   1      35.354  12.481  19.036  0.00  0.00     0.025 A 
HETATM    5  C   UNK N   1      35.384  11.175  18.541  0.00  0.00     0.030 A 
HETATM    6  C   UNK N   1      35.144  13.557  18.170  0.00  0.00     0.030 A 
ENDROOT
BRANCH   1   7
HETATM    7  S   UNK N   1      34.863  11.732  14.543  0.00  0.00     0.256 S 
HETATM    8  O   UNK N   1      36.174  11.267  13.891  0.00  0.00    -0.201 OA
HETATM    9  O   UNK N   1      34.555  13.022  13.771  0.00  0.00    -0.201 OA
BRANCH   7  10
HETATM   10  N   UNK N   1      33.647  10.575  13.999  0.00  0.00    -0.324 N 
HETATM   11  H   UNK N   1      32.837  10.197  14.491  0.00  0.00     0.169 HD
HETATM   12  H   UNK N   1      33.772  10.233  13.045  0.00  0.00     0.169 HD
ENDBRANCH   7  10
ENDBRANCH   1   7
BRANCH   4  13
HETATM   13  N   UNK N   1      35.549  12.715  20.414  0.00  0.00    -0.399 N 
HETATM   14  H   UNK N   1      36.094  12.093  20.948  0.00  0.00     0.156 HD
HETATM   15  H   UNK N   1      35.139  13.501  20.842  0.00  0.00     0.156 HD
ENDBRANCH   4  13
TORSDOF 3
ENDMDL
MODEL 5
REMARK VINA RESULT:      -4.7      7.437      8.361
REMARK  3 active torsions:
REMARK  status: ('A' for Active; 'I' for Inactive)
REMARK    1  A    between atoms: S_1  and  N_4 
REMARK    2  A    between atoms: S_1  and  C_6 
REMARK    3  A    between atoms: N_5  and  C_9 
ROOT
HETATM    1  C   UNK N   1      35.034  16.574   9.226  0.00  0.00     0.079 A 
HETATM    2  C   UNK N   1      35.364  15.321   8.700  0.00  0.00     0.027 A 
HETATM    3  C   UNK N   1      35.318  16.868  10.563  0.00  0.00     0.027 A 
HETATM    4  C   UNK N   1      36.273  14.662  10.845  0.00  0.00     0.025 A 
HETATM    5  C   UNK N   1      35.984  14.363   9.511  0.00  0.00     0.030 A 
HETATM    6  C   UNK N   1      35.937  15.911  11.374  0.00  0.00     0.030 A 
ENDROOT
BRANCH   1   7
HETATM    7  S   UNK N   1      34.310  17.823   8.171  0.00  0.00     0.256 S 
HETATM    8  O   UNK N   1      34.564  17.579   6.676  0.00  0.00    -0.201 OA
HETATM    9  O   UNK N   1      34.947  19.202   8.389  0.00  0.00    -0.201 OA
BRANCH   7  10
HETATM   10  N   UNK N   1      32.573  18.100   8.299  0.00  0.00    -0.324 N 
HETATM   11  H   UNK N   1      31.829  17.468   8.595  0.00  0.00     0.169 HD
HETATM   12  H   UNK N   1      32.264  19.037   8.039  0.00  0.00     0.169 HD
ENDBRANCH   7  10
ENDBRANCH   1   7
BRANCH   4  13
HETATM   13  N   UNK N   1      36.917  13.704  11.656  0.00  0.00    -0.399 N 
HETATM   14  H   UNK N   1      36.873  12.749  11.421  0.00  0.00     0.156 HD
HETATM   15  H   UNK N   1      37.409  13.991  12.459  0.00  0.00     0.156 HD
ENDBRANCH   4  13
TORSDOF 3
ENDMDL
MODEL 6
REMARK VINA RESULT:      -4.6     10.381     11.239
REMARK  3 active torsions:
REMARK  status: ('A' for Active; 'I' for Inactive)
REMARK    1  A    between atoms: S_1  and  N_4 
REMARK    2  A    between atoms: S_1  and  C_6 
REMARK    3  A    between atoms: N_5  and  C_9 
ROOT
HETATM    1  C   UNK N   1      32.040  17.598   7.735  0.00  0.00     0.079 A 
HETATM    2  C   UNK N   1      31.421  18.300   8.774  0.00  0.00     0.027 A 
HETATM    3  C   UNK N   1      31.266  16.907   6.798  0.00  0.00     0.027 A 
HETATM    4  C   UNK N   1      29.253  17.630   7.932  0.00  0.00     0.025 A 
HETATM    5  C   UNK N   1      30.025  18.315   8.873  0.00  0.00     0.030 A 
HETATM    6  C   UNK N   1      29.870  16.922   6.897  0.00  0.00     0.030 A 
ENDROOT
BRANCH   1   7
HETATM    7  S   UNK N   1      33.820  17.641   7.565  0.00  0.00     0.256 S 
HETATM    8  O   UNK N   1      34.469  18.854   8.247  0.00  0.00    -0.201 OA
HETATM    9  O   UNK N   1      34.255  17.816   6.104  0.00  0.00    -0.201 OA
BRANCH   7  10
HETATM   10  N   UNK N   1      34.734  16.248   8.146  0.00  0.00    -0.324 N 
HETATM   11  H   UNK N   1      34.415  15.420   8.650  0.00  0.00     0.169 HD
HETATM   12  H   UNK N   1      35.734  16.274   7.947  0.00  0.00     0.169 HD
ENDBRANCH   7  10
ENDBRANCH   1   7
BRANCH   4  13
HETATM   13  N   UNK N   1      27.845  17.662   8.020  0.00  0.00    -0.399 N 
HETATM   14  H   UNK N   1      27.404  17.562   8.894  0.00  0.00     0.156 HD
HETATM   15  H   UNK N   1      27.305  17.783   7.207  0.00  0.00     0.156 HD
ENDBRANCH   4  13
TORSDOF 3
ENDMDL
MODEL 7
REMARK VINA RESULT:      -4.6     11.001     12.542
REMARK  3 active torsions:
REMARK  status: ('A' for Active; 'I' for Inactive)
REMARK    1  A    between atoms: S_1  and  N_4 
REMARK    2  A    between atoms: S_1  and  C_6 
REMARK    3  A    between atoms: N_5  and  C_9 
ROOT
HETATM    1  C   UNK N   1      32.740  17.328   6.287  0.00  0.00     0.079 A 
HETATM    2  C   UNK N   1      33.098  17.528   4.949  0.00  0.00     0.027 A 
HETATM    3  C   UNK N   1      31.405  17.085   6.625  0.00  0.00     0.027 A 
HETATM    4  C   UNK N   1      30.788  17.230   4.289  0.00  0.00     0.025 A 
HETATM    5  C   UNK N   1      32.120  17.480   3.949  0.00  0.00     0.030 A 
HETATM    6  C   UNK N   1      30.427  17.038   5.625  0.00  0.00     0.030 A 
ENDROOT
BRANCH   1   7
HETATM    7  S   UNK N   1      34.000  17.315   7.556  0.00  0.00     0.256 S 
HETATM    8  O   UNK N   1      34.810  18.618   7.623  0.00  0.00    -0.201 OA
HETATM    9  O   UNK N   1      35.087  16.269   7.277  0.00  0.00    -0.201 OA
BRANCH   7  10
HETATM   10  N   UNK N   1      33.489  17.009   9.216  0.00  0.00    -0.324 N 
HETATM   11  H   UNK N   1      32.630  17.276   9.697  0.00  0.00     0.169 HD
HETATM   12  H   UNK N   1      34.155  16.482   9.783  0.00  0.00     0.169 HD
ENDBRANCH   7  10
ENDBRANCH   1   7
BRANCH   4  13
HETATM   13  N   UNK N   1      29.806  17.161   3.279  0.00  0.00    -0.399 N 
HETATM   14  H   UNK N   1      29.010  17.739   3.324  0.00  0.00     0.156 HD
HETATM   15  H   UNK N   1      29.916  16.535   2.528  0.00  0.00     0.156 HD
ENDBRANCH   4  13
TORSDOF 3
ENDMDL
MODEL 8
REMARK VINA RESULT:      -4.6     15.420     15.877
REMARK  3 active torsions:
REMARK  status: ('A' for Active; 'I' for Inactive)
REMARK    1  A    between atoms: S_1  and  N_4 
REMARK    2  A    between atoms: S_1  and  C_6 
REMARK    3  A    between atoms: N_5  and  C_9 
ROOT
HETATM    1  C   UNK N   1      21.307  13.632   9.465  0.00  0.00     0.079 A 
HETATM    2  C   UNK N   1      20.399  13.093  10.383  0.00  0.00     0.027 A 
HETATM    3  C   UNK N   1      22.678  13.407   9.621  0.00  0.00     0.027 A 
HETATM    4  C   UNK N   1      22.234  12.094  11.606  0.00  0.00     0.025 A 
HETATM    5  C   UNK N   1      20.864  12.324  11.456  0.00  0.00     0.030 A 
HETATM    6  C   UNK N   1      23.142  12.637  10.694  0.00  0.00     0.030 A 
ENDROOT
BRANCH   1   7
HETATM    7  S   UNK N   1      20.708  14.553   8.054  0.00  0.00     0.256 S 
HETATM    8  O   UNK N   1      19.476  15.415   8.366  0.00  0.00    -0.201 OA
HETATM    9  O   UNK N   1      20.187  13.630   6.943  0.00  0.00    -0.201 OA
BRANCH   7  10
HETATM   10  N   UNK N   1      21.836  15.643   7.246  0.00  0.00    -0.324 N 
HETATM   11  H   UNK N   1      22.829  15.526   7.046  0.00  0.00     0.169 HD
HETATM   12  H   UNK N   1      21.433  16.526   6.930  0.00  0.00     0.169 HD
ENDBRANCH   7  10
ENDBRANCH   1   7
BRANCH   4  13
HETATM   13  N   UNK N   1      22.701  11.301  12.675  0.00  0.00    -0.399 N 
HETATM   14  H   UNK N   1      22.071  10.975  13.359  0.00  0.00     0.156 HD
HETATM   15  H   UNK N   1      23.656  11.073  12.738  0.00  0.00     0.156 HD
ENDBRANCH   4  13
TORSDOF 3
ENDMDL
MODEL 9
REMARK VINA RESULT:      -4.5     26.307     27.198
REMARK  3 active torsions:
REMARK  status: ('A' for Active; 'I' for Inactive)
REMARK    1  A    between atoms: S_1  and  N_4 
REMARK    2  A    between atoms: S_1  and  C_6 
REMARK    3  A    between atoms: N_5  and  C_9 
ROOT
HETATM    1  C   UNK N   1      25.949  25.036  -5.636  0.00  0.00     0.079 A 
HETATM    2  C   UNK N   1      26.483  25.054  -4.343  0.00  0.00     0.027 A 
HETATM    3  C   UNK N   1      25.318  26.173  -6.149  0.00  0.00     0.027 A 
HETATM    4  C   UNK N   1      25.762  27.350  -4.081  0.00  0.00     0.025 A 
HETATM    5  C   UNK N   1      26.388  26.213  -3.564  0.00  0.00     0.030 A 
HETATM    6  C   UNK N   1      25.223  27.331  -5.369  0.00  0.00     0.030 A 
ENDROOT
BRANCH   1   7
HETATM    7  S   UNK N   1      26.137  23.580  -6.658  0.00  0.00     0.256 S 
HETATM    8  O   UNK N   1      27.455  22.831  -6.417  0.00  0.00    -0.201 OA
HETATM    9  O   UNK N   1      26.229  23.932  -8.149  0.00  0.00    -0.201 OA
BRANCH   7  10
HETATM   10  N   UNK N   1      24.883  22.342  -6.561  0.00  0.00    -0.324 N 
HETATM   11  H   UNK N   1      24.014  22.249  -7.086  0.00  0.00     0.169 HD
HETATM   12  H   UNK N   1      25.055  21.607  -5.875  0.00  0.00     0.169 HD
ENDBRANCH   7  10
ENDBRANCH   1   7
BRANCH   4  13
HETATM   13  N   UNK N   1      25.685  28.524  -3.303  0.00  0.00    -0.399 N 
HETATM   14  H   UNK N   1      24.812  28.845  -2.980  0.00  0.00     0.156 HD
HETATM   15  H   UNK N   1      26.504  29.024  -3.084  0.00  0.00     0.156 HD
ENDBRANCH   4  13
TORSDOF 3
ENDMDL
