MODEL 1
REMARK VINA RESULT:      -4.3      0.000      0.000
REMARK  6 active torsions:
REMARK  status: ('A' for Active; 'I' for Inactive)
REMARK    1  A    between atoms: O_4  and  N_8 
REMARK    2  A    between atoms: N_6  and  N_8 
REMARK    3  A    between atoms: N_6  and  C_10 
REMARK       I    between atoms: N_6  and  C_12 
REMARK    4  A    between atoms: N_7  and  C_11 
REMARK       I    between atoms: N_7  and  C_12 
REMARK    5  A    between atoms: C_10  and  C_13 
REMARK    6  A    between atoms: C_11  and  C_14 
ROOT
HETATM    1  O   UNK N   1      36.110  17.348  10.503  0.00  0.00    -0.245 OA
HETATM    2  N   UNK N   1      34.259  16.112  10.239  0.00  0.00    -0.222 N 
HETATM    3  N   UNK N   1      35.984  15.594  11.840  0.00  0.00    -0.341 N 
HETATM    4  C   UNK N   1      35.462  16.371  10.852  0.00  0.00     0.338 C 
HETATM    5  H   UNK N   1      36.854  15.880  12.204  0.00  0.00     0.164 HD
ENDROOT
BRANCH   2   6
HETATM    6  N   UNK N   1      33.501  15.013  10.612  0.00  0.00    -0.204 N 
ATOM      7  HN  UNK N   1      33.970  14.118  10.751  1.00  0.00     0.216 HD
BRANCH   6   8
HETATM    8  O   UNK N   1      32.321  15.076  10.778  0.00  0.00    -0.274 OA
ATOM      9  HO  UNK N   1      31.795  14.315  10.995  1.00  0.00     0.246 HD
ENDBRANCH   6   8
ENDBRANCH   2   6
BRANCH   2  10
HETATM   10  C   UNK N   1      33.843  17.051   9.191  0.00  0.00     0.171 C 
BRANCH  10  11
HETATM   11  C   UNK N   1      33.600  16.521   7.793  0.00  0.00     0.136 C 
HETATM   12 Cl   UNK N   1      31.873  16.746   7.432  0.00  0.00    -0.129 Cl
ENDBRANCH  10  11
ENDBRANCH   2  10
BRANCH   3  13
HETATM   13  C   UNK N   1      35.414  14.403  12.417  0.00  0.00     0.139 C 
BRANCH  13  14
HETATM   14  C   UNK N   1      36.433  13.662  13.291  0.00  0.00     0.134 C 
HETATM   15 Cl   UNK N   1      36.775  14.431  14.877  0.00  0.00    -0.129 Cl
ENDBRANCH  13  14
ENDBRANCH   3  13
TORSDOF 6
ENDMDL
MODEL 2
REMARK VINA RESULT:      -4.3      1.993      3.150
REMARK  6 active torsions:
REMARK  status: ('A' for Active; 'I' for Inactive)
REMARK    1  A    between atoms: O_4  and  N_8 
REMARK    2  A    between atoms: N_6  and  N_8 
REMARK    3  A    between atoms: N_6  and  C_10 
REMARK       I    between atoms: N_6  and  C_12 
REMARK    4  A    between atoms: N_7  and  C_11 
REMARK       I    between atoms: N_7  and  C_12 
REMARK    5  A    between atoms: C_10  and  C_13 
REMARK    6  A    between atoms: C_11  and  C_14 
ROOT
HETATM    1  O   UNK N   1      32.669  15.577   8.606  0.00  0.00    -0.245 OA
HETATM    2  N   UNK N   1      33.940  17.414   8.431  0.00  0.00    -0.222 N 
HETATM    3  N   UNK N   1      34.132  15.834  10.241  0.00  0.00    -0.341 N 
HETATM    4  C   UNK N   1      33.562  16.263   9.081  0.00  0.00     0.338 C 
HETATM    5  H   UNK N   1      33.779  14.994  10.614  0.00  0.00     0.164 HD
ENDROOT
BRANCH   2   6
HETATM    6  N   UNK N   1      34.949  18.213   8.944  0.00  0.00    -0.204 N 
ATOM      7  HN  UNK N   1      35.422  17.919   9.798  1.00  0.00     0.216 HD
BRANCH   6   8
HETATM    8  O   UNK N   1      35.285  19.233   8.422  0.00  0.00    -0.274 OA
ATOM      9  HO  UNK N   1      35.326  19.334   7.479  1.00  0.00     0.246 HD
ENDBRANCH   6   8
ENDBRANCH   2   6
BRANCH   2  10
HETATM   10  C   UNK N   1      33.221  17.730   7.191  0.00  0.00     0.171 C 
BRANCH  10  11
HETATM   11  C   UNK N   1      33.796  17.252   5.874  0.00  0.00     0.136 C 
HETATM   12 Cl   UNK N   1      32.605  17.627   4.607  0.00  0.00    -0.129 Cl
ENDBRANCH  10  11
ENDBRANCH   2  10
BRANCH   3  13
HETATM   13  C   UNK N   1      35.192  16.464  10.986  0.00  0.00     0.139 C 
BRANCH  13  14
HETATM   14  C   UNK N   1      36.283  15.457  11.369  0.00  0.00     0.134 C 
HETATM   15 Cl   UNK N   1      36.070  14.678  12.973  0.00  0.00    -0.129 Cl
ENDBRANCH  13  14
ENDBRANCH   3  13
TORSDOF 6
ENDMDL
MODEL 3
REMARK VINA RESULT:      -4.3      1.925      5.338
REMARK  6 active torsions:
REMARK  status: ('A' for Active; 'I' for Inactive)
REMARK    1  A    between atoms: O_4  and  N_8 
REMARK    2  A    between atoms: N_6  and  N_8 
REMARK    3  A    between atoms: N_6  and  C_10 
REMARK       I    between atoms: N_6  and  C_12 
REMARK    4  A    between atoms: N_7  and  C_11 
REMARK       I    between atoms: N_7  and  C_12 
REMARK    5  A    between atoms: C_10  and  C_13 
REMARK    6  A    between atoms: C_11  and  C_14 
ROOT
HETATM    1  O   UNK N   1      35.323  18.371   9.028  0.00  0.00    -0.245 OA
HETATM    2  N   UNK N   1      34.378  16.522   9.871  0.00  0.00    -0.222 N 
HETATM    3  N   UNK N   1      33.408  17.811   8.081  0.00  0.00    -0.341 N 
HETATM    4  C   UNK N   1      34.390  17.582   8.996  0.00  0.00     0.338 C 
HETATM    5  H   UNK N   1      33.525  18.603   7.507  0.00  0.00     0.164 HD
ENDROOT
BRANCH   2   6
HETATM    6  N   UNK N   1      33.334  15.611   9.860  0.00  0.00    -0.204 N 
ATOM      7  HN  UNK N   1      32.910  15.362   8.966  1.00  0.00     0.216 HD
BRANCH   6   8
HETATM    8  O   UNK N   1      32.914  15.106  10.856  0.00  0.00    -0.274 OA
ATOM      9  HO  UNK N   1      32.000  14.871  10.962  1.00  0.00     0.246 HD
ENDBRANCH   6   8
ENDBRANCH   2   6
BRANCH   2  10
HETATM   10  C   UNK N   1      35.516  16.423  10.793  0.00  0.00     0.171 C 
BRANCH  10  11
HETATM   11  C   UNK N   1      36.449  15.235  10.673  0.00  0.00     0.136 C 
HETATM   12 Cl   UNK N   1      36.255  14.258  12.147  0.00  0.00    -0.129 Cl
ENDBRANCH  10  11
ENDBRANCH   2  10
BRANCH   3  13
HETATM   13  C   UNK N   1      32.218  17.031   7.853  0.00  0.00     0.139 C 
BRANCH  13  14
HETATM   14  C   UNK N   1      31.843  17.004   6.367  0.00  0.00     0.134 C 
HETATM   15 Cl   UNK N   1      33.164  17.466   5.241  0.00  0.00    -0.129 Cl
ENDBRANCH  13  14
ENDBRANCH   3  13
TORSDOF 6
ENDMDL
MODEL 4
REMARK VINA RESULT:      -4.2      2.646      5.447
REMARK  6 active torsions:
REMARK  status: ('A' for Active; 'I' for Inactive)
REMARK    1  A    between atoms: O_4  and  N_8 
REMARK    2  A    between atoms: N_6  and  N_8 
REMARK    3  A    between atoms: N_6  and  C_10 
REMARK       I    between atoms: N_6  and  C_12 
REMARK    4  A    between atoms: N_7  and  C_11 
REMARK       I    between atoms: N_7  and  C_12 
REMARK    5  A    between atoms: C_10  and  C_13 
REMARK    6  A    between atoms: C_11  and  C_14 
ROOT
HETATM    1  O   UNK N   1      34.280  18.288   8.248  0.00  0.00    -0.245 OA
HETATM    2  N   UNK N   1      33.578  16.429   9.284  0.00  0.00    -0.222 N 
HETATM    3  N   UNK N   1      32.084  18.050   8.310  0.00  0.00    -0.341 N 
HETATM    4  C   UNK N   1      33.334  17.601   8.608  0.00  0.00     0.338 C 
HETATM    5  H   UNK N   1      32.034  18.904   7.822  0.00  0.00     0.164 HD
ENDROOT
BRANCH   2   6
HETATM    6  N   UNK N   1      32.528  15.628   9.705  0.00  0.00    -0.204 N 
ATOM      7  HN  UNK N   1      31.744  15.474   9.071  1.00  0.00     0.216 HD
BRANCH   6   8
HETATM    8  O   UNK N   1      32.508  15.112  10.781  0.00  0.00    -0.274 OA
ATOM      9  HO  UNK N   1      32.346  15.602  11.578  1.00  0.00     0.246 HD
ENDBRANCH   6   8
ENDBRANCH   2   6
BRANCH   2  10
HETATM   10  C   UNK N   1      34.986  16.092   9.523  0.00  0.00     0.171 C 
BRANCH  10  11
HETATM   11  C   UNK N   1      35.628  16.530  10.824  0.00  0.00     0.136 C 
HETATM   12 Cl   UNK N   1      35.792  15.085  11.847  0.00  0.00    -0.129 Cl
ENDBRANCH  10  11
ENDBRANCH   2  10
BRANCH   3  13
HETATM   13  C   UNK N   1      30.825  17.423   8.624  0.00  0.00     0.139 C 
BRANCH  13  14
HETATM   14  C   UNK N   1      29.900  18.378   9.388  0.00  0.00     0.134 C 
HETATM   15 Cl   UNK N   1      28.145  18.072   9.169  0.00  0.00    -0.129 Cl
ENDBRANCH  13  14
ENDBRANCH   3  13
TORSDOF 6
ENDMDL
MODEL 5
REMARK VINA RESULT:      -4.2      3.265      6.417
REMARK  6 active torsions:
REMARK  status: ('A' for Active; 'I' for Inactive)
REMARK    1  A    between atoms: O_4  and  N_8 
REMARK    2  A    between atoms: N_6  and  N_8 
REMARK    3  A    between atoms: N_6  and  C_10 
REMARK       I    between atoms: N_6  and  C_12 
REMARK    4  A    between atoms: N_7  and  C_11 
REMARK       I    between atoms: N_7  and  C_12 
REMARK    5  A    between atoms: C_10  and  C_13 
REMARK    6  A    between atoms: C_11  and  C_14 
ROOT
HETATM    1  O   UNK N   1      34.598  12.456  13.516  0.00  0.00    -0.245 OA
HETATM    2  N   UNK N   1      36.074  13.729  14.621  0.00  0.00    -0.222 N 
HETATM    3  N   UNK N   1      35.475  14.089  12.315  0.00  0.00    -0.341 N 
HETATM    4  C   UNK N   1      35.368  13.405  13.487  0.00  0.00     0.338 C 
HETATM    5  H   UNK N   1      34.918  13.764  11.570  0.00  0.00     0.164 HD
ENDROOT
BRANCH   2   6
HETATM    6  N   UNK N   1      36.955  14.800  14.620  0.00  0.00    -0.204 N 
ATOM      7  HN  UNK N   1      36.995  15.401  13.797  1.00  0.00     0.216 HD
BRANCH   6   8
HETATM    8  O   UNK N   1      37.666  15.044  15.546  0.00  0.00    -0.274 OA
ATOM      9  HO  UNK N   1      38.235  14.392  15.938  1.00  0.00     0.246 HD
ENDBRANCH   6   8
ENDBRANCH   2   6
BRANCH   2  10
HETATM   10  C   UNK N   1      35.840  12.888  15.800  0.00  0.00     0.171 C 
BRANCH  10  11
HETATM   11  C   UNK N   1      34.705  13.247  16.737  0.00  0.00     0.136 C 
HETATM   12 Cl   UNK N   1      35.399  14.197  18.071  0.00  0.00    -0.129 Cl
ENDBRANCH  10  11
ENDBRANCH   2  10
BRANCH   3  13
HETATM   13  C   UNK N   1      36.306  15.232  12.035  0.00  0.00     0.139 C 
BRANCH  13  14
HETATM   14  C   UNK N   1      35.644  16.171  11.020  0.00  0.00     0.134 C 
HETATM   15 Cl   UNK N   1      34.262  15.462  10.118  0.00  0.00    -0.129 Cl
ENDBRANCH  13  14
ENDBRANCH   3  13
TORSDOF 6
ENDMDL
MODEL 6
REMARK VINA RESULT:      -4.1     16.448     17.152
REMARK  6 active torsions:
REMARK  status: ('A' for Active; 'I' for Inactive)
REMARK    1  A    between atoms: O_4  and  N_8 
REMARK    2  A    between atoms: N_6  and  N_8 
REMARK    3  A    between atoms: N_6  and  C_10 
REMARK       I    between atoms: N_6  and  C_12 
REMARK    4  A    between atoms: N_7  and  C_11 
REMARK       I    between atoms: N_7  and  C_12 
REMARK    5  A    between atoms: C_10  and  C_13 
REMARK    6  A    between atoms: C_11  and  C_14 
ROOT
HETATM    1  O   UNK N   1      20.383  17.213  -0.159  0.00  0.00    -0.245 OA
HETATM    2  N   UNK N   1      19.945  16.731   1.986  0.00  0.00    -0.222 N 
HETATM    3  N   UNK N   1      20.243  18.977   1.164  0.00  0.00    -0.341 N 
HETATM    4  C   UNK N   1      20.194  17.630   0.976  0.00  0.00     0.338 C 
HETATM    5  H   UNK N   1      20.430  19.521   0.364  0.00  0.00     0.164 HD
ENDROOT
BRANCH   2   6
HETATM    6  N   UNK N   1      19.727  17.172   3.282  0.00  0.00    -0.204 N 
ATOM      7  HN  UNK N   1      20.314  17.919   3.651  1.00  0.00     0.216 HD
BRANCH   6   8
HETATM    8  O   UNK N   1      18.878  16.709   3.981  0.00  0.00    -0.274 OA
ATOM      9  HO  UNK N   1      18.488  15.858   3.814  1.00  0.00     0.246 HD
ENDBRANCH   6   8
ENDBRANCH   2   6
BRANCH   2  10
HETATM   10  C   UNK N   1      19.927  15.313   1.610  0.00  0.00     0.171 C 
BRANCH  10  11
HETATM   11  C   UNK N   1      21.062  14.422   2.073  0.00  0.00     0.136 C 
HETATM   12 Cl   UNK N   1      21.831  13.744   0.619  0.00  0.00    -0.129 Cl
ENDBRANCH  10  11
ENDBRANCH   2  10
BRANCH   3  13
HETATM   13  C   UNK N   1      20.055  19.701   2.395  0.00  0.00     0.139 C 
BRANCH  13  14
HETATM   14  C   UNK N   1      21.298  20.523   2.756  0.00  0.00     0.134 C 
HETATM   15 Cl   UNK N   1      22.668  19.577   3.427  0.00  0.00    -0.129 Cl
ENDBRANCH  13  14
ENDBRANCH   3  13
TORSDOF 6
ENDMDL
MODEL 7
REMARK VINA RESULT:      -4.1      3.046      5.883
REMARK  6 active torsions:
REMARK  status: ('A' for Active; 'I' for Inactive)
REMARK    1  A    between atoms: O_4  and  N_8 
REMARK    2  A    between atoms: N_6  and  N_8 
REMARK    3  A    between atoms: N_6  and  C_10 
REMARK       I    between atoms: N_6  and  C_12 
REMARK    4  A    between atoms: N_7  and  C_11 
REMARK       I    between atoms: N_7  and  C_12 
REMARK    5  A    between atoms: C_10  and  C_13 
REMARK    6  A    between atoms: C_11  and  C_14 
ROOT
HETATM    1  O   UNK N   1      34.356  12.605  13.635  0.00  0.00    -0.245 OA
HETATM    2  N   UNK N   1      36.413  13.212  12.985  0.00  0.00    -0.222 N 
HETATM    3  N   UNK N   1      34.490  13.277  11.534  0.00  0.00    -0.341 N 
HETATM    4  C   UNK N   1      35.074  13.023  12.737  0.00  0.00     0.338 C 
HETATM    5  H   UNK N   1      33.522  13.103  11.476  0.00  0.00     0.164 HD
ENDROOT
BRANCH   2   6
HETATM    6  N   UNK N   1      37.254  13.684  11.989  0.00  0.00    -0.204 N 
ATOM      7  HN  UNK N   1      37.036  14.577  11.546  1.00  0.00     0.216 HD
BRANCH   6   8
HETATM    8  O   UNK N   1      38.221  13.084  11.630  0.00  0.00    -0.274 OA
ATOM      9  HO  UNK N   1      39.098  13.312  11.917  1.00  0.00     0.246 HD
ENDBRANCH   6   8
ENDBRANCH   2   6
BRANCH   2  10
HETATM   10  C   UNK N   1      36.881  12.889  14.338  0.00  0.00     0.171 C 
BRANCH  10  11
HETATM   11  C   UNK N   1      36.918  13.990  15.377  0.00  0.00     0.136 C 
HETATM   12 Cl   UNK N   1      35.718  13.582  16.625  0.00  0.00    -0.129 Cl
ENDBRANCH  10  11
ENDBRANCH   2  10
BRANCH   3  13
HETATM   13  C   UNK N   1      35.120  13.770  10.336  0.00  0.00     0.139 C 
BRANCH  13  14
HETATM   14  C   UNK N   1      34.645  15.186   9.995  0.00  0.00     0.134 C 
HETATM   15 Cl   UNK N   1      35.296  16.482  11.054  0.00  0.00    -0.129 Cl
ENDBRANCH  13  14
ENDBRANCH   3  13
TORSDOF 6
ENDMDL
MODEL 8
REMARK VINA RESULT:      -4.0      6.458      9.043
REMARK  6 active torsions:
REMARK  status: ('A' for Active; 'I' for Inactive)
REMARK    1  A    between atoms: O_4  and  N_8 
REMARK    2  A    between atoms: N_6  and  N_8 
REMARK    3  A    between atoms: N_6  and  C_10 
REMARK       I    between atoms: N_6  and  C_12 
REMARK    4  A    between atoms: N_7  and  C_11 
REMARK       I    between atoms: N_7  and  C_12 
REMARK    5  A    between atoms: C_10  and  C_13 
REMARK    6  A    between atoms: C_11  and  C_14 
ROOT
HETATM    1  O   UNK N   1      29.913  17.388   5.602  0.00  0.00    -0.245 OA
HETATM    2  N   UNK N   1      28.827  17.972   7.473  0.00  0.00    -0.222 N 
HETATM    3  N   UNK N   1      28.032  18.495   5.259  0.00  0.00    -0.341 N 
HETATM    4  C   UNK N   1      28.944  17.940   6.104  0.00  0.00     0.338 C 
HETATM    5  H   UNK N   1      28.222  18.410   4.297  0.00  0.00     0.164 HD
ENDROOT
BRANCH   2   6
HETATM    6  N   UNK N   1      27.741  18.590   8.073  0.00  0.00    -0.204 N 
ATOM      7  HN  UNK N   1      27.191  19.253   7.527  1.00  0.00     0.216 HD
BRANCH   6   8
HETATM    8  O   UNK N   1      27.427  18.375   9.204  0.00  0.00    -0.274 OA
ATOM      9  HO  UNK N   1      26.758  17.741   9.436  1.00  0.00     0.246 HD
ENDBRANCH   6   8
ENDBRANCH   2   6
BRANCH   2  10
HETATM   10  C   UNK N   1      29.901  17.325   8.237  0.00  0.00     0.171 C 
BRANCH  10  11
HETATM   11  C   UNK N   1      30.951  18.195   8.896  0.00  0.00     0.136 C 
HETATM   12 Cl   UNK N   1      32.492  17.892   8.060  0.00  0.00    -0.129 Cl
ENDBRANCH  10  11
ENDBRANCH   2  10
BRANCH   3  13
HETATM   13  C   UNK N   1      26.820  19.193   5.608  0.00  0.00     0.139 C 
BRANCH  13  14
HETATM   14  C   UNK N   1      26.920  20.686   5.276  0.00  0.00     0.134 C 
HETATM   15 Cl   UNK N   1      26.451  21.794   6.609  0.00  0.00    -0.129 Cl
ENDBRANCH  13  14
ENDBRANCH   3  13
TORSDOF 6
ENDMDL
MODEL 9
REMARK VINA RESULT:      -4.0      2.512      5.391
REMARK  6 active torsions:
REMARK  status: ('A' for Active; 'I' for Inactive)
REMARK    1  A    between atoms: O_4  and  N_8 
REMARK    2  A    between atoms: N_6  and  N_8 
REMARK    3  A    between atoms: N_6  and  C_10 
REMARK       I    between atoms: N_6  and  C_12 
REMARK    4  A    between atoms: N_7  and  C_11 
REMARK       I    between atoms: N_7  and  C_12 
REMARK    5  A    between atoms: C_10  and  C_13 
REMARK    6  A    between atoms: C_11  and  C_14 
ROOT
HETATM    1  O   UNK N   1      34.631  13.935  12.420  0.00  0.00    -0.245 OA
HETATM    2  N   UNK N   1      36.528  14.287  11.281  0.00  0.00    -0.222 N 
HETATM    3  N   UNK N   1      34.631  15.770  11.190  0.00  0.00    -0.341 N 
HETATM    4  C   UNK N   1      35.253  14.648  11.646  0.00  0.00     0.338 C 
HETATM    5  H   UNK N   1      33.717  15.925  11.521  0.00  0.00     0.164 HD
ENDROOT
BRANCH   2   6
HETATM    6  N   UNK N   1      37.260  15.073  10.405  0.00  0.00    -0.204 N 
ATOM      7  HN  UNK N   1      36.799  15.863   9.954  1.00  0.00     0.216 HD
BRANCH   6   8
HETATM    8  O   UNK N   1      38.408  14.860  10.160  0.00  0.00    -0.274 OA
ATOM      9  HO  UNK N   1      38.811  15.120   9.340  1.00  0.00     0.246 HD
ENDBRANCH   6   8
ENDBRANCH   2   6
BRANCH   2  10
HETATM   10  C   UNK N   1      37.049  13.045  11.866  0.00  0.00     0.171 C 
BRANCH  10  11
HETATM   11  C   UNK N   1      36.989  11.773  11.046  0.00  0.00     0.136 C 
HETATM   12 Cl   UNK N   1      36.017  10.598  11.961  0.00  0.00    -0.129 Cl
ENDBRANCH  10  11
ENDBRANCH   2  10
BRANCH   3  13
HETATM   13  C   UNK N   1      35.153  16.757  10.279  0.00  0.00     0.139 C 
BRANCH  13  14
HETATM   14  C   UNK N   1      34.206  16.982   9.095  0.00  0.00     0.134 C 
HETATM   15 Cl   UNK N   1      34.482  18.502   8.179  0.00  0.00    -0.129 Cl
ENDBRANCH  13  14
ENDBRANCH   3  13
TORSDOF 6
ENDMDL
