MODEL 1
REMARK VINA RESULT:      -6.4      0.000      0.000
REMARK  4 active torsions:
REMARK  status: ('A' for Active; 'I' for Inactive)
REMARK    1  A    between atoms: S_1  and  N_5 
REMARK    2  A    between atoms: S_1  and  C_9 
REMARK    3  A    between atoms: N_5  and  C_10 
REMARK    4  A    between atoms: N_8  and  C_18 
ROOT
HETATM    1  S   UNK N   1      33.078  16.679   6.809  0.00  0.00     0.264 S 
HETATM    2  O   UNK N   1      33.141  16.344   5.311  0.00  0.00    -0.200 OA
HETATM    3  O   UNK N   1      33.628  18.097   6.601  0.00  0.00    -0.200 OA
ENDROOT
BRANCH   1   4
HETATM    4  N   UNK N   1      34.577  16.173   7.577  0.00  0.00    -0.258 N 
HETATM    5  H   UNK N   1      35.275  15.827   6.975  0.00  0.00     0.181 HD
BRANCH   4   6
HETATM    6  C   UNK N   1      34.903  16.201   8.956  0.00  0.00     0.187 A 
HETATM    7  O   UNK N   1      34.763  17.286   9.686  0.00  0.00    -0.218 OA
HETATM    8  N   UNK N   1      35.102  17.068  10.924  0.00  0.00    -0.263 N 
HETATM    9  C   UNK N   1      35.482  15.779  11.014  0.00  0.00     0.039 A 
ATOM     10  HN  UNK N   1      35.084  17.746  11.685  1.00  0.00     0.194 HD
HETATM   11  C   UNK N   1      35.375  15.190   9.770  0.00  0.00     0.016 A 
HETATM   12  C   UNK N   1      35.927  15.132  12.278  0.00  0.00     0.071 C 
HETATM   13  C   UNK N   1      35.692  13.777   9.429  0.00  0.00     0.055 C 
ENDBRANCH   4   6
ENDBRANCH   1   4
BRANCH   1  14
HETATM   14  C   UNK N   1      31.511  17.289   7.459  0.00  0.00     0.080 A 
HETATM   15  C   UNK N   1      30.328  17.004   6.760  0.00  0.00     0.027 A 
HETATM   16  C   UNK N   1      29.100  17.481   7.219  0.00  0.00     0.030 A 
HETATM   17  C   UNK N   1      29.044  18.242   8.387  0.00  0.00     0.025 A 
HETATM   18  C   UNK N   1      30.217  18.522   9.098  0.00  0.00     0.030 A 
HETATM   19  C   UNK N   1      31.452  18.046   8.633  0.00  0.00     0.027 A 
BRANCH  17  20
HETATM   20  N   UNK N   1      27.805  18.732   8.845  0.00  0.00    -0.399 N 
HETATM   21  H   UNK N   1      27.007  18.703   8.270  0.00  0.00     0.156 HD
HETATM   22  H   UNK N   1      27.737  19.108   9.753  0.00  0.00     0.156 HD
ENDBRANCH  17  20
ENDBRANCH   1  14
TORSDOF 4
ENDMDL
MODEL 2
REMARK VINA RESULT:      -6.4     11.427     13.746
REMARK  4 active torsions:
REMARK  status: ('A' for Active; 'I' for Inactive)
REMARK    1  A    between atoms: S_1  and  N_5 
REMARK    2  A    between atoms: S_1  and  C_9 
REMARK    3  A    between atoms: N_5  and  C_10 
REMARK    4  A    between atoms: N_8  and  C_18 
ROOT
HETATM    1  S   UNK N   1      20.988  15.216   7.631  0.00  0.00     0.264 S 
HETATM    2  O   UNK N   1      21.783  15.024   6.331  0.00  0.00    -0.200 OA
HETATM    3  O   UNK N   1      19.827  14.335   7.151  0.00  0.00    -0.200 OA
ENDROOT
BRANCH   1   4
HETATM    4  N   UNK N   1      19.995  16.662   7.492  0.00  0.00    -0.258 N 
HETATM    5  H   UNK N   1      19.723  16.912   6.580  0.00  0.00     0.181 HD
BRANCH   4   6
HETATM    6  C   UNK N   1      19.537  17.509   8.532  0.00  0.00     0.187 A 
HETATM    7  O   UNK N   1      20.179  18.604   8.877  0.00  0.00    -0.218 OA
HETATM    8  N   UNK N   1      19.561  19.229   9.836  0.00  0.00    -0.263 N 
HETATM    9  C   UNK N   1      18.460  18.514  10.137  0.00  0.00     0.039 A 
ATOM     10  HN  UNK N   1      19.855  20.100  10.278  1.00  0.00     0.194 HD
HETATM   11  C   UNK N   1      18.412  17.398   9.326  0.00  0.00     0.016 A 
HETATM   12  C   UNK N   1      17.474  18.910  11.179  0.00  0.00     0.071 C 
HETATM   13  C   UNK N   1      17.361  16.346   9.329  0.00  0.00     0.055 C 
ENDBRANCH   4   6
ENDBRANCH   1   4
BRANCH   1  14
HETATM   14  C   UNK N   1      21.368  14.116   9.008  0.00  0.00     0.080 A 
HETATM   15  C   UNK N   1      22.695  13.701   9.199  0.00  0.00     0.027 A 
HETATM   16  C   UNK N   1      23.022  12.830  10.239  0.00  0.00     0.030 A 
HETATM   17  C   UNK N   1      22.025  12.371  11.100  0.00  0.00     0.025 A 
HETATM   18  C   UNK N   1      20.701  12.790  10.925  0.00  0.00     0.030 A 
HETATM   19  C   UNK N   1      20.372  13.662   9.877  0.00  0.00     0.027 A 
BRANCH  17  20
HETATM   20  N   UNK N   1      22.354  11.484  12.144  0.00  0.00    -0.399 N 
HETATM   21  H   UNK N   1      23.283  11.393  12.455  0.00  0.00     0.156 HD
HETATM   22  H   UNK N   1      21.645  10.947  12.567  0.00  0.00     0.156 HD
ENDBRANCH  17  20
ENDBRANCH   1  14
TORSDOF 4
ENDMDL
MODEL 3
REMARK VINA RESULT:      -6.4      3.171      4.002
REMARK  4 active torsions:
REMARK  status: ('A' for Active; 'I' for Inactive)
REMARK    1  A    between atoms: S_1  and  N_5 
REMARK    2  A    between atoms: S_1  and  C_9 
REMARK    3  A    between atoms: N_5  and  C_10 
REMARK    4  A    between atoms: N_8  and  C_18 
ROOT
HETATM    1  S   UNK N   1      34.328  17.708   8.172  0.00  0.00     0.264 S 
HETATM    2  O   UNK N   1      34.992  19.092   8.234  0.00  0.00    -0.200 OA
HETATM    3  O   UNK N   1      32.911  18.290   8.253  0.00  0.00    -0.200 OA
ENDROOT
BRANCH   1   4
HETATM    4  N   UNK N   1      34.192  17.060   9.803  0.00  0.00    -0.258 N 
HETATM    5  H   UNK N   1      33.485  17.451  10.364  0.00  0.00     0.181 HD
BRANCH   4   6
HETATM    6  C   UNK N   1      34.976  16.045  10.406  0.00  0.00     0.187 A 
HETATM    7  O   UNK N   1      35.934  16.318  11.264  0.00  0.00    -0.218 OA
HETATM    8  N   UNK N   1      36.498  15.229  11.702  0.00  0.00    -0.263 N 
HETATM    9  C   UNK N   1      35.883  14.191  11.104  0.00  0.00     0.039 A 
ATOM     10  HN  UNK N   1      37.265  15.173  12.372  1.00  0.00     0.194 HD
HETATM   11  C   UNK N   1      34.903  14.673  10.260  0.00  0.00     0.016 A 
HETATM   12  C   UNK N   1      36.229  12.766  11.356  0.00  0.00     0.071 C 
HETATM   13  C   UNK N   1      33.988  13.864   9.412  0.00  0.00     0.055 C 
ENDBRANCH   4   6
ENDBRANCH   1   4
BRANCH   1  14
HETATM   14  C   UNK N   1      34.038  16.997   6.542  0.00  0.00     0.080 A 
HETATM   15  C   UNK N   1      33.229  17.695   5.631  0.00  0.00     0.027 A 
HETATM   16  C   UNK N   1      32.962  17.164   4.369  0.00  0.00     0.030 A 
HETATM   17  C   UNK N   1      33.507  15.932   4.004  0.00  0.00     0.025 A 
HETATM   18  C   UNK N   1      34.325  15.235   4.901  0.00  0.00     0.030 A 
HETATM   19  C   UNK N   1      34.589  15.767   6.171  0.00  0.00     0.027 A 
BRANCH  17  20
HETATM   20  N   UNK N   1      33.228  15.391   2.733  0.00  0.00    -0.399 N 
HETATM   21  H   UNK N   1      32.411  15.641   2.246  0.00  0.00     0.156 HD
HETATM   22  H   UNK N   1      33.861  14.754   2.327  0.00  0.00     0.156 HD
ENDBRANCH  17  20
ENDBRANCH   1  14
TORSDOF 4
ENDMDL
MODEL 4
REMARK VINA RESULT:      -6.4      4.036      7.793
REMARK  4 active torsions:
REMARK  status: ('A' for Active; 'I' for Inactive)
REMARK    1  A    between atoms: S_1  and  N_5 
REMARK    2  A    between atoms: S_1  and  C_9 
REMARK    3  A    between atoms: N_5  and  C_10 
REMARK    4  A    between atoms: N_8  and  C_18 
ROOT
HETATM    1  S   UNK N   1      36.288  13.895  12.804  0.00  0.00     0.264 S 
HETATM    2  O   UNK N   1      36.364  12.551  12.062  0.00  0.00    -0.200 OA
HETATM    3  O   UNK N   1      34.789  14.064  12.519  0.00  0.00    -0.200 OA
ENDROOT
BRANCH   1   4
HETATM    4  N   UNK N   1      36.684  15.195  11.687  0.00  0.00    -0.258 N 
HETATM    5  H   UNK N   1      37.601  15.548  11.742  0.00  0.00     0.181 HD
BRANCH   4   6
HETATM    6  C   UNK N   1      35.844  15.795  10.716  0.00  0.00     0.187 A 
HETATM    7  O   UNK N   1      35.233  16.940  10.930  0.00  0.00    -0.218 OA
HETATM    8  N   UNK N   1      34.539  17.305   9.891  0.00  0.00    -0.263 N 
HETATM    9  C   UNK N   1      34.700  16.357   8.949  0.00  0.00     0.039 A 
ATOM     10  HN  UNK N   1      33.977  18.152   9.807  1.00  0.00     0.194 HD
HETATM   11  C   UNK N   1      35.526  15.367   9.441  0.00  0.00     0.016 A 
HETATM   12  C   UNK N   1      34.076  16.416   7.599  0.00  0.00     0.071 C 
HETATM   13  C   UNK N   1      35.962  14.139   8.724  0.00  0.00     0.055 C 
ENDBRANCH   4   6
ENDBRANCH   1   4
BRANCH   1  14
HETATM   14  C   UNK N   1      36.031  13.845  14.588  0.00  0.00     0.080 A 
HETATM   15  C   UNK N   1      34.990  13.057  15.102  0.00  0.00     0.027 A 
HETATM   16  C   UNK N   1      34.746  13.015  16.476  0.00  0.00     0.030 A 
HETATM   17  C   UNK N   1      35.546  13.756  17.347  0.00  0.00     0.025 A 
HETATM   18  C   UNK N   1      36.595  14.535  16.843  0.00  0.00     0.030 A 
HETATM   19  C   UNK N   1      36.836  14.581  15.463  0.00  0.00     0.027 A 
BRANCH  17  20
HETATM   20  N   UNK N   1      35.293  13.720  18.732  0.00  0.00    -0.399 N 
HETATM   21  H   UNK N   1      34.379  13.830  19.081  0.00  0.00     0.156 HD
HETATM   22  H   UNK N   1      36.040  13.584  19.359  0.00  0.00     0.156 HD
ENDBRANCH  17  20
ENDBRANCH   1  14
TORSDOF 4
ENDMDL
MODEL 5
REMARK VINA RESULT:      -6.1      5.477      9.070
REMARK  4 active torsions:
REMARK  status: ('A' for Active; 'I' for Inactive)
REMARK    1  A    between atoms: S_1  and  N_5 
REMARK    2  A    between atoms: S_1  and  C_9 
REMARK    3  A    between atoms: N_5  and  C_10 
REMARK    4  A    between atoms: N_8  and  C_18 
ROOT
HETATM    1  S   UNK N   1      36.047  12.567  14.444  0.00  0.00     0.264 S 
HETATM    2  O   UNK N   1      35.730  11.266  13.691  0.00  0.00    -0.200 OA
HETATM    3  O   UNK N   1      34.691  13.197  14.096  0.00  0.00    -0.200 OA
ENDROOT
BRANCH   1   4
HETATM    4  N   UNK N   1      36.879  13.674  13.358  0.00  0.00    -0.258 N 
HETATM    5  H   UNK N   1      37.824  13.853  13.566  0.00  0.00     0.181 HD
BRANCH   4   6
HETATM    6  C   UNK N   1      36.356  14.337  12.220  0.00  0.00     0.187 A 
HETATM    7  O   UNK N   1      35.964  15.592  12.261  0.00  0.00    -0.218 OA
HETATM    8  N   UNK N   1      35.544  15.992  11.096  0.00  0.00    -0.263 N 
HETATM    9  C   UNK N   1      35.665  14.953  10.248  0.00  0.00     0.039 A 
ATOM     10  HN  UNK N   1      35.189  16.920  10.867  1.00  0.00     0.194 HD
HETATM   11  C   UNK N   1      36.177  13.870  10.933  0.00  0.00     0.016 A 
HETATM   12  C   UNK N   1      35.304  15.013   8.806  0.00  0.00     0.071 C 
HETATM   13  C   UNK N   1      36.469  12.523  10.371  0.00  0.00     0.055 C 
ENDBRANCH   4   6
ENDBRANCH   1   4
BRANCH   1  14
HETATM   14  C   UNK N   1      35.709  12.607  16.214  0.00  0.00     0.080 A 
HETATM   15  C   UNK N   1      35.523  13.848  16.842  0.00  0.00     0.027 A 
HETATM   16  C   UNK N   1      35.285  13.918  18.215  0.00  0.00     0.030 A 
HETATM   17  C   UNK N   1      35.224  12.746  18.971  0.00  0.00     0.025 A 
HETATM   18  C   UNK N   1      35.396  11.503  18.350  0.00  0.00     0.030 A 
HETATM   19  C   UNK N   1      35.640  11.434  16.971  0.00  0.00     0.027 A 
BRANCH  17  20
HETATM   20  N   UNK N   1      34.994  12.819  20.359  0.00  0.00    -0.399 N 
HETATM   21  H   UNK N   1      34.617  13.631  20.766  0.00  0.00     0.156 HD
HETATM   22  H   UNK N   1      35.213  12.046  20.928  0.00  0.00     0.156 HD
ENDBRANCH  17  20
ENDBRANCH   1  14
TORSDOF 4
ENDMDL
MODEL 6
REMARK VINA RESULT:      -6.1      3.808      7.589
REMARK  4 active torsions:
REMARK  status: ('A' for Active; 'I' for Inactive)
REMARK    1  A    between atoms: S_1  and  N_5 
REMARK    2  A    between atoms: S_1  and  C_9 
REMARK    3  A    between atoms: N_5  and  C_10 
REMARK    4  A    between atoms: N_8  and  C_18 
ROOT
HETATM    1  S   UNK N   1      28.744  18.001   8.690  0.00  0.00     0.264 S 
HETATM    2  O   UNK N   1      28.159  17.016   9.715  0.00  0.00    -0.200 OA
HETATM    3  O   UNK N   1      29.343  18.906   9.776  0.00  0.00    -0.200 OA
ENDROOT
BRANCH   1   4
HETATM    4  N   UNK N   1      27.530  19.214   8.299  0.00  0.00    -0.258 N 
HETATM    5  H   UNK N   1      26.942  19.490   9.039  0.00  0.00     0.181 HD
BRANCH   4   6
HETATM    6  C   UNK N   1      27.297  19.842   7.051  0.00  0.00     0.187 A 
HETATM    7  O   UNK N   1      27.245  21.151   6.925  0.00  0.00    -0.218 OA
HETATM    8  N   UNK N   1      27.044  21.496   5.686  0.00  0.00    -0.263 N 
HETATM    9  C   UNK N   1      26.960  20.363   4.963  0.00  0.00     0.039 A 
ATOM     10  HN  UNK N   1      26.964  22.448   5.329  1.00  0.00     0.194 HD
HETATM   11  C   UNK N   1      27.111  19.280   5.803  0.00  0.00     0.016 A 
HETATM   12  C   UNK N   1      26.750  20.335   3.489  0.00  0.00     0.071 C 
HETATM   13  C   UNK N   1      27.087  17.845   5.411  0.00  0.00     0.055 C 
ENDBRANCH   4   6
ENDBRANCH   1   4
BRANCH   1  14
HETATM   14  C   UNK N   1      30.362  17.616   7.996  0.00  0.00     0.080 A 
HETATM   15  C   UNK N   1      30.431  16.881   6.802  0.00  0.00     0.027 A 
HETATM   16  C   UNK N   1      31.666  16.542   6.249  0.00  0.00     0.030 A 
HETATM   17  C   UNK N   1      32.844  16.942   6.883  0.00  0.00     0.025 A 
HETATM   18  C   UNK N   1      32.784  17.686   8.067  0.00  0.00     0.030 A 
HETATM   19  C   UNK N   1      31.542  18.021   8.625  0.00  0.00     0.027 A 
BRANCH  17  20
HETATM   20  N   UNK N   1      34.092  16.592   6.329  0.00  0.00    -0.399 N 
HETATM   21  H   UNK N   1      34.750  16.081   6.852  0.00  0.00     0.156 HD
HETATM   22  H   UNK N   1      34.307  16.862   5.407  0.00  0.00     0.156 HD
ENDBRANCH  17  20
ENDBRANCH   1  14
TORSDOF 4
ENDMDL
MODEL 7
REMARK VINA RESULT:      -6.0     15.264     16.969
REMARK  4 active torsions:
REMARK  status: ('A' for Active; 'I' for Inactive)
REMARK    1  A    between atoms: S_1  and  N_5 
REMARK    2  A    between atoms: S_1  and  C_9 
REMARK    3  A    between atoms: N_5  and  C_10 
REMARK    4  A    between atoms: N_8  and  C_18 
ROOT
HETATM    1  S   UNK N   1      26.178  23.486  -6.328  0.00  0.00     0.264 S 
HETATM    2  O   UNK N   1      24.946  22.570  -6.399  0.00  0.00    -0.200 OA
HETATM    3  O   UNK N   1      25.861  24.157  -7.671  0.00  0.00    -0.200 OA
ENDROOT
BRANCH   1   4
HETATM    4  N   UNK N   1      27.559  22.652  -7.030  0.00  0.00    -0.258 N 
HETATM    5  H   UNK N   1      27.515  22.485  -7.999  0.00  0.00     0.181 HD
BRANCH   4   6
HETATM    6  C   UNK N   1      28.726  22.190  -6.372  0.00  0.00     0.187 A 
HETATM    7  O   UNK N   1      29.268  22.845  -5.368  0.00  0.00    -0.218 OA
HETATM    8  N   UNK N   1      30.315  22.221  -4.910  0.00  0.00    -0.263 N 
HETATM    9  C   UNK N   1      30.468  21.103  -5.646  0.00  0.00     0.039 A 
ATOM     10  HN  UNK N   1      30.909  22.522  -4.138  1.00  0.00     0.194 HD
HETATM   11  C   UNK N   1      29.471  21.050  -6.598  0.00  0.00     0.016 A 
HETATM   12  C   UNK N   1      31.549  20.105  -5.421  0.00  0.00     0.071 C 
HETATM   13  C   UNK N   1      29.272  19.981  -7.613  0.00  0.00     0.055 C 
ENDBRANCH   4   6
ENDBRANCH   1   4
BRANCH   1  14
HETATM   14  C   UNK N   1      26.012  25.032  -5.417  0.00  0.00     0.080 A 
HETATM   15  C   UNK N   1      25.338  26.106  -6.018  0.00  0.00     0.027 A 
HETATM   16  C   UNK N   1      25.212  27.326  -5.353  0.00  0.00     0.030 A 
HETATM   17  C   UNK N   1      25.754  27.480  -4.076  0.00  0.00     0.025 A 
HETATM   18  C   UNK N   1      26.417  26.410  -3.463  0.00  0.00     0.030 A 
HETATM   19  C   UNK N   1      26.547  25.186  -4.135  0.00  0.00     0.027 A 
BRANCH  17  20
HETATM   20  N   UNK N   1      25.635  28.715  -3.409  0.00  0.00    -0.399 N 
HETATM   21  H   UNK N   1      25.175  28.778  -2.542  0.00  0.00     0.156 HD
HETATM   22  H   UNK N   1      26.019  29.526  -3.816  0.00  0.00     0.156 HD
ENDBRANCH  17  20
ENDBRANCH   1  14
TORSDOF 4
ENDMDL
MODEL 8
REMARK VINA RESULT:      -6.0      2.585      6.771
REMARK  4 active torsions:
REMARK  status: ('A' for Active; 'I' for Inactive)
REMARK    1  A    between atoms: S_1  and  N_5 
REMARK    2  A    between atoms: S_1  and  C_9 
REMARK    3  A    between atoms: N_5  and  C_10 
REMARK    4  A    between atoms: N_8  and  C_18 
ROOT
HETATM    1  S   UNK N   1      30.945  16.804   6.260  0.00  0.00     0.264 S 
HETATM    2  O   UNK N   1      31.305  16.758   4.767  0.00  0.00    -0.200 OA
HETATM    3  O   UNK N   1      30.853  15.275   6.372  0.00  0.00    -0.200 OA
ENDROOT
BRANCH   1   4
HETATM    4  N   UNK N   1      29.200  16.955   6.428  0.00  0.00    -0.258 N 
HETATM    5  H   UNK N   1      28.675  16.145   6.234  0.00  0.00     0.181 HD
BRANCH   4   6
HETATM    6  C   UNK N   1      28.457  18.100   6.810  0.00  0.00     0.187 A 
HETATM    7  O   UNK N   1      28.091  18.314   8.055  0.00  0.00    -0.218 OA
HETATM    8  N   UNK N   1      27.441  19.437   8.168  0.00  0.00    -0.263 N 
HETATM    9  C   UNK N   1      27.376  19.987   6.940  0.00  0.00     0.039 A 
ATOM     10  HN  UNK N   1      27.053  19.827   9.026  1.00  0.00     0.194 HD
HETATM   11  C   UNK N   1      28.011  19.157   6.040  0.00  0.00     0.016 A 
HETATM   12  C   UNK N   1      26.724  21.294   6.652  0.00  0.00     0.071 C 
HETATM   13  C   UNK N   1      28.170  19.391   4.579  0.00  0.00     0.055 C 
ENDBRANCH   4   6
ENDBRANCH   1   4
BRANCH   1  14
HETATM   14  C   UNK N   1      32.303  16.895   7.441  0.00  0.00     0.080 A 
HETATM   15  C   UNK N   1      32.428  15.890   8.411  0.00  0.00     0.027 A 
HETATM   16  C   UNK N   1      33.453  15.942   9.357  0.00  0.00     0.030 A 
HETATM   17  C   UNK N   1      34.366  16.997   9.335  0.00  0.00     0.025 A 
HETATM   18  C   UNK N   1      34.256  17.998   8.363  0.00  0.00     0.030 A 
HETATM   19  C   UNK N   1      33.223  17.947   7.416  0.00  0.00     0.027 A 
BRANCH  17  20
HETATM   20  N   UNK N   1      35.395  17.054  10.297  0.00  0.00    -0.399 N 
HETATM   21  H   UNK N   1      35.311  16.578  11.154  0.00  0.00     0.156 HD
HETATM   22  H   UNK N   1      36.208  17.577  10.108  0.00  0.00     0.156 HD
ENDBRANCH  17  20
ENDBRANCH   1  14
TORSDOF 4
ENDMDL
MODEL 9
REMARK VINA RESULT:      -5.9     13.645     16.386
REMARK  4 active torsions:
REMARK  status: ('A' for Active; 'I' for Inactive)
REMARK    1  A    between atoms: S_1  and  N_5 
REMARK    2  A    between atoms: S_1  and  C_9 
REMARK    3  A    between atoms: N_5  and  C_10 
REMARK    4  A    between atoms: N_8  and  C_18 
ROOT
HETATM    1  S   UNK N   1      29.300  23.059  -2.786  0.00  0.00     0.264 S 
HETATM    2  O   UNK N   1      29.998  23.106  -1.418  0.00  0.00    -0.200 OA
HETATM    3  O   UNK N   1      29.996  24.335  -3.280  0.00  0.00    -0.200 OA
ENDROOT
BRANCH   1   4
HETATM    4  N   UNK N   1      27.759  23.901  -2.675  0.00  0.00    -0.258 N 
HETATM    5  H   UNK N   1      27.396  24.020  -1.768  0.00  0.00     0.181 HD
BRANCH   4   6
HETATM    6  C   UNK N   1      26.976  24.430  -3.732  0.00  0.00     0.187 A 
HETATM    7  O   UNK N   1      26.658  23.717  -4.791  0.00  0.00    -0.218 OA
HETATM    8  N   UNK N   1      25.917  24.403  -5.614  0.00  0.00    -0.263 N 
HETATM    9  C   UNK N   1      25.739  25.622  -5.071  0.00  0.00     0.039 A 
ATOM     10  HN  UNK N   1      25.542  24.076  -6.504  1.00  0.00     0.194 HD
HETATM   11  C   UNK N   1      26.408  25.682  -3.866  0.00  0.00     0.016 A 
HETATM   12  C   UNK N   1      24.929  26.699  -5.703  0.00  0.00     0.071 C 
HETATM   13  C   UNK N   1      26.467  26.846  -2.942  0.00  0.00     0.055 C 
ENDBRANCH   4   6
ENDBRANCH   1   4
BRANCH   1  14
HETATM   14  C   UNK N   1      30.054  22.045  -4.070  0.00  0.00     0.080 A 
HETATM   15  C   UNK N   1      29.746  22.310  -5.413  0.00  0.00     0.027 A 
HETATM   16  C   UNK N   1      30.292  21.530  -6.433  0.00  0.00     0.030 A 
HETATM   17  C   UNK N   1      31.157  20.481  -6.118  0.00  0.00     0.025 A 
HETATM   18  C   UNK N   1      31.480  20.217  -4.781  0.00  0.00     0.030 A 
HETATM   19  C   UNK N   1      30.927  20.999  -3.757  0.00  0.00     0.027 A 
BRANCH  17  20
HETATM   20  N   UNK N   1      31.700  19.687  -7.147  0.00  0.00    -0.399 N 
HETATM   21  H   UNK N   1      32.659  19.466  -7.162  0.00  0.00     0.156 HD
HETATM   22  H   UNK N   1      31.112  19.348  -7.861  0.00  0.00     0.156 HD
ENDBRANCH  17  20
ENDBRANCH   1  14
TORSDOF 4
ENDMDL
