REMARK  4 active torsions:
REMARK  status: ('A' for Active; 'I' for Inactive)
REMARK    1  A    between atoms: S_1  and  N_5 
REMARK    2  A    between atoms: S_1  and  C_9 
REMARK    3  A    between atoms: N_5  and  C_10 
REMARK    4  A    between atoms: N_8  and  C_18 
ROOT
HETATM    1  S   UNK N   1       1.475   0.966  -0.247  0.00  0.00     0.264 S 
HETATM    2  O   UNK N   1       0.443   1.277  -1.342  0.00  0.00    -0.200 OA
HETATM    3  O   UNK N   1       0.411   0.910   0.858  0.00  0.00    -0.200 OA
ENDROOT
BRANCH   1   4
HETATM    4  N   UNK N   1       2.110   2.477   0.393  0.00  0.00    -0.258 N 
HETATM    5  H   UNK N   1       1.511   2.977   0.993  0.00  0.00     0.181 HD
BRANCH   4   6
HETATM    6  C   UNK N   1       3.378   3.062   0.151  0.00  0.00     0.187 A 
HETATM    7  O   UNK N   1       3.712   4.236   0.641  0.00  0.00    -0.218 OA
HETATM    8  N   UNK N   1       4.929   4.556   0.307  0.00  0.00    -0.263 N 
HETATM    9  C   UNK N   1       5.419   3.546  -0.437  0.00  0.00     0.039 A 
ATOM     10  HN  UNK N   1       5.420   5.413   0.561  1.00  0.00     0.194 HD
HETATM   11  C   UNK N   1       4.452   2.570  -0.565  0.00  0.00     0.016 A 
HETATM   12  C   UNK N   1       6.797   3.524  -0.999  0.00  0.00     0.071 C 
HETATM   13  C   UNK N   1       4.582   1.286  -1.305  0.00  0.00     0.055 C 
ENDBRANCH   4   6
ENDBRANCH   1   4
BRANCH   1  14
HETATM   14  C   UNK N   1       1.939  -0.759  -0.008  0.00  0.00     0.080 A 
HETATM   15  C   UNK N   1       0.930  -1.733   0.042  0.00  0.00     0.027 A 
HETATM   16  C   UNK N   1       1.250  -3.075   0.251  0.00  0.00     0.030 A 
HETATM   17  C   UNK N   1       2.584  -3.455   0.405  0.00  0.00     0.025 A 
HETATM   18  C   UNK N   1       3.598  -2.492   0.344  0.00  0.00     0.030 A 
HETATM   19  C   UNK N   1       3.275  -1.143   0.139  0.00  0.00     0.027 A 
BRANCH  17  20
HETATM   20  N   UNK N   1       2.906  -4.809   0.626  0.00  0.00    -0.399 N 
HETATM   21  H   UNK N   1       2.200  -5.477   0.780  0.00  0.00     0.156 HD
HETATM   22  H   UNK N   1       3.850  -5.090   0.626  0.00  0.00     0.156 HD
ENDBRANCH  17  20
ENDBRANCH   1  14
TORSDOF 4
