MODEL 1
REMARK VINA RESULT:      -5.9      0.000      0.000
REMARK  10 active torsions:
REMARK  status: ('A' for Active; 'I' for Inactive)
REMARK    1  A    between atoms: O_1  and  C_8 
REMARK    2  A    between atoms: O_1  and  C_11 
REMARK    3  A    between atoms: O_2  and  C_5 
REMARK    4  A    between atoms: O_3  and  C_18 
REMARK    5  A    between atoms: N_4  and  C_6 
REMARK    6  A    between atoms: N_4  and  C_7 
REMARK    7  A    between atoms: C_5  and  C_6 
REMARK    8  A    between atoms: C_5  and  C_8 
REMARK    9  A    between atoms: C_12  and  C_13 
REMARK   10  A    between atoms: C_13  and  C_18 
ROOT
HETATM    1  O   UNK N   1      35.549  13.767  11.943  0.00  0.00    -0.349 OA
ENDROOT
BRANCH   1   2
HETATM    2  C   UNK N   1      34.949  14.916  11.475  0.00  0.00     0.209 C 
BRANCH   2   3
HETATM    3  C   UNK N   1      35.807  15.597  10.427  0.00  0.00     0.159 C 
BRANCH   3   4
HETATM    4  O   UNK N   1      37.039  15.947  10.985  0.00  0.00    -0.392 OA
HETATM    5  H   UNK N   1      37.075  16.552  11.743  0.00  0.00     0.210 HD
ENDBRANCH   3   4
BRANCH   3   6
HETATM    6  C   UNK N   1      35.080  16.850   9.976  0.00  0.00     0.147 C 
BRANCH   6   7
HETATM    7  N   UNK N   1      33.707  16.540   9.608  0.00  0.00    -0.415 N 
HETATM    8  H   UNK N   1      33.057  15.954  10.132  0.00  0.00     0.153 HD
BRANCH   7   9
HETATM    9  C   UNK N   1      33.433  17.223   8.352  0.00  0.00     0.068 C 
HETATM   10  C   UNK N   1      34.424  18.357   8.147  0.00  0.00     0.031 C 
HETATM   11  C   UNK N   1      32.031  17.794   8.383  0.00  0.00     0.031 C 
ENDBRANCH   7   9
ENDBRANCH   6   7
ENDBRANCH   3   6
ENDBRANCH   2   3
ENDBRANCH   1   2
BRANCH   1  12
HETATM   12  C   UNK N   1      35.527  13.407  13.249  0.00  0.00     0.068 A 
HETATM   13  C   UNK N   1      36.367  14.069  14.151  0.00  0.00     0.037 A 
HETATM   14  C   UNK N   1      36.323  13.759  15.514  0.00  0.00     0.010 A 
HETATM   15  C   UNK N   1      35.443  12.774  15.989  0.00  0.00    -0.056 A 
HETATM   16  C   UNK N   1      34.620  12.095  15.085  0.00  0.00     0.010 A 
HETATM   17  C   UNK N   1      34.657  12.409  13.723  0.00  0.00     0.037 A 
BRANCH  15  18
HETATM   18  C   UNK N   1      35.334  12.439  17.450  0.00  0.00     0.064 C 
BRANCH  18  19
HETATM   19  C   UNK N   1      35.194  13.656  18.356  0.00  0.00     0.171 C 
BRANCH  19  20
HETATM   20  O   UNK N   1      35.236  13.254  19.690  0.00  0.00    -0.396 OA
HETATM   21  C   UNK N   1      35.408  11.871  19.636  0.00  0.00     0.201 C 
ENDBRANCH  19  20
ENDBRANCH  18  19
ENDBRANCH  15  18
ENDBRANCH   1  12
TORSDOF 10
ENDMDL
MODEL 2
REMARK VINA RESULT:      -5.5      3.638      5.380
REMARK  10 active torsions:
REMARK  status: ('A' for Active; 'I' for Inactive)
REMARK    1  A    between atoms: O_1  and  C_8 
REMARK    2  A    between atoms: O_1  and  C_11 
REMARK    3  A    between atoms: O_2  and  C_5 
REMARK    4  A    between atoms: O_3  and  C_18 
REMARK    5  A    between atoms: N_4  and  C_6 
REMARK    6  A    between atoms: N_4  and  C_7 
REMARK    7  A    between atoms: C_5  and  C_6 
REMARK    8  A    between atoms: C_5  and  C_8 
REMARK    9  A    between atoms: C_12  and  C_13 
REMARK   10  A    between atoms: C_13  and  C_18 
ROOT
HETATM    1  O   UNK N   1      34.876  13.245  15.016  0.00  0.00    -0.349 OA
ENDROOT
BRANCH   1   2
HETATM    2  C   UNK N   1      35.854  13.947  14.346  0.00  0.00     0.209 C 
BRANCH   2   3
HETATM    3  C   UNK N   1      35.709  13.794  12.844  0.00  0.00     0.159 C 
BRANCH   3   4
HETATM    4  O   UNK N   1      34.429  13.323  12.543  0.00  0.00    -0.392 OA
HETATM    5  H   UNK N   1      33.668  13.613  13.071  0.00  0.00     0.210 HD
ENDBRANCH   3   4
BRANCH   3   6
HETATM    6  C   UNK N   1      36.744  12.787  12.380  0.00  0.00     0.147 C 
BRANCH   6   7
HETATM    7  N   UNK N   1      37.523  12.296  13.506  0.00  0.00    -0.415 N 
HETATM    8  H   UNK N   1      37.864  12.849  14.293  0.00  0.00     0.153 HD
BRANCH   7   9
HETATM    9  C   UNK N   1      37.725  10.870  13.301  0.00  0.00     0.068 C 
HETATM   10  C   UNK N   1      36.394  10.185  13.039  0.00  0.00     0.031 C 
HETATM   11  C   UNK N   1      38.354  10.265  14.538  0.00  0.00     0.031 C 
ENDBRANCH   7   9
ENDBRANCH   6   7
ENDBRANCH   3   6
ENDBRANCH   2   3
ENDBRANCH   1   2
BRANCH   1  12
HETATM   12  C   UNK N   1      35.075  12.697  16.240  0.00  0.00     0.068 A 
HETATM   13  C   UNK N   1      35.045  13.524  17.368  0.00  0.00     0.037 A 
HETATM   14  C   UNK N   1      35.187  12.979  18.647  0.00  0.00     0.010 A 
HETATM   15  C   UNK N   1      35.371  11.597  18.813  0.00  0.00    -0.056 A 
HETATM   16  C   UNK N   1      35.425  10.772  17.685  0.00  0.00     0.010 A 
HETATM   17  C   UNK N   1      35.275  11.315  16.406  0.00  0.00     0.037 A 
BRANCH  15  18
HETATM   18  C   UNK N   1      35.487  10.965  20.171  0.00  0.00     0.064 C 
BRANCH  18  19
HETATM   19  C   UNK N   1      34.309  10.072  20.543  0.00  0.00     0.171 C 
BRANCH  19  20
HETATM   20  O   UNK N   1      33.619  10.631  21.617  0.00  0.00    -0.396 OA
HETATM   21  C   UNK N   1      32.458   9.867  21.726  0.00  0.00     0.201 C 
ENDBRANCH  19  20
ENDBRANCH  18  19
ENDBRANCH  15  18
ENDBRANCH   1  12
TORSDOF 10
ENDMDL
MODEL 3
REMARK VINA RESULT:      -5.5      5.411      9.367
REMARK  10 active torsions:
REMARK  status: ('A' for Active; 'I' for Inactive)
REMARK    1  A    between atoms: O_1  and  C_8 
REMARK    2  A    between atoms: O_1  and  C_11 
REMARK    3  A    between atoms: O_2  and  C_5 
REMARK    4  A    between atoms: O_3  and  C_18 
REMARK    5  A    between atoms: N_4  and  C_6 
REMARK    6  A    between atoms: N_4  and  C_7 
REMARK    7  A    between atoms: C_5  and  C_6 
REMARK    8  A    between atoms: C_5  and  C_8 
REMARK    9  A    between atoms: C_12  and  C_13 
REMARK   10  A    between atoms: C_13  and  C_18 
ROOT
HETATM    1  O   UNK N   1      29.516  16.838   5.581  0.00  0.00    -0.349 OA
ENDROOT
BRANCH   1   2
HETATM    2  C   UNK N   1      28.553  16.044   6.163  0.00  0.00     0.209 C 
BRANCH   2   3
HETATM    3  C   UNK N   1      27.384  16.873   6.660  0.00  0.00     0.159 C 
BRANCH   3   4
HETATM    4  O   UNK N   1      26.372  16.027   7.120  0.00  0.00    -0.392 OA
HETATM    5  H   UNK N   1      26.578  15.110   7.362  0.00  0.00     0.210 HD
ENDBRANCH   3   4
BRANCH   3   6
HETATM    6  C   UNK N   1      26.869  17.692   5.492  0.00  0.00     0.147 C 
BRANCH   6   7
HETATM    7  N   UNK N   1      26.342  18.968   5.953  0.00  0.00    -0.415 N 
HETATM    8  H   UNK N   1      25.382  19.157   6.239  0.00  0.00     0.153 HD
BRANCH   7   9
HETATM    9  C   UNK N   1      27.441  19.921   5.929  0.00  0.00     0.068 C 
HETATM   10  C   UNK N   1      26.930  21.316   6.249  0.00  0.00     0.031 C 
HETATM   11  C   UNK N   1      28.071  19.932   4.553  0.00  0.00     0.031 C 
ENDBRANCH   7   9
ENDBRANCH   6   7
ENDBRANCH   3   6
ENDBRANCH   2   3
ENDBRANCH   1   2
BRANCH   1  12
HETATM   12  C   UNK N   1      30.671  17.170   6.208  0.00  0.00     0.068 A 
HETATM   13  C   UNK N   1      30.642  17.461   7.575  0.00  0.00     0.037 A 
HETATM   14  C   UNK N   1      31.826  17.750   8.261  0.00  0.00     0.010 A 
HETATM   15  C   UNK N   1      33.055  17.760   7.581  0.00  0.00    -0.056 A 
HETATM   16  C   UNK N   1      33.082  17.493   6.209  0.00  0.00     0.010 A 
HETATM   17  C   UNK N   1      31.899  17.196   5.524  0.00  0.00     0.037 A 
BRANCH  15  18
HETATM   18  C   UNK N   1      34.355  18.025   8.287  0.00  0.00     0.064 C 
BRANCH  18  19
HETATM   19  C   UNK N   1      34.815  16.884   9.186  0.00  0.00     0.171 C 
BRANCH  19  20
HETATM   20  O   UNK N   1      35.517  17.400  10.275  0.00  0.00    -0.396 OA
HETATM   21  C   UNK N   1      35.525  16.367  11.211  0.00  0.00     0.201 C 
ENDBRANCH  19  20
ENDBRANCH  18  19
ENDBRANCH  15  18
ENDBRANCH   1  12
TORSDOF 10
ENDMDL
MODEL 4
REMARK VINA RESULT:      -5.4      7.141     13.030
REMARK  10 active torsions:
REMARK  status: ('A' for Active; 'I' for Inactive)
REMARK    1  A    between atoms: O_1  and  C_8 
REMARK    2  A    between atoms: O_1  and  C_11 
REMARK    3  A    between atoms: O_2  and  C_5 
REMARK    4  A    between atoms: O_3  and  C_18 
REMARK    5  A    between atoms: N_4  and  C_6 
REMARK    6  A    between atoms: N_4  and  C_7 
REMARK    7  A    between atoms: C_5  and  C_6 
REMARK    8  A    between atoms: C_5  and  C_8 
REMARK    9  A    between atoms: C_12  and  C_13 
REMARK   10  A    between atoms: C_13  and  C_18 
ROOT
HETATM    1  O   UNK N   1      28.680  18.915   7.799  0.00  0.00    -0.349 OA
ENDROOT
BRANCH   1   2
HETATM    2  C   UNK N   1      29.400  17.741   7.842  0.00  0.00     0.209 C 
BRANCH   2   3
HETATM    3  C   UNK N   1      30.322  17.706   9.045  0.00  0.00     0.159 C 
BRANCH   3   4
HETATM    4  O   UNK N   1      30.020  18.771   9.897  0.00  0.00    -0.392 OA
HETATM    5  H   UNK N   1      29.107  19.094   9.967  0.00  0.00     0.210 HD
ENDBRANCH   3   4
BRANCH   3   6
HETATM    6  C   UNK N   1      31.746  17.846   8.542  0.00  0.00     0.147 C 
BRANCH   6   7
HETATM    7  N   UNK N   1      32.598  16.819   9.121  0.00  0.00    -0.415 N 
HETATM    8  H   UNK N   1      32.287  15.948   9.552  0.00  0.00     0.153 HD
BRANCH   7   9
HETATM    9  C   UNK N   1      33.974  17.266   8.971  0.00  0.00     0.068 C 
HETATM   10  C   UNK N   1      34.186  17.852   7.585  0.00  0.00     0.031 C 
HETATM   11  C   UNK N   1      34.910  16.090   9.156  0.00  0.00     0.031 C 
ENDBRANCH   7   9
ENDBRANCH   6   7
ENDBRANCH   3   6
ENDBRANCH   2   3
ENDBRANCH   1   2
BRANCH   1  12
HETATM   12  C   UNK N   1      27.903  19.261   6.743  0.00  0.00     0.068 A 
HETATM   13  C   UNK N   1      27.455  20.582   6.634  0.00  0.00     0.037 A 
HETATM   14  C   UNK N   1      26.701  20.981   5.525  0.00  0.00     0.010 A 
HETATM   15  C   UNK N   1      26.379  20.060   4.516  0.00  0.00    -0.056 A 
HETATM   16  C   UNK N   1      26.807  18.734   4.637  0.00  0.00     0.010 A 
HETATM   17  C   UNK N   1      27.567  18.335   5.741  0.00  0.00     0.037 A 
BRANCH  15  18
HETATM   18  C   UNK N   1      25.608  20.457   3.290  0.00  0.00     0.064 C 
BRANCH  18  19
HETATM   19  C   UNK N   1      24.152  20.007   3.300  0.00  0.00     0.171 C 
BRANCH  19  20
HETATM   20  O   UNK N   1      23.332  21.067   2.916  0.00  0.00    -0.396 OA
HETATM   21  C   UNK N   1      22.085  20.485   2.690  0.00  0.00     0.201 C 
ENDBRANCH  19  20
ENDBRANCH  18  19
ENDBRANCH  15  18
ENDBRANCH   1  12
TORSDOF 10
ENDMDL
MODEL 5
REMARK VINA RESULT:      -5.4      3.286      9.413
REMARK  10 active torsions:
REMARK  status: ('A' for Active; 'I' for Inactive)
REMARK    1  A    between atoms: O_1  and  C_8 
REMARK    2  A    between atoms: O_1  and  C_11 
REMARK    3  A    between atoms: O_2  and  C_5 
REMARK    4  A    between atoms: O_3  and  C_18 
REMARK    5  A    between atoms: N_4  and  C_6 
REMARK    6  A    between atoms: N_4  and  C_7 
REMARK    7  A    between atoms: C_5  and  C_6 
REMARK    8  A    between atoms: C_5  and  C_8 
REMARK    9  A    between atoms: C_12  and  C_13 
REMARK   10  A    between atoms: C_13  and  C_18 
ROOT
HETATM    1  O   UNK N   1      34.717  16.734  10.085  0.00  0.00    -0.349 OA
ENDROOT
BRANCH   1   2
HETATM    2  C   UNK N   1      34.689  15.618  10.893  0.00  0.00     0.209 C 
BRANCH   2   3
HETATM    3  C   UNK N   1      36.011  15.428  11.611  0.00  0.00     0.159 C 
BRANCH   3   4
HETATM    4  O   UNK N   1      37.021  16.103  10.921  0.00  0.00    -0.392 OA
HETATM    5  H   UNK N   1      37.438  15.693  10.147  0.00  0.00     0.210 HD
ENDBRANCH   3   4
BRANCH   3   6
HETATM    6  C   UNK N   1      36.316  13.941  11.632  0.00  0.00     0.147 C 
BRANCH   6   7
HETATM    7  N   UNK N   1      36.983  13.572  12.871  0.00  0.00    -0.415 N 
HETATM    8  H   UNK N   1      37.891  13.116  12.957  0.00  0.00     0.153 HD
BRANCH   7   9
HETATM    9  C   UNK N   1      36.111  13.974  13.965  0.00  0.00     0.068 C 
HETATM   10  C   UNK N   1      36.940  14.393  15.168  0.00  0.00     0.031 C 
HETATM   11  C   UNK N   1      35.226  12.811  14.360  0.00  0.00     0.031 C 
ENDBRANCH   7   9
ENDBRANCH   6   7
ENDBRANCH   3   6
ENDBRANCH   2   3
ENDBRANCH   1   2
BRANCH   1  12
HETATM   12  C   UNK N   1      33.962  16.848   8.965  0.00  0.00     0.068 A 
HETATM   13  C   UNK N   1      34.348  17.757   7.975  0.00  0.00     0.037 A 
HETATM   14  C   UNK N   1      33.623  17.853   6.783  0.00  0.00     0.010 A 
HETATM   15  C   UNK N   1      32.494  17.045   6.572  0.00  0.00    -0.056 A 
HETATM   16  C   UNK N   1      32.094  16.152   7.572  0.00  0.00     0.010 A 
HETATM   17  C   UNK N   1      32.823  16.050   8.760  0.00  0.00     0.037 A 
BRANCH  15  18
HETATM   18  C   UNK N   1      31.711  17.087   5.291  0.00  0.00     0.064 C 
BRANCH  18  19
HETATM   19  C   UNK N   1      32.511  17.580   4.091  0.00  0.00     0.171 C 
BRANCH  19  20
HETATM   20  O   UNK N   1      32.246  16.771   2.987  0.00  0.00    -0.396 OA
HETATM   21  C   UNK N   1      33.335  15.904   2.916  0.00  0.00     0.201 C 
ENDBRANCH  19  20
ENDBRANCH  18  19
ENDBRANCH  15  18
ENDBRANCH   1  12
TORSDOF 10
ENDMDL
MODEL 6
REMARK VINA RESULT:      -5.4      1.393      1.593
REMARK  10 active torsions:
REMARK  status: ('A' for Active; 'I' for Inactive)
REMARK    1  A    between atoms: O_1  and  C_8 
REMARK    2  A    between atoms: O_1  and  C_11 
REMARK    3  A    between atoms: O_2  and  C_5 
REMARK    4  A    between atoms: O_3  and  C_18 
REMARK    5  A    between atoms: N_4  and  C_6 
REMARK    6  A    between atoms: N_4  and  C_7 
REMARK    7  A    between atoms: C_5  and  C_6 
REMARK    8  A    between atoms: C_5  and  C_8 
REMARK    9  A    between atoms: C_12  and  C_13 
REMARK   10  A    between atoms: C_13  and  C_18 
ROOT
HETATM    1  O   UNK N   1      34.974  13.646  12.761  0.00  0.00    -0.349 OA
ENDROOT
BRANCH   1   2
HETATM    2  C   UNK N   1      35.841  14.703  12.587  0.00  0.00     0.209 C 
BRANCH   2   3
HETATM    3  C   UNK N   1      35.954  15.088  11.125  0.00  0.00     0.159 C 
BRANCH   3   4
HETATM    4  O   UNK N   1      36.921  16.084  10.976  0.00  0.00    -0.392 OA
HETATM    5  H   UNK N   1      37.567  16.031  10.253  0.00  0.00     0.210 HD
ENDBRANCH   3   4
BRANCH   3   6
HETATM    6  C   UNK N   1      34.604  15.619  10.681  0.00  0.00     0.147 C 
BRANCH   6   7
HETATM    7  N   UNK N   1      34.719  16.995  10.225  0.00  0.00    -0.415 N 
HETATM    8  H   UNK N   1      35.030  17.792  10.781  0.00  0.00     0.153 HD
BRANCH   7   9
HETATM    9  C   UNK N   1      34.309  17.023   8.830  0.00  0.00     0.068 C 
HETATM   10  C   UNK N   1      34.586  18.391   8.229  0.00  0.00     0.031 C 
HETATM   11  C   UNK N   1      32.825  16.736   8.734  0.00  0.00     0.031 C 
ENDBRANCH   7   9
ENDBRANCH   6   7
ENDBRANCH   3   6
ENDBRANCH   2   3
ENDBRANCH   1   2
BRANCH   1  12
HETATM   12  C   UNK N   1      35.006  12.842  13.851  0.00  0.00     0.068 A 
HETATM   13  C   UNK N   1      35.676  13.279  14.998  0.00  0.00     0.037 A 
HETATM   14  C   UNK N   1      35.675  12.496  16.157  0.00  0.00     0.010 A 
HETATM   15  C   UNK N   1      35.010  11.260  16.178  0.00  0.00    -0.056 A 
HETATM   16  C   UNK N   1      34.360  10.812  15.024  0.00  0.00     0.010 A 
HETATM   17  C   UNK N   1      34.353  11.597  13.868  0.00  0.00     0.037 A 
BRANCH  15  18
HETATM   18  C   UNK N   1      34.949  10.408  17.414  0.00  0.00     0.064 C 
BRANCH  18  19
HETATM   19  C   UNK N   1      35.252  11.162  18.703  0.00  0.00     0.171 C 
BRANCH  19  20
HETATM   20  O   UNK N   1      34.890  10.380  19.799  0.00  0.00    -0.396 OA
HETATM   21  C   UNK N   1      34.371   9.212  19.242  0.00  0.00     0.201 C 
ENDBRANCH  19  20
ENDBRANCH  18  19
ENDBRANCH  15  18
ENDBRANCH   1  12
TORSDOF 10
ENDMDL
MODEL 7
REMARK VINA RESULT:      -5.4     13.517     16.979
REMARK  10 active torsions:
REMARK  status: ('A' for Active; 'I' for Inactive)
REMARK    1  A    between atoms: O_1  and  C_8 
REMARK    2  A    between atoms: O_1  and  C_11 
REMARK    3  A    between atoms: O_2  and  C_5 
REMARK    4  A    between atoms: O_3  and  C_18 
REMARK    5  A    between atoms: N_4  and  C_6 
REMARK    6  A    between atoms: N_4  and  C_7 
REMARK    7  A    between atoms: C_5  and  C_6 
REMARK    8  A    between atoms: C_5  and  C_8 
REMARK    9  A    between atoms: C_12  and  C_13 
REMARK   10  A    between atoms: C_13  and  C_18 
ROOT
HETATM    1  O   UNK N   1      21.322  18.926   3.876  0.00  0.00    -0.349 OA
ENDROOT
BRANCH   1   2
HETATM    2  C   UNK N   1      20.392  19.559   3.080  0.00  0.00     0.209 C 
BRANCH   2   3
HETATM    3  C   UNK N   1      19.640  18.564   2.217  0.00  0.00     0.159 C 
BRANCH   3   4
HETATM    4  O   UNK N   1      18.265  18.753   2.376  0.00  0.00    -0.392 OA
HETATM    5  H   UNK N   1      17.639  18.254   1.828  0.00  0.00     0.210 HD
ENDBRANCH   3   4
BRANCH   3   6
HETATM    6  C   UNK N   1      20.018  17.170   2.680  0.00  0.00     0.147 C 
BRANCH   6   7
HETATM    7  N   UNK N   1      19.208  16.771   3.821  0.00  0.00    -0.415 N 
HETATM    8  H   UNK N   1      18.337  17.205   4.125  0.00  0.00     0.153 HD
BRANCH   7   9
HETATM    9  C   UNK N   1      19.875  15.639   4.447  0.00  0.00     0.068 C 
HETATM   10  C   UNK N   1      20.051  15.893   5.935  0.00  0.00     0.031 C 
HETATM   11  C   UNK N   1      21.237  15.443   3.817  0.00  0.00     0.031 C 
ENDBRANCH   7   9
ENDBRANCH   6   7
ENDBRANCH   3   6
ENDBRANCH   2   3
ENDBRANCH   1   2
BRANCH   1  12
HETATM   12  C   UNK N   1      22.649  19.191   3.807  0.00  0.00     0.068 A 
HETATM   13  C   UNK N   1      23.092  20.236   2.990  0.00  0.00     0.037 A 
HETATM   14  C   UNK N   1      24.449  20.570   2.945  0.00  0.00     0.010 A 
HETATM   15  C   UNK N   1      25.382  19.855   3.713  0.00  0.00    -0.056 A 
HETATM   16  C   UNK N   1      24.943  18.796   4.512  0.00  0.00     0.010 A 
HETATM   17  C   UNK N   1      23.586  18.465   4.564  0.00  0.00     0.037 A 
BRANCH  15  18
HETATM   18  C   UNK N   1      26.843  20.208   3.726  0.00  0.00     0.064 C 
BRANCH  18  19
HETATM   19  C   UNK N   1      27.484  20.142   5.106  0.00  0.00     0.171 C 
BRANCH  19  20
HETATM   20  O   UNK N   1      27.478  21.409   5.686  0.00  0.00    -0.396 OA
HETATM   21  C   UNK N   1      26.591  21.302   6.757  0.00  0.00     0.201 C 
ENDBRANCH  19  20
ENDBRANCH  18  19
ENDBRANCH  15  18
ENDBRANCH   1  12
TORSDOF 10
ENDMDL
MODEL 8
REMARK VINA RESULT:      -5.3      5.507      9.588
REMARK  10 active torsions:
REMARK  status: ('A' for Active; 'I' for Inactive)
REMARK    1  A    between atoms: O_1  and  C_8 
REMARK    2  A    between atoms: O_1  and  C_11 
REMARK    3  A    between atoms: O_2  and  C_5 
REMARK    4  A    between atoms: O_3  and  C_18 
REMARK    5  A    between atoms: N_4  and  C_6 
REMARK    6  A    between atoms: N_4  and  C_7 
REMARK    7  A    between atoms: C_5  and  C_6 
REMARK    8  A    between atoms: C_5  and  C_8 
REMARK    9  A    between atoms: C_12  and  C_13 
REMARK   10  A    between atoms: C_13  and  C_18 
ROOT
HETATM    1  O   UNK N   1      30.210  16.881   4.745  0.00  0.00    -0.349 OA
ENDROOT
BRANCH   1   2
HETATM    2  C   UNK N   1      28.908  16.685   5.150  0.00  0.00     0.209 C 
BRANCH   2   3
HETATM    3  C   UNK N   1      27.978  16.539   3.961  0.00  0.00     0.159 C 
BRANCH   3   4
HETATM    4  O   UNK N   1      28.724  16.247   2.817  0.00  0.00    -0.392 OA
HETATM    5  H   UNK N   1      29.677  16.077   2.888  0.00  0.00     0.210 HD
ENDBRANCH   3   4
BRANCH   3   6
HETATM    6  C   UNK N   1      27.256  17.859   3.774  0.00  0.00     0.147 C 
BRANCH   6   7
HETATM    7  N   UNK N   1      28.159  18.975   4.009  0.00  0.00    -0.415 N 
HETATM    8  H   UNK N   1      29.175  18.927   4.074  0.00  0.00     0.153 HD
BRANCH   7   9
HETATM    9  C   UNK N   1      27.340  20.172   4.135  0.00  0.00     0.068 C 
HETATM   10  C   UNK N   1      27.479  20.757   5.530  0.00  0.00     0.031 C 
HETATM   11  C   UNK N   1      25.888  19.819   3.892  0.00  0.00     0.031 C 
ENDBRANCH   7   9
ENDBRANCH   6   7
ENDBRANCH   3   6
ENDBRANCH   2   3
ENDBRANCH   1   2
BRANCH   1  12
HETATM   12  C   UNK N   1      31.226  17.097   5.616  0.00  0.00     0.068 A 
HETATM   13  C   UNK N   1      32.529  17.218   5.124  0.00  0.00     0.037 A 
HETATM   14  C   UNK N   1      33.588  17.499   5.993  0.00  0.00     0.010 A 
HETATM   15  C   UNK N   1      33.356  17.654   7.369  0.00  0.00    -0.056 A 
HETATM   16  C   UNK N   1      32.056  17.509   7.865  0.00  0.00     0.010 A 
HETATM   17  C   UNK N   1      30.995  17.236   6.996  0.00  0.00     0.037 A 
BRANCH  15  18
HETATM   18  C   UNK N   1      34.458  17.997   8.331  0.00  0.00     0.064 C 
BRANCH  18  19
HETATM   19  C   UNK N   1      34.803  16.877   9.304  0.00  0.00     0.171 C 
BRANCH  19  20
HETATM   20  O   UNK N   1      35.537  17.393  10.371  0.00  0.00    -0.396 OA
HETATM   21  C   UNK N   1      35.544  16.372  11.320  0.00  0.00     0.201 C 
ENDBRANCH  19  20
ENDBRANCH  18  19
ENDBRANCH  15  18
ENDBRANCH   1  12
TORSDOF 10
ENDMDL
MODEL 9
REMARK VINA RESULT:      -5.3      8.125     10.976
REMARK  10 active torsions:
REMARK  status: ('A' for Active; 'I' for Inactive)
REMARK    1  A    between atoms: O_1  and  C_8 
REMARK    2  A    between atoms: O_1  and  C_11 
REMARK    3  A    between atoms: O_2  and  C_5 
REMARK    4  A    between atoms: O_3  and  C_18 
REMARK    5  A    between atoms: N_4  and  C_6 
REMARK    6  A    between atoms: N_4  and  C_7 
REMARK    7  A    between atoms: C_5  and  C_6 
REMARK    8  A    between atoms: C_5  and  C_8 
REMARK    9  A    between atoms: C_12  and  C_13 
REMARK   10  A    between atoms: C_13  and  C_18 
ROOT
HETATM    1  O   UNK N   1      26.890  16.985   6.396  0.00  0.00    -0.349 OA
ENDROOT
BRANCH   1   2
HETATM    2  C   UNK N   1      26.443  16.303   5.285  0.00  0.00     0.209 C 
BRANCH   2   3
HETATM    3  C   UNK N   1      25.312  17.048   4.602  0.00  0.00     0.159 C 
BRANCH   3   4
HETATM    4  O   UNK N   1      24.972  16.394   3.415  0.00  0.00    -0.392 OA
HETATM    5  H   UNK N   1      24.240  16.726   2.870  0.00  0.00     0.210 HD
ENDBRANCH   3   4
BRANCH   3   6
HETATM    6  C   UNK N   1      25.804  18.448   4.288  0.00  0.00     0.147 C 
BRANCH   6   7
HETATM    7  N   UNK N   1      25.608  19.328   5.429  0.00  0.00    -0.415 N 
HETATM    8  H   UNK N   1      24.930  19.202   6.181  0.00  0.00     0.153 HD
BRANCH   7   9
HETATM    9  C   UNK N   1      26.559  20.422   5.298  0.00  0.00     0.068 C 
HETATM   10  C   UNK N   1      27.778  19.964   4.516  0.00  0.00     0.031 C 
HETATM   11  C   UNK N   1      26.999  20.876   6.674  0.00  0.00     0.031 C 
ENDBRANCH   7   9
ENDBRANCH   6   7
ENDBRANCH   3   6
ENDBRANCH   2   3
ENDBRANCH   1   2
BRANCH   1  12
HETATM   12  C   UNK N   1      28.201  17.062   6.731  0.00  0.00     0.068 A 
HETATM   13  C   UNK N   1      29.157  16.522   5.865  0.00  0.00     0.037 A 
HETATM   14  C   UNK N   1      30.520  16.639   6.156  0.00  0.00     0.010 A 
HETATM   15  C   UNK N   1      30.942  17.291   7.326  0.00  0.00    -0.056 A 
HETATM   16  C   UNK N   1      29.986  17.809   8.205  0.00  0.00     0.010 A 
HETATM   17  C   UNK N   1      28.623  17.701   7.911  0.00  0.00     0.037 A 
BRANCH  15  18
HETATM   18  C   UNK N   1      32.396  17.474   7.657  0.00  0.00     0.064 C 
BRANCH  18  19
HETATM   19  C   UNK N   1      33.304  17.556   6.435  0.00  0.00     0.171 C 
BRANCH  19  20
HETATM   20  O   UNK N   1      34.575  17.975   6.825  0.00  0.00    -0.396 OA
HETATM   21  C   UNK N   1      34.431  18.341   8.162  0.00  0.00     0.201 C 
ENDBRANCH  19  20
ENDBRANCH  18  19
ENDBRANCH  15  18
ENDBRANCH   1  12
TORSDOF 10
ENDMDL
