REMARK  3 active torsions:
REMARK  status: ('A' for Active; 'I' for Inactive)
REMARK    1  A    between atoms: N_2  and  C_3 
REMARK    2  A    between atoms: N_2  and  C_4 
REMARK       I    between atoms: N_2  and  C_7 
REMARK    3  A    between atoms: C_7  and  C_13 
ROOT
HETATM    1  O   UNK N   1       5.338   0.276  -0.055  0.00  0.00    -0.268 OA
HETATM    2  N   UNK N   1       3.058   0.269  -0.013  0.00  0.00    -0.314 N 
HETATM    3  C   UNK N   1       4.297   0.918  -0.027  0.00  0.00     0.247 C 
ENDROOT
BRANCH   2   4
HETATM    4  C   UNK N   1       2.978  -1.198  -0.024  0.00  0.00     0.043 A 
HETATM    5  C   UNK N   1       1.737  -1.932  -0.016  0.00  0.00    -0.035 A 
HETATM    6  C   UNK N   1       1.750  -3.332  -0.026  0.00  0.00     0.009 A 
HETATM    7  C   UNK N   1       0.381  -1.310   0.000  0.00  0.00     0.050 C 
HETATM    8  C   UNK N   1       2.945  -4.043  -0.042  0.00  0.00     0.001 A 
HETATM    9  C   UNK N   1       4.152  -3.361  -0.050  0.00  0.00     0.002 A 
HETATM   10  C   UNK N   1       4.162  -1.970  -0.041  0.00  0.00     0.030 A 
ENDBRANCH   2   4
BRANCH   2  11
HETATM   11  C   UNK N   1       1.784   1.008   0.021  0.00  0.00     0.128 C 
HETATM   12  C   UNK N   1       1.747   2.530  -0.020  0.00  0.00     0.027 C 
ENDBRANCH   2  11
BRANCH   3  13
HETATM   13  C   UNK N   1       4.434   2.390  -0.003  0.00  0.00     0.070 C 
HETATM   14  C   UNK N   1       5.623   2.990  -0.008  0.00  0.00    -0.026 C 
HETATM   15  C   UNK N   1       5.700   4.475   0.015  0.00  0.00     0.036 C 
ENDBRANCH   3  13
TORSDOF 3
