MODEL 1
REMARK VINA RESULT:      -5.5      0.000      0.000
REMARK  3 active torsions:
REMARK  status: ('A' for Active; 'I' for Inactive)
REMARK    1  A    between atoms: N_2  and  C_3 
REMARK    2  A    between atoms: N_2  and  C_4 
REMARK       I    between atoms: N_2  and  C_7 
REMARK    3  A    between atoms: C_7  and  C_13 
ROOT
HETATM    1  O   UNK N   1      26.977  23.757  -2.634  0.00  0.00    -0.268 OA
HETATM    2  N   UNK N   1      28.219  25.149  -3.944  0.00  0.00    -0.314 N 
HETATM    3  C   UNK N   1      28.076  24.063  -3.075  0.00  0.00     0.247 C 
ENDROOT
BRANCH   2   4
HETATM    4  C   UNK N   1      27.054  25.951  -4.343  0.00  0.00     0.043 A 
HETATM    5  C   UNK N   1      26.168  25.595  -5.423  0.00  0.00    -0.035 A 
HETATM    6  C   UNK N   1      25.080  26.417  -5.738  0.00  0.00     0.009 A 
HETATM    7  C   UNK N   1      26.309  24.375  -6.271  0.00  0.00     0.050 C 
HETATM    8  C   UNK N   1      24.829  27.586  -5.029  0.00  0.00     0.001 A 
HETATM    9  C   UNK N   1      25.666  27.952  -3.985  0.00  0.00     0.002 A 
HETATM   10  C   UNK N   1      26.752  27.149  -3.655  0.00  0.00     0.030 A 
ENDBRANCH   2   4
BRANCH   2  11
HETATM   11  C   UNK N   1      29.526  25.549  -4.495  0.00  0.00     0.128 C 
HETATM   12  C   UNK N   1      30.455  26.487  -3.736  0.00  0.00     0.027 C 
ENDBRANCH   2  11
BRANCH   3  13
HETATM   13  C   UNK N   1      29.216  23.232  -2.632  0.00  0.00     0.070 C 
HETATM   14  C   UNK N   1      29.852  22.405  -3.459  0.00  0.00    -0.026 C 
HETATM   15  C   UNK N   1      30.994  21.594  -2.958  0.00  0.00     0.036 C 
ENDBRANCH   3  13
TORSDOF 3
ENDMDL
MODEL 2
REMARK VINA RESULT:      -5.4     21.773     25.264
REMARK  3 active torsions:
REMARK  status: ('A' for Active; 'I' for Inactive)
REMARK    1  A    between atoms: N_2  and  C_3 
REMARK    2  A    between atoms: N_2  and  C_4 
REMARK       I    between atoms: N_2  and  C_7 
REMARK    3  A    between atoms: C_7  and  C_13 
ROOT
HETATM    1  O   UNK N   1      37.372  13.819  15.180  0.00  0.00    -0.268 OA
HETATM    2  N   UNK N   1      35.560  12.448  14.983  0.00  0.00    -0.314 N 
HETATM    3  C   UNK N   1      36.477  13.374  14.474  0.00  0.00     0.247 C 
ENDROOT
BRANCH   2   4
HETATM    4  C   UNK N   1      35.647  11.993  16.377  0.00  0.00     0.043 A 
HETATM    5  C   UNK N   1      36.314  10.781  16.784  0.00  0.00    -0.035 A 
HETATM    6  C   UNK N   1      36.349  10.419  18.136  0.00  0.00     0.009 A 
HETATM    7  C   UNK N   1      37.002   9.837  15.856  0.00  0.00     0.050 C 
HETATM    8  C   UNK N   1      35.748  11.209  19.111  0.00  0.00     0.001 A 
HETATM    9  C   UNK N   1      35.100  12.379  18.746  0.00  0.00     0.002 A 
HETATM   10  C   UNK N   1      35.054  12.757  17.408  0.00  0.00     0.030 A 
ENDBRANCH   2   4
BRANCH   2  11
HETATM   11  C   UNK N   1      34.469  11.891  14.165  0.00  0.00     0.128 C 
HETATM   12  C   UNK N   1      33.584  10.764  14.681  0.00  0.00     0.027 C 
ENDBRANCH   2  11
BRANCH   3  13
HETATM   13  C   UNK N   1      36.426  13.875  13.084  0.00  0.00     0.070 C 
HETATM   14  C   UNK N   1      35.996  15.101  12.789  0.00  0.00    -0.026 C 
HETATM   15  C   UNK N   1      35.969  15.552  11.372  0.00  0.00     0.036 C 
ENDBRANCH   3  13
TORSDOF 3
ENDMDL
MODEL 3
REMARK VINA RESULT:      -5.4     22.756     25.551
REMARK  3 active torsions:
REMARK  status: ('A' for Active; 'I' for Inactive)
REMARK    1  A    between atoms: N_2  and  C_3 
REMARK    2  A    between atoms: N_2  and  C_4 
REMARK       I    between atoms: N_2  and  C_7 
REMARK    3  A    between atoms: C_7  and  C_13 
ROOT
HETATM    1  O   UNK N   1      33.432  11.084  15.001  0.00  0.00    -0.268 OA
HETATM    2  N   UNK N   1      35.587  11.813  15.164  0.00  0.00    -0.314 N 
HETATM    3  C   UNK N   1      34.492  11.329  14.440  0.00  0.00     0.247 C 
ENDROOT
BRANCH   2   4
HETATM    4  C   UNK N   1      35.492  12.032  16.614  0.00  0.00     0.043 A 
HETATM    5  C   UNK N   1      35.657  10.986  17.593  0.00  0.00    -0.035 A 
HETATM    6  C   UNK N   1      35.549  11.280  18.958  0.00  0.00     0.009 A 
HETATM    7  C   UNK N   1      35.946   9.558  17.273  0.00  0.00     0.050 C 
HETATM    8  C   UNK N   1      35.283  12.572  19.399  0.00  0.00     0.001 A 
HETATM    9  C   UNK N   1      35.121  13.595  18.478  0.00  0.00     0.002 A 
HETATM   10  C   UNK N   1      35.224  13.325  17.117  0.00  0.00     0.030 A 
ENDBRANCH   2   4
BRANCH   2  11
HETATM   11  C   UNK N   1      36.878  12.119  14.524  0.00  0.00     0.128 C 
HETATM   12  C   UNK N   1      37.955  11.054  14.359  0.00  0.00     0.027 C 
ENDBRANCH   2  11
BRANCH   3  13
HETATM   13  C   UNK N   1      34.538  11.078  12.984  0.00  0.00     0.070 C 
HETATM   14  C   UNK N   1      33.804  10.129  12.406  0.00  0.00    -0.026 C 
HETATM   15  C   UNK N   1      33.889   9.923  10.936  0.00  0.00     0.036 C 
ENDBRANCH   3  13
TORSDOF 3
ENDMDL
MODEL 4
REMARK VINA RESULT:      -5.4     21.279     24.687
REMARK  3 active torsions:
REMARK  status: ('A' for Active; 'I' for Inactive)
REMARK    1  A    between atoms: N_2  and  C_3 
REMARK    2  A    between atoms: N_2  and  C_4 
REMARK       I    between atoms: N_2  and  C_7 
REMARK    3  A    between atoms: C_7  and  C_13 
ROOT
HETATM    1  O   UNK N   1      34.540  12.917  13.896  0.00  0.00    -0.268 OA
HETATM    2  N   UNK N   1      36.262  13.709  15.163  0.00  0.00    -0.314 N 
HETATM    3  C   UNK N   1      35.492  13.677  13.996  0.00  0.00     0.247 C 
ENDROOT
BRANCH   2   4
HETATM    4  C   UNK N   1      35.948  12.825  16.294  0.00  0.00     0.043 A 
HETATM    5  C   UNK N   1      36.278  11.422  16.328  0.00  0.00    -0.035 A 
HETATM    6  C   UNK N   1      35.942  10.649  17.446  0.00  0.00     0.009 A 
HETATM    7  C   UNK N   1      36.978  10.686  15.235  0.00  0.00     0.050 C 
HETATM    8  C   UNK N   1      35.287  11.207  18.539  0.00  0.00     0.001 A 
HETATM    9  C   UNK N   1      34.958  12.554  18.531  0.00  0.00     0.002 A 
HETATM   10  C   UNK N   1      35.284  13.340  17.431  0.00  0.00     0.030 A 
ENDBRANCH   2   4
BRANCH   2  11
HETATM   11  C   UNK N   1      37.416  14.611  15.320  0.00  0.00     0.128 C 
HETATM   12  C   UNK N   1      37.330  15.872  16.170  0.00  0.00     0.027 C 
ENDBRANCH   2  11
BRANCH   3  13
HETATM   13  C   UNK N   1      35.773  14.535  12.824  0.00  0.00     0.070 C 
HETATM   14  C   UNK N   1      36.272  14.045  11.691  0.00  0.00    -0.026 C 
HETATM   15  C   UNK N   1      36.532  14.955  10.545  0.00  0.00     0.036 C 
ENDBRANCH   3  13
TORSDOF 3
ENDMDL
MODEL 5
REMARK VINA RESULT:      -5.3     13.214     16.887
REMARK  3 active torsions:
REMARK  status: ('A' for Active; 'I' for Inactive)
REMARK    1  A    between atoms: N_2  and  C_3 
REMARK    2  A    between atoms: N_2  and  C_4 
REMARK       I    between atoms: N_2  and  C_7 
REMARK    3  A    between atoms: C_7  and  C_13 
ROOT
HETATM    1  O   UNK N   1      35.021  16.089   6.479  0.00  0.00    -0.268 OA
HETATM    2  N   UNK N   1      33.409  16.921   7.861  0.00  0.00    -0.314 N 
HETATM    3  C   UNK N   1      34.001  16.752   6.605  0.00  0.00     0.247 C 
ENDROOT
BRANCH   2   4
HETATM    4  C   UNK N   1      34.002  16.313   9.059  0.00  0.00     0.043 A 
HETATM    5  C   UNK N   1      33.685  14.985   9.523  0.00  0.00    -0.035 A 
HETATM    6  C   UNK N   1      34.296  14.481  10.678  0.00  0.00     0.009 A 
HETATM    7  C   UNK N   1      32.726  14.057   8.856  0.00  0.00     0.050 C 
HETATM    8  C   UNK N   1      35.212  15.238  11.400  0.00  0.00     0.001 A 
HETATM    9  C   UNK N   1      35.535  16.518  10.974  0.00  0.00     0.002 A 
HETATM   10  C   UNK N   1      34.940  17.038   9.830  0.00  0.00     0.030 A 
ENDBRANCH   2   4
BRANCH   2  11
HETATM   11  C   UNK N   1      32.181  17.713   8.051  0.00  0.00     0.128 C 
HETATM   12  C   UNK N   1      30.810  17.053   8.100  0.00  0.00     0.027 C 
ENDBRANCH   2  11
BRANCH   3  13
HETATM   13  C   UNK N   1      33.453  17.354   5.370  0.00  0.00     0.070 C 
HETATM   14  C   UNK N   1      32.870  16.620   4.424  0.00  0.00    -0.026 C 
HETATM   15  C   UNK N   1      32.335  17.279   3.204  0.00  0.00     0.036 C 
ENDBRANCH   3  13
TORSDOF 3
ENDMDL
MODEL 6
REMARK VINA RESULT:      -5.3     21.688     24.227
REMARK  3 active torsions:
REMARK  status: ('A' for Active; 'I' for Inactive)
REMARK    1  A    between atoms: N_2  and  C_3 
REMARK    2  A    between atoms: N_2  and  C_4 
REMARK       I    between atoms: N_2  and  C_7 
REMARK    3  A    between atoms: C_7  and  C_13 
ROOT
HETATM    1  O   UNK N   1      34.942  13.784  13.270  0.00  0.00    -0.268 OA
HETATM    2  N   UNK N   1      36.659  12.782  14.386  0.00  0.00    -0.314 N 
HETATM    3  C   UNK N   1      35.803  12.916  13.288  0.00  0.00     0.247 C 
ENDROOT
BRANCH   2   4
HETATM    4  C   UNK N   1      36.540  13.677  15.545  0.00  0.00     0.043 A 
HETATM    5  C   UNK N   1      35.692  13.408  16.680  0.00  0.00    -0.035 A 
HETATM    6  C   UNK N   1      35.635  14.315  17.744  0.00  0.00     0.009 A 
HETATM    7  C   UNK N   1      34.834  12.196  16.832  0.00  0.00     0.050 C 
HETATM    8  C   UNK N   1      36.384  15.487  17.735  0.00  0.00     0.001 A 
HETATM    9  C   UNK N   1      37.207  15.769  16.656  0.00  0.00     0.002 A 
HETATM   10  C   UNK N   1      37.279  14.881  15.588  0.00  0.00     0.030 A 
ENDBRANCH   2   4
BRANCH   2  11
HETATM   11  C   UNK N   1      37.708  11.749  14.444  0.00  0.00     0.128 C 
HETATM   12  C   UNK N   1      37.446  10.386  15.072  0.00  0.00     0.027 C 
ENDBRANCH   2  11
BRANCH   3  13
HETATM   13  C   UNK N   1      35.872  12.034  12.103  0.00  0.00     0.070 C 
HETATM   14  C   UNK N   1      34.876  11.954  11.222  0.00  0.00    -0.026 C 
HETATM   15  C   UNK N   1      35.001  11.051  10.047  0.00  0.00     0.036 C 
ENDBRANCH   3  13
TORSDOF 3
ENDMDL
MODEL 7
REMARK VINA RESULT:      -5.2     20.711     23.792
REMARK  3 active torsions:
REMARK  status: ('A' for Active; 'I' for Inactive)
REMARK    1  A    between atoms: N_2  and  C_3 
REMARK    2  A    between atoms: N_2  and  C_4 
REMARK       I    between atoms: N_2  and  C_7 
REMARK    3  A    between atoms: C_7  and  C_13 
ROOT
HETATM    1  O   UNK N   1      33.964  13.131  15.614  0.00  0.00    -0.268 OA
HETATM    2  N   UNK N   1      36.043  12.664  14.801  0.00  0.00    -0.314 N 
HETATM    3  C   UNK N   1      35.079  12.668  15.815  0.00  0.00     0.247 C 
ENDROOT
BRANCH   2   4
HETATM    4  C   UNK N   1      35.742  13.222  13.476  0.00  0.00     0.043 A 
HETATM    5  C   UNK N   1      35.087  12.483  12.426  0.00  0.00    -0.035 A 
HETATM    6  C   UNK N   1      34.839  13.091  11.189  0.00  0.00     0.009 A 
HETATM    7  C   UNK N   1      34.626  11.069  12.541  0.00  0.00     0.050 C 
HETATM    8  C   UNK N   1      35.216  14.407  10.944  0.00  0.00     0.001 A 
HETATM    9  C   UNK N   1      35.847  15.140  11.937  0.00  0.00     0.002 A 
HETATM   10  C   UNK N   1      36.102  14.555  13.173  0.00  0.00     0.030 A 
ENDBRANCH   2   4
BRANCH   2  11
HETATM   11  C   UNK N   1      37.395  12.115  15.005  0.00  0.00     0.128 C 
HETATM   12  C   UNK N   1      37.748  10.695  14.585  0.00  0.00     0.027 C 
ENDBRANCH   2  11
BRANCH   3  13
HETATM   13  C   UNK N   1      35.333  12.131  17.169  0.00  0.00     0.070 C 
HETATM   14  C   UNK N   1      35.128  12.857  18.267  0.00  0.00    -0.026 C 
HETATM   15  C   UNK N   1      35.399  12.264  19.604  0.00  0.00     0.036 C 
ENDBRANCH   3  13
TORSDOF 3
ENDMDL
MODEL 8
REMARK VINA RESULT:      -5.1     23.625     25.455
REMARK  3 active torsions:
REMARK  status: ('A' for Active; 'I' for Inactive)
REMARK    1  A    between atoms: N_2  and  C_3 
REMARK    2  A    between atoms: N_2  and  C_4 
REMARK       I    between atoms: N_2  and  C_7 
REMARK    3  A    between atoms: C_7  and  C_13 
ROOT
HETATM    1  O   UNK N   1      37.948  11.892  14.948  0.00  0.00    -0.268 OA
HETATM    2  N   UNK N   1      35.670  11.929  14.860  0.00  0.00    -0.314 N 
HETATM    3  C   UNK N   1      36.933  11.824  14.269  0.00  0.00     0.247 C 
ENDROOT
BRANCH   2   4
HETATM    4  C   UNK N   1      35.533  12.131  16.309  0.00  0.00     0.043 A 
HETATM    5  C   UNK N   1      35.543  11.057  17.271  0.00  0.00    -0.035 A 
HETATM    6  C   UNK N   1      35.404  11.336  18.635  0.00  0.00     0.009 A 
HETATM    7  C   UNK N   1      35.696   9.612  16.931  0.00  0.00     0.050 C 
HETATM    8  C   UNK N   1      35.254  12.640  19.094  0.00  0.00     0.001 A 
HETATM    9  C   UNK N   1      35.241  13.691  18.190  0.00  0.00     0.002 A 
HETATM   10  C   UNK N   1      35.378  13.436  16.829  0.00  0.00     0.030 A 
ENDBRANCH   2   4
BRANCH   2  11
HETATM   11  C   UNK N   1      34.426  11.853  14.074  0.00  0.00     0.128 C 
HETATM   12  C   UNK N   1      33.677  10.539  13.898  0.00  0.00     0.027 C 
ENDBRANCH   2  11
BRANCH   3  13
HETATM   13  C   UNK N   1      37.128  11.635  12.815  0.00  0.00     0.070 C 
HETATM   14  C   UNK N   1      37.454  10.454  12.293  0.00  0.00    -0.026 C 
HETATM   15  C   UNK N   1      37.635  10.323  10.823  0.00  0.00     0.036 C 
ENDBRANCH   3  13
TORSDOF 3
ENDMDL
MODEL 9
REMARK VINA RESULT:      -5.1     10.664     13.511
REMARK  3 active torsions:
REMARK  status: ('A' for Active; 'I' for Inactive)
REMARK    1  A    between atoms: N_2  and  C_3 
REMARK    2  A    between atoms: N_2  and  C_4 
REMARK       I    between atoms: N_2  and  C_7 
REMARK    3  A    between atoms: C_7  and  C_13 
ROOT
HETATM    1  O   UNK N   1      27.803  20.598   6.175  0.00  0.00    -0.268 OA
HETATM    2  N   UNK N   1      27.450  18.345   6.207  0.00  0.00    -0.314 N 
HETATM    3  C   UNK N   1      27.166  19.639   5.759  0.00  0.00     0.247 C 
ENDROOT
BRANCH   2   4
HETATM    4  C   UNK N   1      28.514  18.107   7.192  0.00  0.00     0.043 A 
HETATM    5  C   UNK N   1      29.820  17.599   6.852  0.00  0.00    -0.035 A 
HETATM    6  C   UNK N   1      30.777  17.399   7.854  0.00  0.00     0.009 A 
HETATM    7  C   UNK N   1      30.265  17.254   5.471  0.00  0.00     0.050 C 
HETATM    8  C   UNK N   1      30.496  17.679   9.187  0.00  0.00     0.001 A 
HETATM    9  C   UNK N   1      29.248  18.169   9.540  0.00  0.00     0.002 A 
HETATM   10  C   UNK N   1      28.283  18.376   8.560  0.00  0.00     0.030 A 
ENDBRANCH   2   4
BRANCH   2  11
HETATM   11  C   UNK N   1      26.705  17.167   5.729  0.00  0.00     0.128 C 
HETATM   12  C   UNK N   1      26.600  15.900   6.566  0.00  0.00     0.027 C 
ENDBRANCH   2  11
BRANCH   3  13
HETATM   13  C   UNK N   1      26.098  19.936   4.780  0.00  0.00     0.070 C 
HETATM   14  C   UNK N   1      26.360  20.157   3.493  0.00  0.00    -0.026 C 
HETATM   15  C   UNK N   1      25.245  20.449   2.554  0.00  0.00     0.036 C 
ENDBRANCH   3  13
TORSDOF 3
ENDMDL
