MODEL 1
REMARK VINA RESULT:      -5.6      0.000      0.000
REMARK  7 active torsions:
REMARK  status: ('A' for Active; 'I' for Inactive)
REMARK    1  A    between atoms: N_2  and  C_4 
REMARK    2  A    between atoms: N_2  and  C_7 
REMARK    3  A    between atoms: N_2  and  C_8 
REMARK    4  A    between atoms: C_4  and  C_5 
REMARK    5  A    between atoms: C_5  and  C_6 
REMARK    6  A    between atoms: C_7  and  C_12 
REMARK    7  A    between atoms: C_8  and  C_13 
ROOT
HETATM    1  O   UNK N   1      30.467  23.083  -1.371  0.00  0.00    -0.273 OA
HETATM    2  N   UNK N   1      30.704  21.790  -3.197  0.00  0.00    -0.326 N 
HETATM    3  C   UNK N   1      28.588  23.053  -5.817  0.00  0.00    -0.048 A 
HETATM    4  C   UNK N   1      29.263  22.841  -4.613  0.00  0.00    -0.016 A 
HETATM    5  C   UNK N   1      29.179  23.639  -3.339  0.00  0.00     0.144 A 
HETATM    6  C   UNK N   1      30.144  21.803  -4.472  0.00  0.00     0.042 A 
HETATM    7  C   UNK N   1      28.834  22.170  -6.886  0.00  0.00     0.008 A 
HETATM    8  C   UNK N   1      30.168  22.829  -2.528  0.00  0.00     0.226 A 
HETATM    9  C   UNK N   1      30.414  20.912  -5.507  0.00  0.00     0.030 A 
HETATM   10  C   UNK N   1      29.743  21.101  -6.730  0.00  0.00     0.003 A 
HETATM   11  H   UNK N   1      31.364  21.147  -2.852  0.00  0.00     0.169 HD
ENDROOT
BRANCH   3  12
HETATM   12  C   UNK N   1      27.677  24.225  -5.970  0.00  0.00     0.069 C 
BRANCH  12  13
HETATM   13  C   UNK N   1      26.532  23.970  -6.937  0.00  0.00     0.277 C 
BRANCH  13  14
HETATM   14  N   UNK N   1      25.747  25.190  -7.045  0.00  0.00     0.088 N 
BRANCH  14  15
HETATM   15  C   UNK N   1      26.573  26.192  -7.709  0.00  0.00     0.272 C 
BRANCH  15  16
HETATM   16  C   UNK N   1      26.695  25.864  -9.186  0.00  0.00     0.026 C 
HETATM   17  C   UNK N   1      25.350  26.040  -9.858  0.00  0.00     0.007 C 
ENDBRANCH  15  16
ENDBRANCH  14  15
BRANCH  14  18
HETATM   18  C   UNK N   1      25.434  25.652  -5.700  0.00  0.00     0.272 C 
BRANCH  18  19
HETATM   19  C   UNK N   1      24.905  27.075  -5.762  0.00  0.00     0.026 C 
HETATM   20  C   UNK N   1      25.372  27.851  -4.550  0.00  0.00     0.007 C 
ENDBRANCH  18  19
ENDBRANCH  14  18
ENDBRANCH  13  14
ENDBRANCH  12  13
ENDBRANCH   3  12
TORSDOF 7
ENDMDL
MODEL 2
REMARK VINA RESULT:      -5.5      1.482      2.175
REMARK  7 active torsions:
REMARK  status: ('A' for Active; 'I' for Inactive)
REMARK    1  A    between atoms: N_2  and  C_4 
REMARK    2  A    between atoms: N_2  and  C_7 
REMARK    3  A    between atoms: N_2  and  C_8 
REMARK    4  A    between atoms: C_4  and  C_5 
REMARK    5  A    between atoms: C_5  and  C_6 
REMARK    6  A    between atoms: C_7  and  C_12 
REMARK    7  A    between atoms: C_8  and  C_13 
ROOT
HETATM    1  O   UNK N   1      32.133  21.672  -2.106  0.00  0.00    -0.273 OA
HETATM    2  N   UNK N   1      31.743  20.591  -4.040  0.00  0.00    -0.326 N 
HETATM    3  C   UNK N   1      29.137  22.297  -5.837  0.00  0.00    -0.048 A 
HETATM    4  C   UNK N   1      30.086  21.899  -4.894  0.00  0.00    -0.016 A 
HETATM    5  C   UNK N   1      30.426  22.545  -3.577  0.00  0.00     0.144 A 
HETATM    6  C   UNK N   1      30.866  20.793  -5.102  0.00  0.00     0.042 A 
HETATM    7  C   UNK N   1      28.998  21.531  -7.012  0.00  0.00     0.008 A 
HETATM    8  C   UNK N   1      31.512  21.578  -3.153  0.00  0.00     0.226 A 
HETATM    9  C   UNK N   1      30.758  20.014  -6.251  0.00  0.00     0.030 A 
HETATM   10  C   UNK N   1      29.806  20.391  -7.216  0.00  0.00     0.003 A 
HETATM   11  H   UNK N   1      32.404  19.868  -3.954  0.00  0.00     0.169 HD
ENDROOT
BRANCH   3  12
HETATM   12  C   UNK N   1      28.339  23.539  -5.620  0.00  0.00     0.069 C 
BRANCH  12  13
HETATM   13  C   UNK N   1      27.824  24.153  -6.912  0.00  0.00     0.277 C 
BRANCH  13  14
HETATM   14  N   UNK N   1      26.375  24.251  -6.824  0.00  0.00     0.088 N 
BRANCH  14  15
HETATM   15  C   UNK N   1      25.808  23.343  -7.814  0.00  0.00     0.272 C 
BRANCH  15  16
HETATM   16  C   UNK N   1      25.296  22.088  -7.132  0.00  0.00     0.026 C 
HETATM   17  C   UNK N   1      25.436  20.908  -8.069  0.00  0.00     0.007 C 
ENDBRANCH  15  16
ENDBRANCH  14  15
BRANCH  14  18
HETATM   18  C   UNK N   1      25.989  25.615  -7.156  0.00  0.00     0.272 C 
BRANCH  18  19
HETATM   19  C   UNK N   1      25.307  26.255  -5.958  0.00  0.00     0.026 C 
HETATM   20  C   UNK N   1      26.045  27.513  -5.557  0.00  0.00     0.007 C 
ENDBRANCH  18  19
ENDBRANCH  14  18
ENDBRANCH  13  14
ENDBRANCH  12  13
ENDBRANCH   3  12
TORSDOF 7
ENDMDL
MODEL 3
REMARK VINA RESULT:      -5.5     12.005     14.465
REMARK  7 active torsions:
REMARK  status: ('A' for Active; 'I' for Inactive)
REMARK    1  A    between atoms: N_2  and  C_4 
REMARK    2  A    between atoms: N_2  and  C_7 
REMARK    3  A    between atoms: N_2  and  C_8 
REMARK    4  A    between atoms: C_4  and  C_5 
REMARK    5  A    between atoms: C_5  and  C_6 
REMARK    6  A    between atoms: C_7  and  C_12 
REMARK    7  A    between atoms: C_8  and  C_13 
ROOT
HETATM    1  O   UNK N   1      28.139  17.225   9.804  0.00  0.00    -0.273 OA
HETATM    2  N   UNK N   1      27.518  19.045   8.637  0.00  0.00    -0.326 N 
HETATM    3  C   UNK N   1      28.478  18.624   5.198  0.00  0.00    -0.048 A 
HETATM    4  C   UNK N   1      28.263  18.459   6.568  0.00  0.00    -0.016 A 
HETATM    5  C   UNK N   1      28.635  17.290   7.440  0.00  0.00     0.144 A 
HETATM    6  C   UNK N   1      27.632  19.426   7.303  0.00  0.00     0.042 A 
HETATM    7  C   UNK N   1      28.032  19.813   4.589  0.00  0.00     0.008 A 
HETATM    8  C   UNK N   1      28.084  17.829   8.744  0.00  0.00     0.226 A 
HETATM    9  C   UNK N   1      27.176  20.612   6.735  0.00  0.00     0.030 A 
HETATM   10  C   UNK N   1      27.385  20.805   5.357  0.00  0.00     0.003 A 
HETATM   11  H   UNK N   1      27.103  19.566   9.363  0.00  0.00     0.169 HD
ENDROOT
BRANCH   3  12
HETATM   12  C   UNK N   1      29.114  17.533   4.402  0.00  0.00     0.069 C 
BRANCH  12  13
HETATM   13  C   UNK N   1      30.633  17.563   4.453  0.00  0.00     0.277 C 
BRANCH  13  14
HETATM   14  N   UNK N   1      31.118  16.193   4.391  0.00  0.00     0.088 N 
BRANCH  14  15
HETATM   15  C   UNK N   1      31.960  15.967   5.560  0.00  0.00     0.272 C 
BRANCH  15  16
HETATM   16  C   UNK N   1      32.682  17.248   5.932  0.00  0.00     0.026 C 
HETATM   17  C   UNK N   1      34.133  16.944   6.238  0.00  0.00     0.007 C 
ENDBRANCH  15  16
ENDBRANCH  14  15
BRANCH  14  18
HETATM   18  C   UNK N   1      31.927  16.049   3.189  0.00  0.00     0.272 C 
BRANCH  18  19
HETATM   19  C   UNK N   1      32.531  14.655   3.148  0.00  0.00     0.026 C 
HETATM   20  C   UNK N   1      33.966  14.731   2.673  0.00  0.00     0.007 C 
ENDBRANCH  18  19
ENDBRANCH  14  18
ENDBRANCH  13  14
ENDBRANCH  12  13
ENDBRANCH   3  12
TORSDOF 7
ENDMDL
MODEL 4
REMARK VINA RESULT:      -5.5      3.342      6.104
REMARK  7 active torsions:
REMARK  status: ('A' for Active; 'I' for Inactive)
REMARK    1  A    between atoms: N_2  and  C_4 
REMARK    2  A    between atoms: N_2  and  C_7 
REMARK    3  A    between atoms: N_2  and  C_8 
REMARK    4  A    between atoms: C_4  and  C_5 
REMARK    5  A    between atoms: C_5  and  C_6 
REMARK    6  A    between atoms: C_7  and  C_12 
REMARK    7  A    between atoms: C_8  and  C_13 
ROOT
HETATM    1  O   UNK N   1      29.235  28.529  -8.676  0.00  0.00    -0.273 OA
HETATM    2  N   UNK N   1      28.585  29.435  -6.722  0.00  0.00    -0.326 N 
HETATM    3  C   UNK N   1      25.870  27.502  -5.373  0.00  0.00    -0.048 A 
HETATM    4  C   UNK N   1      26.900  28.008  -6.168  0.00  0.00    -0.016 A 
HETATM    5  C   UNK N   1      27.412  27.483  -7.483  0.00  0.00     0.144 A 
HETATM    6  C   UNK N   1      27.604  29.119  -5.787  0.00  0.00     0.042 A 
HETATM    7  C   UNK N   1      25.568  28.165  -4.167  0.00  0.00     0.008 A 
HETATM    8  C   UNK N   1      28.497  28.517  -7.703  0.00  0.00     0.226 A 
HETATM    9  C   UNK N   1      27.335  29.797  -4.601  0.00  0.00     0.030 A 
HETATM   10  C   UNK N   1      26.298  29.311  -3.784  0.00  0.00     0.003 A 
HETATM   11  H   UNK N   1      29.220  30.185  -6.675  0.00  0.00     0.169 HD
ENDROOT
BRANCH   3  12
HETATM   12  C   UNK N   1      25.154  26.256  -5.776  0.00  0.00     0.069 C 
BRANCH  12  13
HETATM   13  C   UNK N   1      25.562  25.041  -4.958  0.00  0.00     0.277 C 
BRANCH  13  14
HETATM   14  N   UNK N   1      26.788  24.501  -5.526  0.00  0.00     0.088 N 
BRANCH  14  15
HETATM   15  C   UNK N   1      26.435  23.312  -6.293  0.00  0.00     0.272 C 
BRANCH  15  16
HETATM   16  C   UNK N   1      26.775  23.522  -7.757  0.00  0.00     0.026 C 
HETATM   17  C   UNK N   1      25.509  23.801  -8.538  0.00  0.00     0.007 C 
ENDBRANCH  15  16
ENDBRANCH  14  15
BRANCH  14  18
HETATM   18  C   UNK N   1      27.667  24.114  -4.431  0.00  0.00     0.272 C 
BRANCH  18  19
HETATM   19  C   UNK N   1      28.541  25.294  -4.040  0.00  0.00     0.026 C 
HETATM   20  C   UNK N   1      29.519  25.601  -5.153  0.00  0.00     0.007 C 
ENDBRANCH  18  19
ENDBRANCH  14  18
ENDBRANCH  13  14
ENDBRANCH  12  13
ENDBRANCH   3  12
TORSDOF 7
ENDMDL
MODEL 5
REMARK VINA RESULT:      -5.5     11.972     13.451
REMARK  7 active torsions:
REMARK  status: ('A' for Active; 'I' for Inactive)
REMARK    1  A    between atoms: N_2  and  C_4 
REMARK    2  A    between atoms: N_2  and  C_7 
REMARK    3  A    between atoms: N_2  and  C_8 
REMARK    4  A    between atoms: C_4  and  C_5 
REMARK    5  A    between atoms: C_5  and  C_6 
REMARK    6  A    between atoms: C_7  and  C_12 
REMARK    7  A    between atoms: C_8  and  C_13 
ROOT
HETATM    1  O   UNK N   1      28.025  17.144   9.820  0.00  0.00    -0.273 OA
HETATM    2  N   UNK N   1      27.528  19.007   8.661  0.00  0.00    -0.326 N 
HETATM    3  C   UNK N   1      28.470  18.541   5.222  0.00  0.00    -0.048 A 
HETATM    4  C   UNK N   1      28.239  18.383   6.590  0.00  0.00    -0.016 A 
HETATM    5  C   UNK N   1      28.531  17.188   7.458  0.00  0.00     0.144 A 
HETATM    6  C   UNK N   1      27.671  19.386   7.329  0.00  0.00     0.042 A 
HETATM    7  C   UNK N   1      28.105  19.760   4.618  0.00  0.00     0.008 A 
HETATM    8  C   UNK N   1      28.013  17.755   8.763  0.00  0.00     0.226 A 
HETATM    9  C   UNK N   1      27.296  20.602   6.766  0.00  0.00     0.030 A 
HETATM   10  C   UNK N   1      27.522  20.788   5.389  0.00  0.00     0.003 A 
HETATM   11  H   UNK N   1      27.146  19.550   9.388  0.00  0.00     0.169 HD
ENDROOT
BRANCH   3  12
HETATM   12  C   UNK N   1      29.034  17.414   4.422  0.00  0.00     0.069 C 
BRANCH  12  13
HETATM   13  C   UNK N   1      28.065  16.874   3.384  0.00  0.00     0.277 C 
BRANCH  13  14
HETATM   14  N   UNK N   1      27.088  16.038   4.065  0.00  0.00     0.088 N 
BRANCH  14  15
HETATM   15  C   UNK N   1      27.229  14.681   3.550  0.00  0.00     0.272 C 
BRANCH  15  16
HETATM   16  C   UNK N   1      26.636  14.593   2.156  0.00  0.00     0.026 C 
HETATM   17  C   UNK N   1      25.956  13.253   1.976  0.00  0.00     0.007 C 
ENDBRANCH  15  16
ENDBRANCH  14  15
BRANCH  14  18
HETATM   18  C   UNK N   1      25.758  16.532   3.740  0.00  0.00     0.272 C 
BRANCH  18  19
HETATM   19  C   UNK N   1      25.106  17.097   4.991  0.00  0.00     0.026 C 
HETATM   20  C   UNK N   1      24.595  18.495   4.720  0.00  0.00     0.007 C 
ENDBRANCH  18  19
ENDBRANCH  14  18
ENDBRANCH  13  14
ENDBRANCH  12  13
ENDBRANCH   3  12
TORSDOF 7
ENDMDL
MODEL 6
REMARK VINA RESULT:      -5.5      1.389      2.604
REMARK  7 active torsions:
REMARK  status: ('A' for Active; 'I' for Inactive)
REMARK    1  A    between atoms: N_2  and  C_4 
REMARK    2  A    between atoms: N_2  and  C_7 
REMARK    3  A    between atoms: N_2  and  C_8 
REMARK    4  A    between atoms: C_4  and  C_5 
REMARK    5  A    between atoms: C_5  and  C_6 
REMARK    6  A    between atoms: C_7  and  C_12 
REMARK    7  A    between atoms: C_8  and  C_13 
ROOT
HETATM    1  O   UNK N   1      30.532  23.064  -1.418  0.00  0.00    -0.273 OA
HETATM    2  N   UNK N   1      31.016  21.566  -3.025  0.00  0.00    -0.326 N 
HETATM    3  C   UNK N   1      29.157  22.380  -5.993  0.00  0.00    -0.048 A 
HETATM    4  C   UNK N   1      29.702  22.356  -4.707  0.00  0.00    -0.016 A 
HETATM    5  C   UNK N   1      29.449  23.302  -3.564  0.00  0.00     0.144 A 
HETATM    6  C   UNK N   1      30.600  21.389  -4.341  0.00  0.00     0.042 A 
HETATM    7  C   UNK N   1      29.551  21.383  -6.906  0.00  0.00     0.008 A 
HETATM    8  C   UNK N   1      30.373  22.651  -2.556  0.00  0.00     0.226 A 
HETATM    9  C   UNK N   1      31.015  20.390  -5.218  0.00  0.00     0.030 A 
HETATM   10  C   UNK N   1      30.476  20.390  -6.518  0.00  0.00     0.003 A 
HETATM   11  H   UNK N   1      31.658  21.005  -2.532  0.00  0.00     0.169 HD
ENDROOT
BRANCH   3  12
HETATM   12  C   UNK N   1      28.226  23.476  -6.391  0.00  0.00     0.069 C 
BRANCH  12  13
HETATM   13  C   UNK N   1      27.597  23.258  -7.758  0.00  0.00     0.277 C 
BRANCH  13  14
HETATM   14  N   UNK N   1      26.473  24.173  -7.893  0.00  0.00     0.088 N 
BRANCH  14  15
HETATM   15  C   UNK N   1      26.164  24.695  -6.566  0.00  0.00     0.272 C 
BRANCH  15  16
HETATM   16  C   UNK N   1      25.589  26.094  -6.682  0.00  0.00     0.026 C 
HETATM   17  C   UNK N   1      26.715  27.096  -6.828  0.00  0.00     0.007 C 
ENDBRANCH  15  16
ENDBRANCH  14  15
BRANCH  14  18
HETATM   18  C   UNK N   1      25.328  23.421  -8.385  0.00  0.00     0.272 C 
BRANCH  18  19
HETATM   19  C   UNK N   1      25.576  21.934  -8.192  0.00  0.00     0.026 C 
HETATM   20  C   UNK N   1      24.578  21.370  -7.205  0.00  0.00     0.007 C 
ENDBRANCH  18  19
ENDBRANCH  14  18
ENDBRANCH  13  14
ENDBRANCH  12  13
ENDBRANCH   3  12
TORSDOF 7
ENDMDL
MODEL 7
REMARK VINA RESULT:      -5.4     10.772     13.084
REMARK  7 active torsions:
REMARK  status: ('A' for Active; 'I' for Inactive)
REMARK    1  A    between atoms: N_2  and  C_4 
REMARK    2  A    between atoms: N_2  and  C_7 
REMARK    3  A    between atoms: N_2  and  C_8 
REMARK    4  A    between atoms: C_4  and  C_5 
REMARK    5  A    between atoms: C_5  and  C_6 
REMARK    6  A    between atoms: C_7  and  C_12 
REMARK    7  A    between atoms: C_8  and  C_13 
ROOT
HETATM    1  O   UNK N   1      29.261  17.833  10.309  0.00  0.00    -0.273 OA
HETATM    2  N   UNK N   1      31.071  17.672   8.983  0.00  0.00    -0.326 N 
HETATM    3  C   UNK N   1      30.001  17.213   5.581  0.00  0.00    -0.048 A 
HETATM    4  C   UNK N   1      30.056  17.391   6.965  0.00  0.00    -0.016 A 
HETATM    5  C   UNK N   1      28.915  17.511   7.939  0.00  0.00     0.144 A 
HETATM    6  C   UNK N   1      31.257  17.489   7.615  0.00  0.00     0.042 A 
HETATM    7  C   UNK N   1      31.213  17.134   4.867  0.00  0.00     0.008 A 
HETATM    8  C   UNK N   1      29.742  17.687   9.196  0.00  0.00     0.226 A 
HETATM    9  C   UNK N   1      32.473  17.417   6.943  0.00  0.00     0.030 A 
HETATM   10  C   UNK N   1      32.446  17.233   5.549  0.00  0.00     0.003 A 
HETATM   11  H   UNK N   1      31.776  17.771   9.663  0.00  0.00     0.169 HD
ENDROOT
BRANCH   3  12
HETATM   12  C   UNK N   1      28.683  17.169   4.882  0.00  0.00     0.069 C 
BRANCH  12  13
HETATM   13  C   UNK N   1      28.362  18.451   4.131  0.00  0.00     0.277 C 
BRANCH  13  14
HETATM   14  N   UNK N   1      27.152  19.023   4.703  0.00  0.00     0.088 N 
BRANCH  14  15
HETATM   15  C   UNK N   1      26.090  18.895   3.712  0.00  0.00     0.272 C 
BRANCH  15  16
HETATM   16  C   UNK N   1      25.806  20.245   3.080  0.00  0.00     0.026 C 
HETATM   17  C   UNK N   1      24.310  20.465   3.002  0.00  0.00     0.007 C 
ENDBRANCH  15  16
ENDBRANCH  14  15
BRANCH  14  18
HETATM   18  C   UNK N   1      27.393  20.436   4.960  0.00  0.00     0.272 C 
BRANCH  18  19
HETATM   19  C   UNK N   1      27.542  20.662   6.455  0.00  0.00     0.026 C 
HETATM   20  C   UNK N   1      26.403  21.518   6.962  0.00  0.00     0.007 C 
ENDBRANCH  18  19
ENDBRANCH  14  18
ENDBRANCH  13  14
ENDBRANCH  12  13
ENDBRANCH   3  12
TORSDOF 7
ENDMDL
MODEL 8
REMARK VINA RESULT:      -5.4     26.565     29.649
REMARK  7 active torsions:
REMARK  status: ('A' for Active; 'I' for Inactive)
REMARK    1  A    between atoms: N_2  and  C_4 
REMARK    2  A    between atoms: N_2  and  C_7 
REMARK    3  A    between atoms: N_2  and  C_8 
REMARK    4  A    between atoms: C_4  and  C_5 
REMARK    5  A    between atoms: C_5  and  C_6 
REMARK    6  A    between atoms: C_7  and  C_12 
REMARK    7  A    between atoms: C_8  and  C_13 
ROOT
HETATM    1  O   UNK N   1      35.405  15.105  18.461  0.00  0.00    -0.273 OA
HETATM    2  N   UNK N   1      35.246  13.366  17.043  0.00  0.00    -0.326 N 
HETATM    3  C   UNK N   1      35.137  10.310  18.935  0.00  0.00    -0.048 A 
HETATM    4  C   UNK N   1      35.207  11.645  18.534  0.00  0.00    -0.016 A 
HETATM    5  C   UNK N   1      35.314  12.877  19.393  0.00  0.00     0.144 A 
HETATM    6  C   UNK N   1      35.173  11.985  17.208  0.00  0.00     0.042 A 
HETATM    7  C   UNK N   1      35.033   9.317  17.941  0.00  0.00     0.008 A 
HETATM    8  C   UNK N   1      35.328  13.900  18.276  0.00  0.00     0.226 A 
HETATM    9  C   UNK N   1      35.069  11.032  16.199  0.00  0.00     0.030 A 
HETATM   10  C   UNK N   1      35.002   9.678  16.577  0.00  0.00     0.003 A 
HETATM   11  H   UNK N   1      35.238  13.856  16.190  0.00  0.00     0.169 HD
ENDROOT
BRANCH   3  12
HETATM   12  C   UNK N   1      35.114   9.963  20.386  0.00  0.00     0.069 C 
BRANCH  12  13
HETATM   13  C   UNK N   1      34.071   8.913  20.734  0.00  0.00     0.277 C 
BRANCH  13  14
HETATM   14  N   UNK N   1      32.796   9.586  20.929  0.00  0.00     0.088 N 
BRANCH  14  15
HETATM   15  C   UNK N   1      32.963  10.546  22.014  0.00  0.00     0.272 C 
BRANCH  15  16
HETATM   16  C   UNK N   1      32.421   9.966  23.307  0.00  0.00     0.026 C 
HETATM   17  C   UNK N   1      33.228  10.488  24.476  0.00  0.00     0.007 C 
ENDBRANCH  15  16
ENDBRANCH  14  15
BRANCH  14  18
HETATM   18  C   UNK N   1      31.811   8.590  21.326  0.00  0.00     0.272 C 
BRANCH  18  19
HETATM   19  C   UNK N   1      31.078   8.082  20.096  0.00  0.00     0.026 C 
HETATM   20  C   UNK N   1      31.156   6.573  20.037  0.00  0.00     0.007 C 
ENDBRANCH  18  19
ENDBRANCH  14  18
ENDBRANCH  13  14
ENDBRANCH  12  13
ENDBRANCH   3  12
TORSDOF 7
ENDMDL
MODEL 9
REMARK VINA RESULT:      -5.4      3.492      6.171
REMARK  7 active torsions:
REMARK  status: ('A' for Active; 'I' for Inactive)
REMARK    1  A    between atoms: N_2  and  C_4 
REMARK    2  A    between atoms: N_2  and  C_7 
REMARK    3  A    between atoms: N_2  and  C_8 
REMARK    4  A    between atoms: C_4  and  C_5 
REMARK    5  A    between atoms: C_5  and  C_6 
REMARK    6  A    between atoms: C_7  and  C_12 
REMARK    7  A    between atoms: C_8  and  C_13 
ROOT
HETATM    1  O   UNK N   1      29.800  30.905  -6.629  0.00  0.00    -0.273 OA
HETATM    2  N   UNK N   1      28.213  30.368  -5.128  0.00  0.00    -0.326 N 
HETATM    3  C   UNK N   1      26.474  27.428  -6.252  0.00  0.00    -0.048 A 
HETATM    4  C   UNK N   1      27.333  28.522  -6.129  0.00  0.00    -0.016 A 
HETATM    5  C   UNK N   1      28.422  28.969  -7.067  0.00  0.00     0.144 A 
HETATM    6  C   UNK N   1      27.260  29.356  -5.045  0.00  0.00     0.042 A 
HETATM    7  C   UNK N   1      25.527  27.202  -5.234  0.00  0.00     0.008 A 
HETATM    8  C   UNK N   1      28.890  30.171  -6.275  0.00  0.00     0.226 A 
HETATM    9  C   UNK N   1      26.339  29.162  -4.020  0.00  0.00     0.030 A 
HETATM   10  C   UNK N   1      25.459  28.069  -4.122  0.00  0.00     0.003 A 
HETATM   11  H   UNK N   1      28.362  31.088  -4.473  0.00  0.00     0.169 HD
ENDROOT
BRANCH   3  12
HETATM   12  C   UNK N   1      26.609  26.496  -7.410  0.00  0.00     0.069 C 
BRANCH  12  13
HETATM   13  C   UNK N   1      25.637  25.328  -7.353  0.00  0.00     0.277 C 
BRANCH  13  14
HETATM   14  N   UNK N   1      26.410  24.099  -7.251  0.00  0.00     0.088 N 
BRANCH  14  15
HETATM   15  C   UNK N   1      25.920  23.182  -8.274  0.00  0.00     0.272 C 
BRANCH  15  16
HETATM   16  C   UNK N   1      25.163  22.039  -7.625  0.00  0.00     0.026 C 
HETATM   17  C   UNK N   1      25.586  20.727  -8.251  0.00  0.00     0.007 C 
ENDBRANCH  15  16
ENDBRANCH  14  15
BRANCH  14  18
HETATM   18  C   UNK N   1      26.169  23.516  -5.939  0.00  0.00     0.272 C 
BRANCH  18  19
HETATM   19  C   UNK N   1      27.332  23.844  -5.017  0.00  0.00     0.026 C 
HETATM   20  C   UNK N   1      26.810  24.244  -3.654  0.00  0.00     0.007 C 
ENDBRANCH  18  19
ENDBRANCH  14  18
ENDBRANCH  13  14
ENDBRANCH  12  13
ENDBRANCH   3  12
TORSDOF 7
ENDMDL
