MODEL 1
REMARK VINA RESULT:      -6.9      0.000      0.000
REMARK  6 active torsions:
REMARK  status: ('A' for Active; 'I' for Inactive)
REMARK    1  A    between atoms: O_1  and  C_18 
REMARK    2  A    between atoms: O_1  and  C_26 
REMARK    3  A    between atoms: O_2  and  C_21 
REMARK    4  A    between atoms: C_11  and  C_14 
REMARK    5  A    between atoms: C_12  and  C_18 
REMARK    6  A    between atoms: C_13  and  C_21 
ROOT
HETATM    1  N   UNK N   1      31.323  18.031   8.938  0.00  0.00    -0.362 N 
HETATM    2  C   UNK N   1      30.770  17.280   6.204  0.00  0.00     0.103 C 
HETATM    3  C   UNK N   1      29.644  17.585   7.268  0.00  0.00     0.052 C 
HETATM    4  C   UNK N   1      32.194  17.193   6.858  0.00  0.00     0.052 C 
HETATM    5  C   UNK N   1      29.983  17.953   8.536  0.00  0.00     0.018 C 
HETATM    6  C   UNK N   1      32.389  17.593   8.142  0.00  0.00     0.018 C 
HETATM    7  C   UNK N   1      28.959  18.342   9.562  0.00  0.00     0.069 C 
HETATM    8  C   UNK N   1      33.756  17.636   8.764  0.00  0.00     0.069 C 
HETATM    9  H   UNK N   1      31.524  18.412   9.824  0.00  0.00     0.165 HD
ENDROOT
BRANCH   2  10
HETATM   10  C   UNK N   1      30.369  16.334   5.006  0.00  0.00    -0.014 A 
HETATM   11  C   UNK N   1      30.506  14.916   4.963  0.00  0.00     0.092 A 
HETATM   12  N   UNK N   1      30.923  14.049   5.890  0.00  0.00    -0.239 N 
HETATM   13  C   UNK N   1      30.197  14.183   3.851  0.00  0.00     0.086 A 
HETATM   14  O   UNK N   1      30.842  12.858   5.350  0.00  0.00    -0.156 OA
ATOM     15  HN  UNK N   1      31.243  14.270   6.833  1.00  0.00     0.197 HD
HETATM   16  N   UNK N   1      30.412  12.888   4.119  0.00  0.00    -0.240 N 
ATOM     17  HN  UNK N   1      30.272  12.095   3.493  1.00  0.00     0.197 HD
HETATM   18  C   UNK N   1      29.751  14.743   2.670  0.00  0.00     0.034 A 
HETATM   19  C   UNK N   1      29.594  16.131   2.651  0.00  0.00     0.003 A 
HETATM   20  C   UNK N   1      29.886  16.903   3.800  0.00  0.00     0.011 A 
ENDBRANCH   2  10
BRANCH   3  21
HETATM   21  C   UNK N   1      28.175  17.516   6.963  0.00  0.00     0.292 C 
HETATM   22  O   UNK N   1      27.597  16.438   7.059  0.00  0.00    -0.259 OA
BRANCH  21  23
HETATM   23  O   UNK N   1      27.464  18.634   6.654  0.00  0.00    -0.313 OA
BRANCH  23  24
HETATM   24  C   UNK N   1      27.888  19.581   5.728  0.00  0.00     0.124 C 
HETATM   25  C   UNK N   1      27.563  21.006   6.173  0.00  0.00     0.040 C 
HETATM   26  C   UNK N   1      27.304  19.317   4.352  0.00  0.00     0.040 C 
ENDBRANCH  23  24
ENDBRANCH  21  23
ENDBRANCH   3  21
BRANCH   4  27
HETATM   27  C   UNK N   1      33.413  16.778   6.129  0.00  0.00     0.291 C 
HETATM   28  O   UNK N   1      34.190  17.627   5.716  0.00  0.00    -0.260 OA
BRANCH  27  29
HETATM   29  O   UNK N   1      33.769  15.468   6.148  0.00  0.00    -0.323 OA
HETATM   30  C   UNK N   1      34.374  14.842   5.085  0.00  0.00     0.213 C 
ENDBRANCH  27  29
ENDBRANCH   4  27
TORSDOF 6
ENDMDL
MODEL 2
REMARK VINA RESULT:      -6.5     11.744     13.642
REMARK  6 active torsions:
REMARK  status: ('A' for Active; 'I' for Inactive)
REMARK    1  A    between atoms: O_1  and  C_18 
REMARK    2  A    between atoms: O_1  and  C_26 
REMARK    3  A    between atoms: O_2  and  C_21 
REMARK    4  A    between atoms: C_11  and  C_14 
REMARK    5  A    between atoms: C_12  and  C_18 
REMARK    6  A    between atoms: C_13  and  C_21 
ROOT
HETATM    1  N   UNK N   1      28.534  27.628  -3.899  0.00  0.00    -0.362 N 
HETATM    2  C   UNK N   1      29.178  25.012  -4.942  0.00  0.00     0.103 C 
HETATM    3  C   UNK N   1      27.814  25.350  -4.222  0.00  0.00     0.052 C 
HETATM    4  C   UNK N   1      30.223  26.176  -4.807  0.00  0.00     0.052 C 
HETATM    5  C   UNK N   1      27.573  26.615  -3.773  0.00  0.00     0.018 C 
HETATM    6  C   UNK N   1      29.843  27.392  -4.336  0.00  0.00     0.018 C 
HETATM    7  C   UNK N   1      26.262  27.016  -3.164  0.00  0.00     0.069 C 
HETATM    8  C   UNK N   1      30.785  28.563  -4.304  0.00  0.00     0.069 C 
HETATM    9  H   UNK N   1      28.274  28.550  -3.668  0.00  0.00     0.165 HD
ENDROOT
BRANCH   2  10
HETATM   10  C   UNK N   1      29.638  23.502  -4.906  0.00  0.00    -0.014 A 
HETATM   11  C   UNK N   1      30.391  22.869  -3.875  0.00  0.00     0.092 A 
HETATM   12  N   UNK N   1      30.830  23.334  -2.702  0.00  0.00    -0.239 N 
HETATM   13  C   UNK N   1      30.805  21.570  -3.963  0.00  0.00     0.086 A 
HETATM   14  O   UNK N   1      31.457  22.342  -2.120  0.00  0.00    -0.156 OA
ATOM     15  HN  UNK N   1      30.703  24.276  -2.332  1.00  0.00     0.197 HD
HETATM   16  N   UNK N   1      31.473  21.257  -2.844  0.00  0.00    -0.240 N 
ATOM     17  HN  UNK N   1      31.903  20.362  -2.609  1.00  0.00     0.197 HD
HETATM   18  C   UNK N   1      30.558  20.764  -5.056  0.00  0.00     0.034 A 
HETATM   19  C   UNK N   1      29.821  21.328  -6.101  0.00  0.00     0.003 A 
HETATM   20  C   UNK N   1      29.362  22.663  -6.016  0.00  0.00     0.011 A 
ENDBRANCH   2  10
BRANCH   3  21
HETATM   21  C   UNK N   1      26.718  24.346  -4.010  0.00  0.00     0.292 C 
HETATM   22  O   UNK N   1      26.604  23.812  -2.912  0.00  0.00    -0.259 OA
BRANCH  21  23
HETATM   23  O   UNK N   1      25.810  24.075  -4.987  0.00  0.00    -0.313 OA
BRANCH  23  24
HETATM   24  C   UNK N   1      26.141  23.962  -6.333  0.00  0.00     0.124 C 
HETATM   25  C   UNK N   1      25.659  25.161  -7.147  0.00  0.00     0.040 C 
HETATM   26  C   UNK N   1      25.608  22.673  -6.932  0.00  0.00     0.040 C 
ENDBRANCH  23  24
ENDBRANCH  21  23
ENDBRANCH   3  21
BRANCH   4  27
HETATM   27  C   UNK N   1      31.629  26.078  -5.256  0.00  0.00     0.291 C 
HETATM   28  O   UNK N   1      32.454  25.522  -4.545  0.00  0.00    -0.260 OA
BRANCH  27  29
HETATM   29  O   UNK N   1      31.925  26.385  -6.545  0.00  0.00    -0.323 OA
HETATM   30  C   UNK N   1      31.449  25.663  -7.614  0.00  0.00     0.213 C 
ENDBRANCH  27  29
ENDBRANCH   4  27
TORSDOF 6
ENDMDL
MODEL 3
REMARK VINA RESULT:      -6.4     12.624     15.084
REMARK  6 active torsions:
REMARK  status: ('A' for Active; 'I' for Inactive)
REMARK    1  A    between atoms: O_1  and  C_18 
REMARK    2  A    between atoms: O_1  and  C_26 
REMARK    3  A    between atoms: O_2  and  C_21 
REMARK    4  A    between atoms: C_11  and  C_14 
REMARK    5  A    between atoms: C_12  and  C_18 
REMARK    6  A    between atoms: C_13  and  C_21 
ROOT
HETATM    1  N   UNK N   1      28.468  22.324  -6.400  0.00  0.00    -0.362 N 
HETATM    2  C   UNK N   1      28.179  24.668  -4.735  0.00  0.00     0.103 C 
HETATM    3  C   UNK N   1      27.282  24.385  -6.004  0.00  0.00     0.052 C 
HETATM    4  C   UNK N   1      29.385  23.670  -4.630  0.00  0.00     0.052 C 
HETATM    5  C   UNK N   1      27.465  23.246  -6.730  0.00  0.00     0.018 C 
HETATM    6  C   UNK N   1      29.443  22.570  -5.424  0.00  0.00     0.018 C 
HETATM    7  C   UNK N   1      26.585  22.881  -7.890  0.00  0.00     0.069 C 
HETATM    8  C   UNK N   1      30.518  21.532  -5.271  0.00  0.00     0.069 C 
HETATM    9  H   UNK N   1      28.489  21.463  -6.879  0.00  0.00     0.165 HD
ENDROOT
BRANCH   2  10
HETATM   10  C   UNK N   1      28.336  26.179  -4.307  0.00  0.00    -0.014 A 
HETATM   11  C   UNK N   1      27.330  27.003  -3.722  0.00  0.00     0.092 A 
HETATM   12  N   UNK N   1      26.081  26.722  -3.341  0.00  0.00    -0.239 N 
HETATM   13  C   UNK N   1      27.536  28.326  -3.448  0.00  0.00     0.086 A 
HETATM   14  O   UNK N   1      25.584  27.828  -2.847  0.00  0.00    -0.156 OA
ATOM     15  HN  UNK N   1      25.606  25.822  -3.421  1.00  0.00     0.197 HD
HETATM   16  N   UNK N   1      26.423  28.826  -2.893  0.00  0.00    -0.240 N 
ATOM     17  HN  UNK N   1      26.265  29.783  -2.575  1.00  0.00     0.197 HD
HETATM   18  C   UNK N   1      28.714  28.988  -3.730  0.00  0.00     0.034 A 
HETATM   19  C   UNK N   1      29.740  28.232  -4.303  0.00  0.00     0.003 A 
HETATM   20  C   UNK N   1      29.553  26.856  -4.571  0.00  0.00     0.011 A 
ENDBRANCH   2  10
BRANCH   3  21
HETATM   21  C   UNK N   1      26.190  25.305  -6.470  0.00  0.00     0.292 C 
HETATM   22  O   UNK N   1      25.133  25.336  -5.850  0.00  0.00    -0.259 OA
BRANCH  21  23
HETATM   23  O   UNK N   1      26.380  26.152  -7.518  0.00  0.00    -0.313 OA
BRANCH  23  24
HETATM   24  C   UNK N   1      27.613  26.706  -7.844  0.00  0.00     0.124 C 
HETATM   25  C   UNK N   1      27.740  28.150  -7.361  0.00  0.00     0.040 C 
HETATM   26  C   UNK N   1      27.884  26.627  -9.335  0.00  0.00     0.040 C 
ENDBRANCH  23  24
ENDBRANCH  21  23
ENDBRANCH   3  21
BRANCH   4  27
HETATM   27  C   UNK N   1      30.468  23.788  -3.628  0.00  0.00     0.291 C 
HETATM   28  O   UNK N   1      31.573  24.182  -3.974  0.00  0.00    -0.260 OA
BRANCH  27  29
HETATM   29  O   UNK N   1      30.151  23.695  -2.311  0.00  0.00    -0.323 OA
HETATM   30  C   UNK N   1      29.107  22.932  -1.845  0.00  0.00     0.213 C 
ENDBRANCH  27  29
ENDBRANCH   4  27
TORSDOF 6
ENDMDL
MODEL 4
REMARK VINA RESULT:      -6.3     12.488     14.847
REMARK  6 active torsions:
REMARK  status: ('A' for Active; 'I' for Inactive)
REMARK    1  A    between atoms: O_1  and  C_18 
REMARK    2  A    between atoms: O_1  and  C_26 
REMARK    3  A    between atoms: O_2  and  C_21 
REMARK    4  A    between atoms: C_11  and  C_14 
REMARK    5  A    between atoms: C_12  and  C_18 
REMARK    6  A    between atoms: C_13  and  C_21 
ROOT
HETATM    1  N   UNK N   1      29.619  21.968  -6.188  0.00  0.00    -0.362 N 
HETATM    2  C   UNK N   1      28.278  24.047  -4.697  0.00  0.00     0.103 C 
HETATM    3  C   UNK N   1      27.668  23.369  -5.985  0.00  0.00     0.052 C 
HETATM    4  C   UNK N   1      29.776  23.642  -4.467  0.00  0.00     0.052 C 
HETATM    5  C   UNK N   1      28.352  22.379  -6.626  0.00  0.00     0.018 C 
HETATM    6  C   UNK N   1      30.335  22.632  -5.184  0.00  0.00     0.018 C 
HETATM    7  C   UNK N   1      27.783  21.637  -7.800  0.00  0.00     0.069 C 
HETATM    8  C   UNK N   1      31.727  22.137  -4.911  0.00  0.00     0.069 C 
HETATM    9  H   UNK N   1      30.024  21.174  -6.607  0.00  0.00     0.165 HD
ENDROOT
BRANCH   2  10
HETATM   10  C   UNK N   1      27.771  25.504  -4.361  0.00  0.00    -0.014 A 
HETATM   11  C   UNK N   1      28.370  26.728  -4.781  0.00  0.00     0.092 A 
HETATM   12  N   UNK N   1      29.419  26.960  -5.576  0.00  0.00    -0.239 N 
HETATM   13  C   UNK N   1      27.901  27.948  -4.383  0.00  0.00     0.086 A 
HETATM   14  O   UNK N   1      29.546  28.262  -5.654  0.00  0.00    -0.156 OA
ATOM     15  HN  UNK N   1      30.008  26.262  -6.031  1.00  0.00     0.197 HD
HETATM   16  N   UNK N   1      28.655  28.902  -4.948  0.00  0.00    -0.240 N 
ATOM     17  HN  UNK N   1      28.554  29.912  -4.846  1.00  0.00     0.197 HD
HETATM   18  C   UNK N   1      26.830  28.109  -3.526  0.00  0.00     0.034 A 
HETATM   19  C   UNK N   1      26.198  26.945  -3.081  0.00  0.00     0.003 A 
HETATM   20  C   UNK N   1      26.655  25.675  -3.504  0.00  0.00     0.011 A 
ENDBRANCH   2  10
BRANCH   3  21
HETATM   21  C   UNK N   1      26.331  23.737  -6.563  0.00  0.00     0.292 C 
HETATM   22  O   UNK N   1      25.314  23.439  -5.946  0.00  0.00    -0.259 OA
BRANCH  21  23
HETATM   23  O   UNK N   1      26.233  24.454  -7.715  0.00  0.00    -0.313 OA
BRANCH  23  24
HETATM   24  C   UNK N   1      26.529  25.810  -7.803  0.00  0.00     0.124 C 
HETATM   25  C   UNK N   1      25.548  26.666  -7.002  0.00  0.00     0.040 C 
HETATM   26  C   UNK N   1      26.575  26.279  -9.246  0.00  0.00     0.040 C 
ENDBRANCH  23  24
ENDBRANCH  21  23
ENDBRANCH   3  21
BRANCH   4  27
HETATM   27  C   UNK N   1      30.641  24.236  -3.425  0.00  0.00     0.291 C 
HETATM   28  O   UNK N   1      31.237  25.279  -3.654  0.00  0.00    -0.260 OA
BRANCH  27  29
HETATM   29  O   UNK N   1      30.565  23.750  -2.159  0.00  0.00    -0.323 OA
HETATM   30  C   UNK N   1      29.550  22.927  -1.734  0.00  0.00     0.213 C 
ENDBRANCH  27  29
ENDBRANCH   4  27
TORSDOF 6
ENDMDL
MODEL 5
REMARK VINA RESULT:      -6.3      1.972      4.678
REMARK  6 active torsions:
REMARK  status: ('A' for Active; 'I' for Inactive)
REMARK    1  A    between atoms: O_1  and  C_18 
REMARK    2  A    between atoms: O_1  and  C_26 
REMARK    3  A    between atoms: O_2  and  C_21 
REMARK    4  A    between atoms: C_11  and  C_14 
REMARK    5  A    between atoms: C_12  and  C_18 
REMARK    6  A    between atoms: C_13  and  C_21 
ROOT
HETATM    1  N   UNK N   1      28.220  19.172   8.003  0.00  0.00    -0.362 N 
HETATM    2  C   UNK N   1      29.546  17.263   6.287  0.00  0.00     0.103 C 
HETATM    3  C   UNK N   1      30.030  17.600   7.752  0.00  0.00     0.052 C 
HETATM    4  C   UNK N   1      28.430  18.249   5.792  0.00  0.00     0.052 C 
HETATM    5  C   UNK N   1      29.340  18.498   8.510  0.00  0.00     0.018 C 
HETATM    6  C   UNK N   1      27.826  19.100   6.661  0.00  0.00     0.018 C 
HETATM    7  C   UNK N   1      29.699  18.790   9.938  0.00  0.00     0.069 C 
HETATM    8  C   UNK N   1      26.673  19.973   6.250  0.00  0.00     0.069 C 
HETATM    9  H   UNK N   1      27.685  19.722   8.621  0.00  0.00     0.165 HD
ENDROOT
BRANCH   2  10
HETATM   10  C   UNK N   1      30.642  16.714   5.293  0.00  0.00    -0.014 A 
HETATM   11  C   UNK N   1      31.161  15.387   5.253  0.00  0.00     0.092 A 
HETATM   12  N   UNK N   1      30.836  14.299   5.957  0.00  0.00    -0.239 N 
HETATM   13  C   UNK N   1      32.164  15.018   4.400  0.00  0.00     0.086 A 
HETATM   14  O   UNK N   1      31.603  13.330   5.521  0.00  0.00    -0.156 OA
ATOM     15  HN  UNK N   1      30.131  14.235   6.692  1.00  0.00     0.197 HD
HETATM   16  N   UNK N   1      32.424  13.716   4.584  0.00  0.00    -0.240 N 
ATOM     17  HN  UNK N   1      33.117  13.148   4.096  1.00  0.00     0.197 HD
HETATM   18  C   UNK N   1      32.779  15.890   3.525  0.00  0.00     0.034 A 
HETATM   19  C   UNK N   1      32.311  17.207   3.516  0.00  0.00     0.003 A 
HETATM   20  C   UNK N   1      31.257  17.600   4.373  0.00  0.00     0.011 A 
ENDBRANCH   2  10
BRANCH   3  21
HETATM   21  C   UNK N   1      31.225  16.960   8.398  0.00  0.00     0.292 C 
HETATM   22  O   UNK N   1      31.125  15.821   8.841  0.00  0.00    -0.259 OA
BRANCH  21  23
HETATM   23  O   UNK N   1      32.430  17.593   8.435  0.00  0.00    -0.313 OA
BRANCH  23  24
HETATM   24  C   UNK N   1      33.634  16.970   8.128  0.00  0.00     0.124 C 
HETATM   25  C   UNK N   1      34.701  17.224   9.192  0.00  0.00     0.040 C 
HETATM   26  C   UNK N   1      34.147  17.388   6.762  0.00  0.00     0.040 C 
ENDBRANCH  23  24
ENDBRANCH  21  23
ENDBRANCH   3  21
BRANCH   4  27
HETATM   27  C   UNK N   1      27.895  18.263   4.412  0.00  0.00     0.291 C 
HETATM   28  O   UNK N   1      28.128  19.216   3.682  0.00  0.00    -0.260 OA
BRANCH  27  29
HETATM   29  O   UNK N   1      27.369  17.119   3.905  0.00  0.00    -0.323 OA
HETATM   30  C   UNK N   1      26.060  17.011   3.502  0.00  0.00     0.213 C 
ENDBRANCH  27  29
ENDBRANCH   4  27
TORSDOF 6
ENDMDL
MODEL 6
REMARK VINA RESULT:      -6.2      2.223      6.241
REMARK  6 active torsions:
REMARK  status: ('A' for Active; 'I' for Inactive)
REMARK    1  A    between atoms: O_1  and  C_18 
REMARK    2  A    between atoms: O_1  and  C_26 
REMARK    3  A    between atoms: O_2  and  C_21 
REMARK    4  A    between atoms: C_11  and  C_14 
REMARK    5  A    between atoms: C_12  and  C_18 
REMARK    6  A    between atoms: C_13  and  C_21 
ROOT
HETATM    1  N   UNK N   1      29.721  13.547   4.935  0.00  0.00    -0.362 N 
HETATM    2  C   UNK N   1      28.879  16.310   4.918  0.00  0.00     0.103 C 
HETATM    3  C   UNK N   1      30.377  15.858   5.130  0.00  0.00     0.052 C 
HETATM    4  C   UNK N   1      27.883  15.099   4.963  0.00  0.00     0.052 C 
HETATM    5  C   UNK N   1      30.701  14.534   5.106  0.00  0.00     0.018 C 
HETATM    6  C   UNK N   1      28.347  13.822   4.938  0.00  0.00     0.018 C 
HETATM    7  C   UNK N   1      32.118  14.050   5.212  0.00  0.00     0.069 C 
HETATM    8  C   UNK N   1      27.423  12.640   4.860  0.00  0.00     0.069 C 
HETATM    9  H   UNK N   1      30.012  12.614   4.807  0.00  0.00     0.165 HD
ENDROOT
BRANCH   2  10
HETATM   10  C   UNK N   1      28.476  17.714   5.517  0.00  0.00    -0.014 A 
HETATM   11  C   UNK N   1      28.210  18.007   6.886  0.00  0.00     0.092 A 
HETATM   12  N   UNK N   1      28.286  17.238   7.976  0.00  0.00    -0.239 N 
HETATM   13  C   UNK N   1      27.797  19.241   7.305  0.00  0.00     0.086 A 
HETATM   14  O   UNK N   1      27.952  17.995   8.991  0.00  0.00    -0.156 OA
ATOM     15  HN  UNK N   1      28.552  16.253   8.012  1.00  0.00     0.197 HD
HETATM   16  N   UNK N   1      27.644  19.212   8.636  0.00  0.00    -0.240 N 
ATOM     17  HN  UNK N   1      27.349  19.978   9.242  1.00  0.00     0.197 HD
HETATM   18  C   UNK N   1      27.578  20.302   6.449  0.00  0.00     0.034 A 
HETATM   19  C   UNK N   1      27.825  20.077   5.091  0.00  0.00     0.003 A 
HETATM   20  C   UNK N   1      28.277  18.814   4.644  0.00  0.00     0.011 A 
ENDBRANCH   2  10
BRANCH   3  21
HETATM   21  C   UNK N   1      31.511  16.819   5.344  0.00  0.00     0.292 C 
HETATM   22  O   UNK N   1      31.944  17.451   4.386  0.00  0.00    -0.259 OA
BRANCH  21  23
HETATM   23  O   UNK N   1      32.015  17.051   6.586  0.00  0.00    -0.313 OA
BRANCH  23  24
HETATM   24  C   UNK N   1      33.288  17.561   6.816  0.00  0.00     0.124 C 
HETATM   25  C   UNK N   1      34.364  16.479   6.734  0.00  0.00     0.040 C 
HETATM   26  C   UNK N   1      33.370  18.280   8.150  0.00  0.00     0.040 C 
ENDBRANCH  23  24
ENDBRANCH  21  23
ENDBRANCH   3  21
BRANCH   4  27
HETATM   27  C   UNK N   1      26.410  15.240   4.939  0.00  0.00     0.291 C 
HETATM   28  O   UNK N   1      25.811  15.508   5.970  0.00  0.00    -0.260 OA
BRANCH  27  29
HETATM   29  O   UNK N   1      25.782  15.314   3.738  0.00  0.00    -0.323 OA
HETATM   30  C   UNK N   1      25.981  16.345   2.852  0.00  0.00     0.213 C 
ENDBRANCH  27  29
ENDBRANCH   4  27
TORSDOF 6
ENDMDL
MODEL 7
REMARK VINA RESULT:      -6.1      2.608      4.959
REMARK  6 active torsions:
REMARK  status: ('A' for Active; 'I' for Inactive)
REMARK    1  A    between atoms: O_1  and  C_18 
REMARK    2  A    between atoms: O_1  and  C_26 
REMARK    3  A    between atoms: O_2  and  C_21 
REMARK    4  A    between atoms: C_11  and  C_14 
REMARK    5  A    between atoms: C_12  and  C_18 
REMARK    6  A    between atoms: C_13  and  C_21 
ROOT
HETATM    1  N   UNK N   1      27.545  17.800   6.784  0.00  0.00    -0.362 N 
HETATM    2  C   UNK N   1      29.539  15.880   5.956  0.00  0.00     0.103 C 
HETATM    3  C   UNK N   1      29.764  16.921   7.122  0.00  0.00     0.052 C 
HETATM    4  C   UNK N   1      28.223  16.169   5.151  0.00  0.00     0.052 C 
HETATM    5  C   UNK N   1      28.768  17.784   7.469  0.00  0.00     0.018 C 
HETATM    6  C   UNK N   1      27.313  17.064   5.615  0.00  0.00     0.018 C 
HETATM    7  C   UNK N   1      28.892  18.732   8.626  0.00  0.00     0.069 C 
HETATM    8  C   UNK N   1      25.990  17.279   4.936  0.00  0.00     0.069 C 
HETATM    9  H   UNK N   1      26.815  18.356   7.142  0.00  0.00     0.165 HD
ENDROOT
BRANCH   2  10
HETATM   10  C   UNK N   1      30.834  15.347   5.228  0.00  0.00    -0.014 A 
HETATM   11  C   UNK N   1      31.459  15.919   4.082  0.00  0.00     0.092 A 
HETATM   12  N   UNK N   1      31.175  17.029   3.393  0.00  0.00    -0.239 N 
HETATM   13  C   UNK N   1      32.541  15.347   3.474  0.00  0.00     0.086 A 
HETATM   14  O   UNK N   1      32.065  17.112   2.436  0.00  0.00    -0.156 OA
ATOM     15  HN  UNK N   1      30.413  17.682   3.575  1.00  0.00     0.197 HD
HETATM   16  N   UNK N   1      32.910  16.117   2.441  0.00  0.00    -0.240 N 
ATOM     17  HN  UNK N   1      33.684  15.959   1.796  1.00  0.00     0.197 HD
HETATM   18  C   UNK N   1      33.111  14.161   3.894  0.00  0.00     0.034 A 
HETATM   19  C   UNK N   1      32.544  13.552   5.017  0.00  0.00     0.003 A 
HETATM   20  C   UNK N   1      31.439  14.144   5.673  0.00  0.00     0.011 A 
ENDBRANCH   2  10
BRANCH   3  21
HETATM   21  C   UNK N   1      31.036  17.015   7.915  0.00  0.00     0.292 C 
HETATM   22  O   UNK N   1      31.190  16.279   8.883  0.00  0.00    -0.259 OA
BRANCH  21  23
HETATM   23  O   UNK N   1      32.043  17.848   7.537  0.00  0.00    -0.313 OA
BRANCH  23  24
HETATM   24  C   UNK N   1      33.366  17.442   7.400  0.00  0.00     0.124 C 
HETATM   25  C   UNK N   1      34.311  18.247   8.290  0.00  0.00     0.040 C 
HETATM   26  C   UNK N   1      33.823  17.509   5.954  0.00  0.00     0.040 C 
ENDBRANCH  23  24
ENDBRANCH  21  23
ENDBRANCH   3  21
BRANCH   4  27
HETATM   27  C   UNK N   1      27.834  15.447   3.919  0.00  0.00     0.291 C 
HETATM   28  O   UNK N   1      28.207  15.861   2.831  0.00  0.00    -0.260 OA
BRANCH  27  29
HETATM   29  O   UNK N   1      27.284  14.211   4.034  0.00  0.00    -0.323 OA
HETATM   30  C   UNK N   1      26.753  13.526   2.967  0.00  0.00     0.213 C 
ENDBRANCH  27  29
ENDBRANCH   4  27
TORSDOF 6
ENDMDL
MODEL 8
REMARK VINA RESULT:      -6.0      6.893      8.870
REMARK  6 active torsions:
REMARK  status: ('A' for Active; 'I' for Inactive)
REMARK    1  A    between atoms: O_1  and  C_18 
REMARK    2  A    between atoms: O_1  and  C_26 
REMARK    3  A    between atoms: O_2  and  C_21 
REMARK    4  A    between atoms: C_11  and  C_14 
REMARK    5  A    between atoms: C_12  and  C_18 
REMARK    6  A    between atoms: C_13  and  C_21 
ROOT
HETATM    1  N   UNK N   1      20.439  15.073   9.281  0.00  0.00    -0.362 N 
HETATM    2  C   UNK N   1      22.446  15.237   7.210  0.00  0.00     0.103 C 
HETATM    3  C   UNK N   1      21.255  16.264   7.351  0.00  0.00     0.052 C 
HETATM    4  C   UNK N   1      22.275  13.999   8.158  0.00  0.00     0.052 C 
HETATM    5  C   UNK N   1      20.357  16.133   8.368  0.00  0.00     0.018 C 
HETATM    6  C   UNK N   1      21.329  14.002   9.133  0.00  0.00     0.018 C 
HETATM    7  C   UNK N   1      19.259  17.129   8.605  0.00  0.00     0.069 C 
HETATM    8  C   UNK N   1      21.213  12.887  10.134  0.00  0.00     0.069 C 
HETATM    9  H   UNK N   1      19.842  15.083  10.065  0.00  0.00     0.165 HD
ENDROOT
BRANCH   2  10
HETATM   10  C   UNK N   1      23.069  15.075   5.769  0.00  0.00    -0.014 A 
HETATM   11  C   UNK N   1      24.094  15.881   5.192  0.00  0.00     0.092 A 
HETATM   12  N   UNK N   1      24.808  16.887   5.705  0.00  0.00    -0.239 N 
HETATM   13  C   UNK N   1      24.523  15.711   3.906  0.00  0.00     0.086 A 
HETATM   14  O   UNK N   1      25.633  17.276   4.765  0.00  0.00    -0.156 OA
ATOM     15  HN  UNK N   1      24.726  17.278   6.644  1.00  0.00     0.197 HD
HETATM   16  N   UNK N   1      25.496  16.598   3.658  0.00  0.00    -0.240 N 
ATOM     17  HN  UNK N   1      26.018  16.719   2.790  1.00  0.00     0.197 HD
HETATM   18  C   UNK N   1      23.994  14.770   3.045  0.00  0.00     0.034 A 
HETATM   19  C   UNK N   1      22.985  13.947   3.553  0.00  0.00     0.003 A 
HETATM   20  C   UNK N   1      22.547  14.092   4.890  0.00  0.00     0.011 A 
ENDBRANCH   2  10
BRANCH   3  21
HETATM   21  C   UNK N   1      21.049  17.428   6.424  0.00  0.00     0.292 C 
HETATM   22  O   UNK N   1      21.534  18.515   6.716  0.00  0.00    -0.259 OA
BRANCH  21  23
HETATM   23  O   UNK N   1      20.398  17.278   5.238  0.00  0.00    -0.313 OA
BRANCH  23  24
HETATM   24  C   UNK N   1      20.973  17.565   4.005  0.00  0.00     0.124 C 
HETATM   25  C   UNK N   1      20.673  18.992   3.549  0.00  0.00     0.040 C 
HETATM   26  C   UNK N   1      20.538  16.573   2.942  0.00  0.00     0.040 C 
ENDBRANCH  23  24
ENDBRANCH  21  23
ENDBRANCH   3  21
BRANCH   4  27
HETATM   27  C   UNK N   1      23.159  12.813   8.134  0.00  0.00     0.291 C 
HETATM   28  O   UNK N   1      22.777  11.783   7.599  0.00  0.00    -0.260 OA
BRANCH  27  29
HETATM   29  O   UNK N   1      24.462  12.964   8.485  0.00  0.00    -0.323 OA
HETATM   30  C   UNK N   1      24.878  13.073   9.790  0.00  0.00     0.213 C 
ENDBRANCH  27  29
ENDBRANCH   4  27
TORSDOF 6
ENDMDL
MODEL 9
REMARK VINA RESULT:      -6.0      2.233      4.871
REMARK  6 active torsions:
REMARK  status: ('A' for Active; 'I' for Inactive)
REMARK    1  A    between atoms: O_1  and  C_18 
REMARK    2  A    between atoms: O_1  and  C_26 
REMARK    3  A    between atoms: O_2  and  C_21 
REMARK    4  A    between atoms: C_11  and  C_14 
REMARK    5  A    between atoms: C_12  and  C_18 
REMARK    6  A    between atoms: C_13  and  C_21 
ROOT
HETATM    1  N   UNK N   1      30.286  13.912   3.682  0.00  0.00    -0.362 N 
HETATM    2  C   UNK N   1      29.503  16.072   5.434  0.00  0.00     0.103 C 
HETATM    3  C   UNK N   1      28.496  14.983   4.892  0.00  0.00     0.052 C 
HETATM    4  C   UNK N   1      30.901  15.991   4.727  0.00  0.00     0.052 C 
HETATM    5  C   UNK N   1      28.944  13.980   4.083  0.00  0.00     0.018 C 
HETATM    6  C   UNK N   1      31.215  14.929   3.939  0.00  0.00     0.018 C 
HETATM    7  C   UNK N   1      28.054  12.868   3.612  0.00  0.00     0.069 C 
HETATM    8  C   UNK N   1      32.582  14.757   3.341  0.00  0.00     0.069 C 
HETATM    9  H   UNK N   1      30.589  13.111   3.196  0.00  0.00     0.165 HD
ENDROOT
BRANCH   2  10
HETATM   10  C   UNK N   1      28.880  17.464   5.842  0.00  0.00    -0.014 A 
HETATM   11  C   UNK N   1      28.403  17.833   7.134  0.00  0.00     0.092 A 
HETATM   12  N   UNK N   1      28.411  17.168   8.293  0.00  0.00    -0.239 N 
HETATM   13  C   UNK N   1      27.813  19.041   7.379  0.00  0.00     0.086 A 
HETATM   14  O   UNK N   1      27.868  17.961   9.182  0.00  0.00    -0.156 OA
ATOM     15  HN  UNK N   1      28.770  16.226   8.454  1.00  0.00     0.197 HD
HETATM   16  N   UNK N   1      27.486  19.103   8.678  0.00  0.00    -0.240 N 
ATOM     17  HN  UNK N   1      27.034  19.876   9.167  1.00  0.00     0.197 HD
HETATM   18  C   UNK N   1      27.603  19.998   6.406  0.00  0.00     0.034 A 
HETATM   19  C   UNK N   1      28.051  19.694   5.117  0.00  0.00     0.003 A 
HETATM   20  C   UNK N   1      28.687  18.459   4.851  0.00  0.00     0.011 A 
ENDBRANCH   2  10
BRANCH   3  21
HETATM   21  C   UNK N   1      27.034  14.961   5.234  0.00  0.00     0.292 C 
HETATM   22  O   UNK N   1      26.694  14.686   6.379  0.00  0.00    -0.259 OA
BRANCH  21  23
HETATM   23  O   UNK N   1      26.090  15.309   4.317  0.00  0.00    -0.313 OA
BRANCH  23  24
HETATM   24  C   UNK N   1      26.298  16.258   3.323  0.00  0.00     0.124 C 
HETATM   25  C   UNK N   1      25.410  17.488   3.505  0.00  0.00     0.040 C 
HETATM   26  C   UNK N   1      26.099  15.669   1.938  0.00  0.00     0.040 C 
ENDBRANCH  23  24
ENDBRANCH  21  23
ENDBRANCH   3  21
BRANCH   4  27
HETATM   27  C   UNK N   1      31.987  16.975   4.929  0.00  0.00     0.291 C 
HETATM   28  O   UNK N   1      32.044  17.968   4.217  0.00  0.00    -0.260 OA
BRANCH  27  29
HETATM   29  O   UNK N   1      32.747  16.886   6.050  0.00  0.00    -0.323 OA
HETATM   30  C   UNK N   1      32.378  17.444   7.250  0.00  0.00     0.213 C 
ENDBRANCH  27  29
ENDBRANCH   4  27
TORSDOF 6
ENDMDL
