MODEL 1
REMARK VINA RESULT:      -4.0      0.000      0.000
REMARK  3 active torsions:
REMARK  status: ('A' for Active; 'I' for Inactive)
REMARK    1  A    between atoms: N_2  and  C_7 
REMARK    2  A    between atoms: C_5  and  C_6 
REMARK    3  A    between atoms: C_5  and  C_7 
ROOT
HETATM    1  N   UNK N   1      22.391  11.562  11.615  0.00  0.00    -0.305 N 
HETATM    2  N   UNK N   1      21.125  11.917  11.759  0.00  0.00    -0.312 N 
ATOM      3  HN  UNK N   1      20.510  11.623  12.518  1.00  0.00     0.186 HD
HETATM    4  C   UNK N   1      22.867  12.143  10.505  0.00  0.00     0.028 A 
HETATM    5  C   UNK N   1      21.874  12.899   9.913  0.00  0.00     0.045 A 
HETATM    6  C   UNK N   1      20.779  12.729  10.742  0.00  0.00     0.109 A 
HETATM    7  H   UNK N   1      22.897  10.972  12.220  0.00  0.00     0.186 HD
ENDROOT
BRANCH   4   8
HETATM    8  C   UNK N   1      24.277  11.959  10.033  0.00  0.00     0.077 C 
BRANCH   8   9
HETATM    9  C   UNK N   1      24.947  13.260   9.631  0.00  0.00     0.117 C 
BRANCH   9  10
HETATM   10  N   UNK N   1      25.843  13.679  10.693  0.00  0.00    -0.430 N 
HETATM   11  H   UNK N   1      26.619  13.077  10.972  0.00  0.00     0.149 HD
HETATM   12  H   UNK N   1      25.698  14.575  11.159  0.00  0.00     0.149 HD
ENDBRANCH   9  10
ENDBRANCH   8   9
ENDBRANCH   4   8
TORSDOF 3
ENDMDL
MODEL 2
REMARK VINA RESULT:      -4.0     22.891     23.561
REMARK  3 active torsions:
REMARK  status: ('A' for Active; 'I' for Inactive)
REMARK    1  A    between atoms: N_2  and  C_7 
REMARK    2  A    between atoms: C_5  and  C_6 
REMARK    3  A    between atoms: C_5  and  C_7 
ROOT
HETATM    1  N   UNK N   1      42.636  23.545   2.684  0.00  0.00    -0.305 N 
HETATM    2  N   UNK N   1      41.662  24.028   1.930  0.00  0.00    -0.312 N 
ATOM      3  HN  UNK N   1      41.521  25.013   1.704  1.00  0.00     0.186 HD
HETATM    4  C   UNK N   1      42.494  22.215   2.752  0.00  0.00     0.028 A 
HETATM    5  C   UNK N   1      41.391  21.826   2.017  0.00  0.00     0.045 A 
HETATM    6  C   UNK N   1      40.888  23.010   1.508  0.00  0.00     0.109 A 
HETATM    7  H   UNK N   1      43.343  24.074   3.120  0.00  0.00     0.186 HD
ENDROOT
BRANCH   4   8
HETATM    8  C   UNK N   1      43.428  21.338   3.528  0.00  0.00     0.077 C 
BRANCH   8   9
HETATM    9  C   UNK N   1      44.218  22.092   4.583  0.00  0.00     0.117 C 
BRANCH   9  10
HETATM   10  N   UNK N   1      45.603  22.187   4.160  0.00  0.00    -0.430 N 
HETATM   11  H   UNK N   1      46.149  23.018   4.386  0.00  0.00     0.149 HD
HETATM   12  H   UNK N   1      46.030  21.421   3.637  0.00  0.00     0.149 HD
ENDBRANCH   9  10
ENDBRANCH   8   9
ENDBRANCH   4   8
TORSDOF 3
ENDMDL
MODEL 3
REMARK VINA RESULT:      -3.8     21.219     23.101
REMARK  3 active torsions:
REMARK  status: ('A' for Active; 'I' for Inactive)
REMARK    1  A    between atoms: N_2  and  C_7 
REMARK    2  A    between atoms: C_5  and  C_6 
REMARK    3  A    between atoms: C_5  and  C_7 
ROOT
HETATM    1  N   UNK N   1      42.828  23.424   2.976  0.00  0.00    -0.305 N 
HETATM    2  N   UNK N   1      43.553  23.601   4.067  0.00  0.00    -0.312 N 
ATOM      3  HN  UNK N   1      43.841  24.503   4.446  1.00  0.00     0.186 HD
HETATM    4  C   UNK N   1      42.652  22.108   2.796  0.00  0.00     0.028 A 
HETATM    5  C   UNK N   1      43.286  21.412   3.807  0.00  0.00     0.045 A 
HETATM    6  C   UNK N   1      43.848  22.399   4.598  0.00  0.00     0.109 A 
HETATM    7  H   UNK N   1      42.477  24.137   2.394  0.00  0.00     0.186 HD
ENDROOT
BRANCH   4   8
HETATM    8  C   UNK N   1      41.874  21.541   1.648  0.00  0.00     0.077 C 
BRANCH   8   9
HETATM    9  C   UNK N   1      40.383  21.804   1.751  0.00  0.00     0.117 C 
BRANCH   9  10
HETATM   10  N   UNK N   1      39.804  20.878   2.708  0.00  0.00    -0.430 N 
HETATM   11  H   UNK N   1      40.314  20.038   2.977  0.00  0.00     0.149 HD
HETATM   12  H   UNK N   1      38.885  21.070   3.110  0.00  0.00     0.149 HD
ENDBRANCH   9  10
ENDBRANCH   8   9
ENDBRANCH   4   8
TORSDOF 3
ENDMDL
MODEL 4
REMARK VINA RESULT:      -3.7     14.058     14.698
REMARK  3 active torsions:
REMARK  status: ('A' for Active; 'I' for Inactive)
REMARK    1  A    between atoms: N_2  and  C_7 
REMARK    2  A    between atoms: C_5  and  C_6 
REMARK    3  A    between atoms: C_5  and  C_7 
ROOT
HETATM    1  N   UNK N   1      35.216  13.682  18.946  0.00  0.00    -0.305 N 
HETATM    2  N   UNK N   1      35.321  12.999  20.074  0.00  0.00    -0.312 N 
ATOM      3  HN  UNK N   1      35.339  13.402  21.011  1.00  0.00     0.186 HD
HETATM    4  C   UNK N   1      35.227  12.814  17.926  0.00  0.00     0.028 A 
HETATM    5  C   UNK N   1      35.342  11.526  18.412  0.00  0.00     0.045 A 
HETATM    6  C   UNK N   1      35.399  11.685  19.786  0.00  0.00     0.109 A 
HETATM    7  H   UNK N   1      35.144  14.661  18.870  0.00  0.00     0.186 HD
ENDROOT
BRANCH   4   8
HETATM    8  C   UNK N   1      35.125  13.242  16.494  0.00  0.00     0.077 C 
BRANCH   8   9
HETATM    9  C   UNK N   1      36.275  12.742  15.639  0.00  0.00     0.117 C 
BRANCH   9  10
HETATM   10  N   UNK N   1      37.101  13.869  15.249  0.00  0.00    -0.430 N 
HETATM   11  H   UNK N   1      36.754  14.821  15.369  0.00  0.00     0.149 HD
HETATM   12  H   UNK N   1      38.029  13.709  14.856  0.00  0.00     0.149 HD
ENDBRANCH   9  10
ENDBRANCH   8   9
ENDBRANCH   4   8
TORSDOF 3
ENDMDL
MODEL 5
REMARK VINA RESULT:      -3.7      1.915      3.237
REMARK  3 active torsions:
REMARK  status: ('A' for Active; 'I' for Inactive)
REMARK    1  A    between atoms: N_2  and  C_7 
REMARK    2  A    between atoms: C_5  and  C_6 
REMARK    3  A    between atoms: C_5  and  C_7 
ROOT
HETATM    1  N   UNK N   1      21.450  11.881  11.738  0.00  0.00    -0.305 N 
HETATM    2  N   UNK N   1      22.432  11.523  12.549  0.00  0.00    -0.312 N 
ATOM      3  HN  UNK N   1      22.316  11.074  13.457  1.00  0.00     0.186 HD
HETATM    4  C   UNK N   1      21.989  12.438  10.645  0.00  0.00     0.028 A 
HETATM    5  C   UNK N   1      23.366  12.438  10.754  0.00  0.00     0.045 A 
HETATM    6  C   UNK N   1      23.610  11.847  11.981  0.00  0.00     0.109 A 
HETATM    7  H   UNK N   1      20.488  11.760  11.909  0.00  0.00     0.186 HD
ENDROOT
BRANCH   4   8
HETATM    8  C   UNK N   1      21.164  12.961   9.509  0.00  0.00     0.077 C 
BRANCH   8   9
HETATM    9  C   UNK N   1      21.206  14.473   9.388  0.00  0.00     0.117 C 
BRANCH   9  10
HETATM   10  N   UNK N   1      19.849  14.981   9.322  0.00  0.00    -0.430 N 
HETATM   11  H   UNK N   1      19.293  15.065  10.173  0.00  0.00     0.149 HD
HETATM   12  H   UNK N   1      19.450  15.255   8.422  0.00  0.00     0.149 HD
ENDBRANCH   9  10
ENDBRANCH   8   9
ENDBRANCH   4   8
TORSDOF 3
ENDMDL
MODEL 6
REMARK VINA RESULT:      -3.7     21.301     21.756
REMARK  3 active torsions:
REMARK  status: ('A' for Active; 'I' for Inactive)
REMARK    1  A    between atoms: N_2  and  C_7 
REMARK    2  A    between atoms: C_5  and  C_6 
REMARK    3  A    between atoms: C_5  and  C_7 
ROOT
HETATM    1  N   UNK N   1      25.624  27.759  -3.275  0.00  0.00    -0.305 N 
HETATM    2  N   UNK N   1      26.538  28.542  -2.728  0.00  0.00    -0.312 N 
ATOM      3  HN  UNK N   1      26.714  28.637  -1.727  1.00  0.00     0.186 HD
HETATM    4  C   UNK N   1      25.690  27.901  -4.606  0.00  0.00     0.028 A 
HETATM    5  C   UNK N   1      26.681  28.808  -4.928  0.00  0.00     0.045 A 
HETATM    6  C   UNK N   1      27.199  29.194  -3.704  0.00  0.00     0.109 A 
HETATM    7  H   UNK N   1      25.002  27.171  -2.788  0.00  0.00     0.186 HD
ENDROOT
BRANCH   4   8
HETATM    8  C   UNK N   1      24.793  27.158  -5.548  0.00  0.00     0.077 C 
BRANCH   8   9
HETATM    9  C   UNK N   1      25.484  25.995  -6.237  0.00  0.00     0.117 C 
BRANCH   9  10
HETATM   10  N   UNK N   1      25.195  24.774  -5.508  0.00  0.00    -0.430 N 
HETATM   11  H   UNK N   1      24.803  24.822  -4.567  0.00  0.00     0.149 HD
HETATM   12  H   UNK N   1      25.385  23.867  -5.937  0.00  0.00     0.149 HD
ENDBRANCH   9  10
ENDBRANCH   8   9
ENDBRANCH   4   8
TORSDOF 3
ENDMDL
MODEL 7
REMARK VINA RESULT:      -3.7     10.680     11.120
REMARK  3 active torsions:
REMARK  status: ('A' for Active; 'I' for Inactive)
REMARK    1  A    between atoms: N_2  and  C_7 
REMARK    2  A    between atoms: C_5  and  C_6 
REMARK    3  A    between atoms: C_5  and  C_7 
ROOT
HETATM    1  N   UNK N   1      19.256  17.649   1.549  0.00  0.00    -0.305 N 
HETATM    2  N   UNK N   1      19.529  16.356   1.584  0.00  0.00    -0.312 N 
ATOM      3  HN  UNK N   1      19.024  15.630   1.074  1.00  0.00     0.186 HD
HETATM    4  C   UNK N   1      20.129  18.285   2.342  0.00  0.00     0.028 A 
HETATM    5  C   UNK N   1      20.995  17.370   2.908  0.00  0.00     0.045 A 
HETATM    6  C   UNK N   1      20.581  16.151   2.400  0.00  0.00     0.109 A 
HETATM    7  H   UNK N   1      18.535  18.073   1.029  0.00  0.00     0.186 HD
ENDROOT
BRANCH   4   8
HETATM    8  C   UNK N   1      20.113  19.770   2.541  0.00  0.00     0.077 C 
BRANCH   8   9
HETATM    9  C   UNK N   1      21.100  20.502   1.651  0.00  0.00     0.117 C 
BRANCH   9  10
HETATM   10  N   UNK N   1      20.429  20.901   0.427  0.00  0.00    -0.430 N 
HETATM   11  H   UNK N   1      19.749  20.277  -0.008  0.00  0.00     0.149 HD
HETATM   12  H   UNK N   1      20.639  21.805   0.003  0.00  0.00     0.149 HD
ENDBRANCH   9  10
ENDBRANCH   8   9
ENDBRANCH   4   8
TORSDOF 3
ENDMDL
MODEL 8
REMARK VINA RESULT:      -3.7      8.021      9.426
REMARK  3 active torsions:
REMARK  status: ('A' for Active; 'I' for Inactive)
REMARK    1  A    between atoms: N_2  and  C_7 
REMARK    2  A    between atoms: C_5  and  C_6 
REMARK    3  A    between atoms: C_5  and  C_7 
ROOT
HETATM    1  N   UNK N   1      27.321  19.482   8.355  0.00  0.00    -0.305 N 
HETATM    2  N   UNK N   1      27.691  18.412   9.038  0.00  0.00    -0.312 N 
ATOM      3  HN  UNK N   1      27.427  18.203  10.001  1.00  0.00     0.186 HD
HETATM    4  C   UNK N   1      27.861  19.409   7.131  0.00  0.00     0.028 A 
HETATM    5  C   UNK N   1      28.607  18.251   7.021  0.00  0.00     0.045 A 
HETATM    6  C   UNK N   1      28.474  17.643   8.257  0.00  0.00     0.109 A 
HETATM    7  H   UNK N   1      26.745  20.208   8.689  0.00  0.00     0.186 HD
ENDROOT
BRANCH   4   8
HETATM    8  C   UNK N   1      27.649  20.460   6.086  0.00  0.00     0.077 C 
BRANCH   8   9
HETATM    9  C   UNK N   1      26.891  19.952   4.874  0.00  0.00     0.117 C 
BRANCH   9  10
HETATM   10  N   UNK N   1      27.820  19.775   3.773  0.00  0.00    -0.430 N 
HETATM   11  H   UNK N   1      28.130  20.582   3.232  0.00  0.00     0.149 HD
HETATM   12  H   UNK N   1      28.164  18.842   3.541  0.00  0.00     0.149 HD
ENDBRANCH   9  10
ENDBRANCH   8   9
ENDBRANCH   4   8
TORSDOF 3
ENDMDL
MODEL 9
REMARK VINA RESULT:      -3.6      8.487     10.306
REMARK  3 active torsions:
REMARK  status: ('A' for Active; 'I' for Inactive)
REMARK    1  A    between atoms: N_2  and  C_7 
REMARK    2  A    between atoms: C_5  and  C_6 
REMARK    3  A    between atoms: C_5  and  C_7 
ROOT
HETATM    1  N   UNK N   1      31.574  16.373   9.332  0.00  0.00    -0.305 N 
HETATM    2  N   UNK N   1      32.884  16.225   9.435  0.00  0.00    -0.312 N 
ATOM      3  HN  UNK N   1      33.357  15.491   9.963  1.00  0.00     0.186 HD
HETATM    4  C   UNK N   1      31.331  17.442   8.561  0.00  0.00     0.028 A 
HETATM    5  C   UNK N   1      32.525  18.003   8.154  0.00  0.00     0.045 A 
HETATM    6  C   UNK N   1      33.493  17.199   8.731  0.00  0.00     0.109 A 
HETATM    7  H   UNK N   1      30.894  15.796   9.750  0.00  0.00     0.186 HD
ENDROOT
BRANCH   4   8
HETATM    8  C   UNK N   1      29.946  17.906   8.231  0.00  0.00     0.077 C 
BRANCH   8   9
HETATM    9  C   UNK N   1      29.137  18.293   9.456  0.00  0.00     0.117 C 
BRANCH   9  10
HETATM   10  N   UNK N   1      27.750  18.477   9.070  0.00  0.00    -0.430 N 
HETATM   11  H   UNK N   1      27.518  18.740   8.112  0.00  0.00     0.149 HD
HETATM   12  H   UNK N   1      27.008  18.343   9.757  0.00  0.00     0.149 HD
ENDBRANCH   9  10
ENDBRANCH   8   9
ENDBRANCH   4   8
TORSDOF 3
ENDMDL
