MODEL 1
REMARK VINA RESULT:      -6.1      0.000      0.000
REMARK  4 active torsions:
REMARK  status: ('A' for Active; 'I' for Inactive)
REMARK    1  A    between atoms: S_1  and  O_7 
REMARK    2  A    between atoms: S_1  and  N_10 
REMARK    3  A    between atoms: O_7  and  C_18 
REMARK    4  A    between atoms: C_13  and  C_18 
ROOT
HETATM    1  O   UNK N   1      31.921  14.416   7.345  0.00  0.00    -0.342 OA
HETATM    2  O   UNK N   1      32.966  17.799   6.924  0.00  0.00    -0.348 OA
HETATM    3  O   UNK N   1      32.014  16.091   5.716  0.00  0.00    -0.315 OA
HETATM    4  O   UNK N   1      34.451  14.535   8.844  0.00  0.00    -0.345 OA
HETATM    5  O   UNK N   1      34.760  16.638   9.795  0.00  0.00    -0.346 OA
HETATM    6  C   UNK N   1      32.464  15.574   7.905  0.00  0.00     0.221 C 
HETATM    7  C   UNK N   1      34.004  15.503   7.942  0.00  0.00     0.191 C 
HETATM    8  C   UNK N   1      32.040  16.706   6.969  0.00  0.00     0.219 C 
HETATM    9  C   UNK N   1      34.574  16.816   8.430  0.00  0.00     0.180 C 
HETATM   10  C   UNK N   1      33.599  17.971   8.172  0.00  0.00     0.206 C 
HETATM   11  C   UNK N   1      31.772  14.716   5.971  0.00  0.00     0.161 C 
HETATM   12  C   UNK N   1      34.987  15.253   9.938  0.00  0.00     0.158 C 
HETATM   13  C   UNK N   1      30.362  14.366   5.531  0.00  0.00     0.078 C 
HETATM   14  C   UNK N   1      32.754  13.878   5.169  0.00  0.00     0.078 C 
HETATM   15  C   UNK N   1      36.481  14.986  10.031  0.00  0.00     0.078 C 
HETATM   16  C   UNK N   1      34.322  14.781  11.215  0.00  0.00     0.078 C 
ENDROOT
BRANCH   8  17
HETATM   17  C   UNK N   1      30.616  17.192   7.306  0.00  0.00     0.263 C 
BRANCH  17  18
HETATM   18  O   UNK N   1      30.270  16.978   8.652  0.00  0.00    -0.254 OA
BRANCH  18  19
HETATM   19  S   UNK N   1      29.471  18.402   9.206  0.00  0.00     0.355 S 
HETATM   20  O   UNK N   1      29.047  18.188   7.744  0.00  0.00    -0.176 OA
HETATM   21  O   UNK N   1      28.934  17.198   9.997  0.00  0.00    -0.176 OA
BRANCH  19  22
HETATM   22  N   UNK N   1      27.709  18.483   9.158  0.00  0.00    -0.306 N 
HETATM   23  H   UNK N   1      27.171  18.408  10.020  0.00  0.00     0.171 HD
HETATM   24  H   UNK N   1      27.229  18.604   8.266  0.00  0.00     0.171 HD
ENDBRANCH  19  22
ENDBRANCH  18  19
ENDBRANCH  17  18
ENDBRANCH   8  17
TORSDOF 4
ENDMDL
MODEL 2
REMARK VINA RESULT:      -6.1     11.275     12.629
REMARK  4 active torsions:
REMARK  status: ('A' for Active; 'I' for Inactive)
REMARK    1  A    between atoms: S_1  and  O_7 
REMARK    2  A    between atoms: S_1  and  N_10 
REMARK    3  A    between atoms: O_7  and  C_18 
REMARK    4  A    between atoms: C_13  and  C_18 
ROOT
HETATM    1  O   UNK N   1      19.441  15.901   3.871  0.00  0.00    -0.342 OA
HETATM    2  O   UNK N   1      22.441  17.667   4.639  0.00  0.00    -0.348 OA
HETATM    3  O   UNK N   1      21.547  16.365   2.968  0.00  0.00    -0.315 OA
HETATM    4  O   UNK N   1      19.836  15.351   6.734  0.00  0.00    -0.345 OA
HETATM    5  O   UNK N   1      20.844  17.160   7.800  0.00  0.00    -0.346 OA
HETATM    6  C   UNK N   1      20.148  16.722   4.751  0.00  0.00     0.221 C 
HETATM    7  C   UNK N   1      20.797  15.894   5.880  0.00  0.00     0.191 C 
HETATM    8  C   UNK N   1      21.250  17.358   3.904  0.00  0.00     0.219 C 
HETATM    9  C   UNK N   1      21.663  16.782   6.744  0.00  0.00     0.180 C 
HETATM   10  C   UNK N   1      22.133  18.019   5.968  0.00  0.00     0.206 C 
HETATM   11  C   UNK N   1      20.364  15.591   2.846  0.00  0.00     0.161 C 
HETATM   12  C   UNK N   1      19.938  16.087   7.938  0.00  0.00     0.158 C 
HETATM   13  C   UNK N   1      19.725  15.864   1.496  0.00  0.00     0.078 C 
HETATM   14  C   UNK N   1      20.721  14.116   2.926  0.00  0.00     0.078 C 
HETATM   15  C   UNK N   1      20.401  15.165   9.055  0.00  0.00     0.078 C 
HETATM   16  C   UNK N   1      18.575  16.646   8.295  0.00  0.00     0.078 C 
ENDROOT
BRANCH   8  17
HETATM   17  C   UNK N   1      20.719  18.596   3.154  0.00  0.00     0.263 C 
BRANCH  17  18
HETATM   18  O   UNK N   1      21.747  19.423   2.668  0.00  0.00    -0.254 OA
BRANCH  18  19
HETATM   19  S   UNK N   1      21.015  20.891   2.139  0.00  0.00     0.355 S 
HETATM   20  O   UNK N   1      22.124  20.552   1.130  0.00  0.00    -0.176 OA
HETATM   21  O   UNK N   1      19.976  19.762   2.042  0.00  0.00    -0.176 OA
BRANCH  19  22
HETATM   22  N   UNK N   1      20.297  20.971   0.529  0.00  0.00    -0.306 N 
HETATM   23  H   UNK N   1      20.286  20.143  -0.067  0.00  0.00     0.171 HD
HETATM   24  H   UNK N   1      19.893  21.845   0.194  0.00  0.00     0.171 HD
ENDBRANCH  19  22
ENDBRANCH  18  19
ENDBRANCH  17  18
ENDBRANCH   8  17
TORSDOF 4
ENDMDL
MODEL 3
REMARK VINA RESULT:      -5.9      3.497      6.251
REMARK  4 active torsions:
REMARK  status: ('A' for Active; 'I' for Inactive)
REMARK    1  A    between atoms: S_1  and  O_7 
REMARK    2  A    between atoms: S_1  and  N_10 
REMARK    3  A    between atoms: O_7  and  C_18 
REMARK    4  A    between atoms: C_13  and  C_18 
ROOT
HETATM    1  O   UNK N   1      30.590  16.788   3.392  0.00  0.00    -0.342 OA
HETATM    2  O   UNK N   1      30.359  16.426   6.932  0.00  0.00    -0.348 OA
HETATM    3  O   UNK N   1      31.237  15.337   5.107  0.00  0.00    -0.315 OA
HETATM    4  O   UNK N   1      27.836  17.640   3.982  0.00  0.00    -0.345 OA
HETATM    5  O   UNK N   1      27.708  18.669   6.068  0.00  0.00    -0.346 OA
HETATM    6  C   UNK N   1      30.157  17.301   4.616  0.00  0.00     0.221 C 
HETATM    7  C   UNK N   1      28.674  16.960   4.867  0.00  0.00     0.191 C 
HETATM    8  C   UNK N   1      31.014  16.596   5.668  0.00  0.00     0.219 C 
HETATM    9  C   UNK N   1      28.264  17.409   6.252  0.00  0.00     0.180 C 
HETATM   10  C   UNK N   1      29.477  17.494   7.186  0.00  0.00     0.206 C 
HETATM   11  C   UNK N   1      31.136  15.522   3.703  0.00  0.00     0.161 C 
HETATM   12  C   UNK N   1      27.189  18.632   4.756  0.00  0.00     0.158 C 
HETATM   13  C   UNK N   1      32.517  15.404   3.083  0.00  0.00     0.078 C 
HETATM   14  C   UNK N   1      30.246  14.438   3.119  0.00  0.00     0.078 C 
HETATM   15  C   UNK N   1      25.697  18.340   4.805  0.00  0.00     0.078 C 
HETATM   16  C   UNK N   1      27.406  19.985   4.110  0.00  0.00     0.078 C 
ENDROOT
BRANCH   8  17
HETATM   17  C   UNK N   1      32.373  17.306   5.833  0.00  0.00     0.263 C 
BRANCH  17  18
HETATM   18  O   UNK N   1      33.132  16.791   6.900  0.00  0.00    -0.254 OA
BRANCH  18  19
HETATM   19  S   UNK N   1      33.380  18.078   8.019  0.00  0.00     0.355 S 
HETATM   20  O   UNK N   1      33.463  16.766   8.816  0.00  0.00    -0.176 OA
HETATM   21  O   UNK N   1      34.552  18.061   7.023  0.00  0.00    -0.176 OA
BRANCH  19  22
HETATM   22  N   UNK N   1      34.872  18.135   8.959  0.00  0.00    -0.306 N 
HETATM   23  H   UNK N   1      35.163  17.324   9.504  0.00  0.00     0.171 HD
HETATM   24  H   UNK N   1      35.444  18.979   8.957  0.00  0.00     0.171 HD
ENDBRANCH  19  22
ENDBRANCH  18  19
ENDBRANCH  17  18
ENDBRANCH   8  17
TORSDOF 4
ENDMDL
MODEL 4
REMARK VINA RESULT:      -5.9      9.944     12.562
REMARK  4 active torsions:
REMARK  status: ('A' for Active; 'I' for Inactive)
REMARK    1  A    between atoms: S_1  and  O_7 
REMARK    2  A    between atoms: S_1  and  N_10 
REMARK    3  A    between atoms: O_7  and  C_18 
REMARK    4  A    between atoms: C_13  and  C_18 
ROOT
HETATM    1  O   UNK N   1      22.831  15.584   5.494  0.00  0.00    -0.342 OA
HETATM    2  O   UNK N   1      19.422  14.540   5.527  0.00  0.00    -0.348 OA
HETATM    3  O   UNK N   1      21.529  13.669   5.821  0.00  0.00    -0.315 OA
HETATM    4  O   UNK N   1      21.652  17.046   3.228  0.00  0.00    -0.345 OA
HETATM    5  O   UNK N   1      19.426  17.586   3.650  0.00  0.00    -0.346 OA
HETATM    6  C   UNK N   1      21.481  15.919   5.375  0.00  0.00     0.221 C 
HETATM    7  C   UNK N   1      21.052  15.976   3.894  0.00  0.00     0.191 C 
HETATM    8  C   UNK N   1      20.726  14.785   6.068  0.00  0.00     0.219 C 
HETATM    9  C   UNK N   1      19.561  16.211   3.794  0.00  0.00     0.180 C 
HETATM   10  C   UNK N   1      18.840  15.735   5.061  0.00  0.00     0.206 C 
HETATM   11  C   UNK N   1      22.842  14.178   5.639  0.00  0.00     0.161 C 
HETATM   12  C   UNK N   1      20.620  17.989   3.013  0.00  0.00     0.158 C 
HETATM   13  C   UNK N   1      23.693  13.804   6.840  0.00  0.00     0.078 C 
HETATM   14  C   UNK N   1      23.453  13.553   4.396  0.00  0.00     0.078 C 
HETATM   15  C   UNK N   1      20.377  18.138   1.520  0.00  0.00     0.078 C 
HETATM   16  C   UNK N   1      21.044  19.328   3.580  0.00  0.00     0.078 C 
ENDROOT
BRANCH   8  17
HETATM   17  C   UNK N   1      20.666  15.017   7.592  0.00  0.00     0.263 C 
BRANCH  17  18
HETATM   18  O   UNK N   1      20.121  13.924   8.289  0.00  0.00    -0.254 OA
BRANCH  18  19
HETATM   19  S   UNK N   1      20.913  13.847   9.818  0.00  0.00     0.355 S 
HETATM   20  O   UNK N   1      19.403  13.913  10.097  0.00  0.00    -0.176 OA
HETATM   21  O   UNK N   1      21.163  12.528   9.069  0.00  0.00    -0.176 OA
BRANCH  19  22
HETATM   22  N   UNK N   1      20.531  12.530  10.928  0.00  0.00    -0.306 N 
HETATM   23  H   UNK N   1      19.823  12.660  11.650  0.00  0.00     0.171 HD
HETATM   24  H   UNK N   1      21.018  11.638  10.847  0.00  0.00     0.171 HD
ENDBRANCH  19  22
ENDBRANCH  18  19
ENDBRANCH  17  18
ENDBRANCH   8  17
TORSDOF 4
ENDMDL
MODEL 5
REMARK VINA RESULT:      -5.9      4.159      6.087
REMARK  4 active torsions:
REMARK  status: ('A' for Active; 'I' for Inactive)
REMARK    1  A    between atoms: S_1  and  O_7 
REMARK    2  A    between atoms: S_1  and  N_10 
REMARK    3  A    between atoms: O_7  and  C_18 
REMARK    4  A    between atoms: C_13  and  C_18 
ROOT
HETATM    1  O   UNK N   1      35.748  11.863  10.294  0.00  0.00    -0.342 OA
HETATM    2  O   UNK N   1      36.485  15.092  11.613  0.00  0.00    -0.348 OA
HETATM    3  O   UNK N   1      37.060  13.744   9.842  0.00  0.00    -0.315 OA
HETATM    4  O   UNK N   1      35.892  11.392  13.195  0.00  0.00    -0.345 OA
HETATM    5  O   UNK N   1      35.154  13.256  14.381  0.00  0.00    -0.346 OA
HETATM    6  C   UNK N   1      35.517  12.831  11.272  0.00  0.00     0.221 C 
HETATM    7  C   UNK N   1      36.341  12.542  12.544  0.00  0.00     0.191 C 
HETATM    8  C   UNK N   1      35.997  14.144  10.655  0.00  0.00     0.219 C 
HETATM    9  C   UNK N   1      36.177  13.670  13.537  0.00  0.00     0.180 C 
HETATM   10  C   UNK N   1      35.788  14.975  12.832  0.00  0.00     0.206 C 
HETATM   11  C   UNK N   1      36.791  12.392   9.501  0.00  0.00     0.161 C 
HETATM   12  C   UNK N   1      35.238  11.847  14.364  0.00  0.00     0.158 C 
HETATM   13  C   UNK N   1      36.398  12.315   8.036  0.00  0.00     0.078 C 
HETATM   14  C   UNK N   1      38.047  11.564   9.711  0.00  0.00     0.078 C 
HETATM   15  C   UNK N   1      36.001  11.365  15.588  0.00  0.00     0.078 C 
HETATM   16  C   UNK N   1      33.835  11.277  14.401  0.00  0.00     0.078 C 
ENDROOT
BRANCH   8  17
HETATM   17  C   UNK N   1      34.904  14.763   9.762  0.00  0.00     0.263 C 
BRANCH  17  18
HETATM   18  O   UNK N   1      35.390  15.795   8.939  0.00  0.00    -0.254 OA
BRANCH  18  19
HETATM   19  S   UNK N   1      34.208  17.050   8.942  0.00  0.00     0.355 S 
HETATM   20  O   UNK N   1      35.362  17.515   9.846  0.00  0.00    -0.176 OA
HETATM   21  O   UNK N   1      34.787  16.925   7.524  0.00  0.00    -0.176 OA
BRANCH  19  22
HETATM   22  N   UNK N   1      34.663  18.671   8.413  0.00  0.00    -0.306 N 
HETATM   23  H   UNK N   1      34.827  19.405   9.100  0.00  0.00     0.171 HD
HETATM   24  H   UNK N   1      34.761  18.873   7.418  0.00  0.00     0.171 HD
ENDBRANCH  19  22
ENDBRANCH  18  19
ENDBRANCH  17  18
ENDBRANCH   8  17
TORSDOF 4
ENDMDL
MODEL 6
REMARK VINA RESULT:      -5.9     15.049     17.160
REMARK  4 active torsions:
REMARK  status: ('A' for Active; 'I' for Inactive)
REMARK    1  A    between atoms: S_1  and  O_7 
REMARK    2  A    between atoms: S_1  and  N_10 
REMARK    3  A    between atoms: O_7  and  C_18 
REMARK    4  A    between atoms: C_13  and  C_18 
ROOT
HETATM    1  O   UNK N   1      29.423  24.061  -5.526  0.00  0.00    -0.342 OA
HETATM    2  O   UNK N   1      26.324  24.707  -3.885  0.00  0.00    -0.348 OA
HETATM    3  O   UNK N   1      28.518  24.244  -3.378  0.00  0.00    -0.315 OA
HETATM    4  O   UNK N   1      27.472  22.578  -7.155  0.00  0.00    -0.345 OA
HETATM    5  O   UNK N   1      25.412  23.664  -7.184  0.00  0.00    -0.346 OA
HETATM    6  C   UNK N   1      28.065  24.370  -5.623  0.00  0.00     0.221 C 
HETATM    7  C   UNK N   1      27.225  23.102  -5.885  0.00  0.00     0.191 C 
HETATM    8  C   UNK N   1      27.688  24.943  -4.257  0.00  0.00     0.219 C 
HETATM    9  C   UNK N   1      25.752  23.439  -5.856  0.00  0.00     0.180 C 
HETATM   10  C   UNK N   1      25.489  24.699  -5.020  0.00  0.00     0.206 C 
HETATM   11  C   UNK N   1      29.650  23.863  -4.145  0.00  0.00     0.161 C 
HETATM   12  C   UNK N   1      26.312  22.860  -7.915  0.00  0.00     0.158 C 
HETATM   13  C   UNK N   1      30.849  24.686  -3.709  0.00  0.00     0.078 C 
HETATM   14  C   UNK N   1      29.951  22.394  -3.895  0.00  0.00     0.078 C 
HETATM   15  C   UNK N   1      25.635  21.555  -8.302  0.00  0.00     0.078 C 
HETATM   16  C   UNK N   1      26.712  23.601  -9.175  0.00  0.00     0.078 C 
ENDROOT
BRANCH   8  17
HETATM   17  C   UNK N   1      28.039  26.442  -4.175  0.00  0.00     0.263 C 
BRANCH  17  18
HETATM   18  O   UNK N   1      27.215  27.148  -3.280  0.00  0.00    -0.254 OA
BRANCH  18  19
HETATM   19  S   UNK N   1      26.463  28.418  -4.171  0.00  0.00     0.355 S 
HETATM   20  O   UNK N   1      25.496  28.027  -3.042  0.00  0.00    -0.176 OA
HETATM   21  O   UNK N   1      27.726  28.975  -3.493  0.00  0.00    -0.176 OA
BRANCH  19  22
HETATM   22  N   UNK N   1      26.004  29.906  -3.340  0.00  0.00    -0.306 N 
HETATM   23  H   UNK N   1      25.185  30.429  -3.647  0.00  0.00     0.171 HD
HETATM   24  H   UNK N   1      26.558  30.241  -2.553  0.00  0.00     0.171 HD
ENDBRANCH  19  22
ENDBRANCH  18  19
ENDBRANCH  17  18
ENDBRANCH   8  17
TORSDOF 4
ENDMDL
MODEL 7
REMARK VINA RESULT:      -5.8      6.086      8.712
REMARK  4 active torsions:
REMARK  status: ('A' for Active; 'I' for Inactive)
REMARK    1  A    between atoms: S_1  and  O_7 
REMARK    2  A    between atoms: S_1  and  N_10 
REMARK    3  A    between atoms: O_7  and  C_18 
REMARK    4  A    between atoms: C_13  and  C_18 
ROOT
HETATM    1  O   UNK N   1      37.250  12.551  15.104  0.00  0.00    -0.342 OA
HETATM    2  O   UNK N   1      34.673  12.256  12.658  0.00  0.00    -0.348 OA
HETATM    3  O   UNK N   1      35.320  13.648  14.369  0.00  0.00    -0.315 OA
HETATM    4  O   UNK N   1      36.657   9.669  15.090  0.00  0.00    -0.345 OA
HETATM    5  O   UNK N   1      36.025   8.957  12.964  0.00  0.00    -0.346 OA
HETATM    6  C   UNK N   1      36.707  11.853  14.024  0.00  0.00     0.221 C 
HETATM    7  C   UNK N   1      35.861  10.656  14.506  0.00  0.00     0.191 C 
HETATM    8  C   UNK N   1      35.793  12.856  13.320  0.00  0.00     0.219 C 
HETATM    9  C   UNK N   1      35.178   9.995  13.331  0.00  0.00     0.180 C 
HETATM   10  C   UNK N   1      35.008  10.979  12.166  0.00  0.00     0.206 C 
HETATM   11  C   UNK N   1      36.314  13.575  15.380  0.00  0.00     0.161 C 
HETATM   12  C   UNK N   1      36.677   8.600  14.164  0.00  0.00     0.158 C 
HETATM   13  C   UNK N   1      37.038  14.906  15.466  0.00  0.00     0.078 C 
HETATM   14  C   UNK N   1      35.648  13.295  16.716  0.00  0.00     0.078 C 
HETATM   15  C   UNK N   1      35.993   7.389  14.777  0.00  0.00     0.078 C 
HETATM   16  C   UNK N   1      38.116   8.245  13.847  0.00  0.00     0.078 C 
ENDROOT
BRANCH   8  17
HETATM   17  C   UNK N   1      36.600  13.750  12.357  0.00  0.00     0.263 C 
BRANCH  17  18
HETATM   18  O   UNK N   1      36.037  15.029  12.198  0.00  0.00    -0.254 OA
BRANCH  18  19
HETATM   19  S   UNK N   1      35.504  15.153  10.563  0.00  0.00     0.355 S 
HETATM   20  O   UNK N   1      34.252  15.227  11.451  0.00  0.00    -0.176 OA
HETATM   21  O   UNK N   1      36.352  16.392  10.899  0.00  0.00    -0.176 OA
BRANCH  19  22
HETATM   22  N   UNK N   1      34.588  16.574  10.055  0.00  0.00    -0.306 N 
HETATM   23  H   UNK N   1      33.622  16.693  10.358  0.00  0.00     0.171 HD
HETATM   24  H   UNK N   1      35.026  17.275   9.458  0.00  0.00     0.171 HD
ENDBRANCH  19  22
ENDBRANCH  18  19
ENDBRANCH  17  18
ENDBRANCH   8  17
TORSDOF 4
ENDMDL
MODEL 8
REMARK VINA RESULT:      -5.7      3.007      5.732
REMARK  4 active torsions:
REMARK  status: ('A' for Active; 'I' for Inactive)
REMARK    1  A    between atoms: S_1  and  O_7 
REMARK    2  A    between atoms: S_1  and  N_10 
REMARK    3  A    between atoms: O_7  and  C_18 
REMARK    4  A    between atoms: C_13  and  C_18 
ROOT
HETATM    1  O   UNK N   1      32.604  16.932   9.141  0.00  0.00    -0.342 OA
HETATM    2  O   UNK N   1      31.973  15.219   6.078  0.00  0.00    -0.348 OA
HETATM    3  O   UNK N   1      33.734  16.082   7.279  0.00  0.00    -0.315 OA
HETATM    4  O   UNK N   1      30.147  18.209   8.145  0.00  0.00    -0.345 OA
HETATM    5  O   UNK N   1      28.834  16.687   6.969  0.00  0.00    -0.346 OA
HETATM    6  C   UNK N   1      31.685  16.331   8.280  0.00  0.00     0.221 C 
HETATM    7  C   UNK N   1      30.985  17.383   7.394  0.00  0.00     0.191 C 
HETATM    8  C   UNK N   1      32.516  15.406   7.391  0.00  0.00     0.219 C 
HETATM    9  C   UNK N   1      30.093  16.700   6.382  0.00  0.00     0.180 C 
HETATM   10  C   UNK N   1      30.565  15.266   6.108  0.00  0.00     0.206 C 
HETATM   11  C   UNK N   1      33.835  16.881   8.447  0.00  0.00     0.161 C 
HETATM   12  C   UNK N   1      28.829  17.823   7.807  0.00  0.00     0.158 C 
HETATM   13  C   UNK N   1      34.902  16.301   9.359  0.00  0.00     0.078 C 
HETATM   14  C   UNK N   1      34.245  18.291   8.055  0.00  0.00     0.078 C 
HETATM   15  C   UNK N   1      28.131  18.976   7.103  0.00  0.00     0.078 C 
HETATM   16  C   UNK N   1      28.070  17.487   9.075  0.00  0.00     0.078 C 
ENDROOT
BRANCH   8  17
HETATM   17  C   UNK N   1      32.769  14.055   8.090  0.00  0.00     0.263 C 
BRANCH  17  18
HETATM   18  O   UNK N   1      33.917  13.399   7.612  0.00  0.00    -0.254 OA
BRANCH  18  19
HETATM   19  S   UNK N   1      33.999  11.870   8.403  0.00  0.00     0.355 S 
HETATM   20  O   UNK N   1      33.780  12.931   9.494  0.00  0.00    -0.176 OA
HETATM   21  O   UNK N   1      32.747  11.895   7.511  0.00  0.00    -0.176 OA
BRANCH  19  22
HETATM   22  N   UNK N   1      32.638  11.330   9.389  0.00  0.00    -0.306 N 
HETATM   23  H   UNK N   1      32.120  12.001   9.955  0.00  0.00     0.171 HD
HETATM   24  H   UNK N   1      32.371  10.346   9.392  0.00  0.00     0.171 HD
ENDBRANCH  19  22
ENDBRANCH  18  19
ENDBRANCH  17  18
ENDBRANCH   8  17
TORSDOF 4
ENDMDL
MODEL 9
REMARK VINA RESULT:      -5.7      4.157      6.555
REMARK  4 active torsions:
REMARK  status: ('A' for Active; 'I' for Inactive)
REMARK    1  A    between atoms: S_1  and  O_7 
REMARK    2  A    between atoms: S_1  and  N_10 
REMARK    3  A    between atoms: O_7  and  C_18 
REMARK    4  A    between atoms: C_13  and  C_18 
ROOT
HETATM    1  O   UNK N   1      37.220  14.934   9.395  0.00  0.00    -0.342 OA
HETATM    2  O   UNK N   1      34.086  13.703  10.568  0.00  0.00    -0.348 OA
HETATM    3  O   UNK N   1      36.224  12.962  10.160  0.00  0.00    -0.315 OA
HETATM    4  O   UNK N   1      35.271  16.251   7.627  0.00  0.00    -0.345 OA
HETATM    5  O   UNK N   1      33.278  16.680   8.755  0.00  0.00    -0.346 OA
HETATM    6  C   UNK N   1      35.888  15.189   9.725  0.00  0.00     0.221 C 
HETATM    7  C   UNK N   1      34.992  15.172   8.469  0.00  0.00     0.191 C 
HETATM    8  C   UNK N   1      35.478  14.039  10.644  0.00  0.00     0.219 C 
HETATM    9  C   UNK N   1      33.540  15.320   8.864  0.00  0.00     0.180 C 
HETATM   10  C   UNK N   1      33.309  14.848  10.305  0.00  0.00     0.206 C 
HETATM   11  C   UNK N   1      37.368  13.536   9.547  0.00  0.00     0.161 C 
HETATM   12  C   UNK N   1      34.167  17.127   7.753  0.00  0.00     0.158 C 
HETATM   13  C   UNK N   1      38.589  13.251  10.403  0.00  0.00     0.078 C 
HETATM   14  C   UNK N   1      37.574  12.905   8.181  0.00  0.00     0.078 C 
HETATM   15  C   UNK N   1      33.437  17.212   6.422  0.00  0.00     0.078 C 
HETATM   16  C   UNK N   1      34.668  18.506   8.130  0.00  0.00     0.078 C 
ENDROOT
BRANCH   8  17
HETATM   17  C   UNK N   1      35.908  14.318  12.098  0.00  0.00     0.263 C 
BRANCH  17  18
HETATM   18  O   UNK N   1      34.995  13.817  13.043  0.00  0.00    -0.254 OA
BRANCH  18  19
HETATM   19  S   UNK N   1      35.896  12.884  14.179  0.00  0.00     0.355 S 
HETATM   20  O   UNK N   1      36.439  14.321  14.245  0.00  0.00    -0.176 OA
HETATM   21  O   UNK N   1      34.433  12.948  14.647  0.00  0.00    -0.176 OA
BRANCH  19  22
HETATM   22  N   UNK N   1      35.906  13.360  15.878  0.00  0.00    -0.306 N 
HETATM   23  H   UNK N   1      36.719  13.161  16.460  0.00  0.00     0.171 HD
HETATM   24  H   UNK N   1      35.096  13.834  16.279  0.00  0.00     0.171 HD
ENDBRANCH  19  22
ENDBRANCH  18  19
ENDBRANCH  17  18
ENDBRANCH   8  17
TORSDOF 4
ENDMDL
