MODEL 1
REMARK VINA RESULT:      -5.9      0.000      0.000
REMARK  10 active torsions:
REMARK  status: ('A' for Active; 'I' for Inactive)
REMARK    1  A    between atoms: S_2  and  C_24 
REMARK    2  A    between atoms: S_2  and  C_29 
REMARK    3  A    between atoms: S_3  and  C_28 
REMARK    4  A    between atoms: S_3  and  C_30 
REMARK    5  A    between atoms: O_4  and  C_19 
REMARK    6  A    between atoms: O_6  and  C_25 
REMARK    7  A    between atoms: C_19  and  N_10 
REMARK       I    between atoms: N_10  and  C_26 
REMARK    8  A    between atoms: C_21  and  C_25 
REMARK    9  A    between atoms: C_22  and  C_24 
REMARK   10  A    between atoms: C_26  and  C_28 
ROOT
HETATM    1  N   UNK N   1      26.703  20.348   6.125  0.00  0.00    -0.197 NA
HETATM    2  C   UNK N   1      28.455  18.683   5.116  0.00  0.00     0.197 C 
HETATM    3  C   UNK N   1      27.472  19.612   5.666  0.00  0.00     0.069 C 
ENDROOT
BRANCH   2   4
HETATM    4  S   UNK N   1      28.386  17.142   6.075  0.00  0.00    -0.146 SA
BRANCH   4   5
HETATM    5  C   UNK N   1      29.273  17.940   7.424  0.00  0.00     0.177 C 
BRANCH   5   6
HETATM    6  C   UNK N   1      30.440  17.162   7.935  0.00  0.00     0.229 C 
HETATM    7  O   UNK N   1      30.440  16.673   9.054  0.00  0.00    -0.273 OA
HETATM    8  N   UNK N   1      31.390  16.868   7.035  0.00  0.00    -0.318 N 
HETATM    9  H   UNK N   1      31.443  17.472   6.260  0.00  0.00     0.166 HD
BRANCH   8  10
HETATM   10  C   UNK N   1      32.343  15.787   7.045  0.00  0.00     0.250 A 
HETATM   11  C   UNK N   1      32.658  14.879   8.374  0.00  0.00     0.221 A 
HETATM   12  S   UNK N   1      33.428  13.204   8.161  0.00  0.00    -0.133 SA
HETATM   13  N   UNK N   1      33.639  15.858   8.723  0.00  0.00    -0.288 N 
HETATM   14  C   UNK N   1      35.169  13.725   7.964  0.00  0.00     0.113 C 
HETATM   15  C   UNK N   1      35.625  14.652   9.055  0.00  0.00    -0.027 C 
HETATM   16  C   UNK N   1      34.892  15.738   9.350  0.00  0.00     0.116 C 
HETATM   17  C   UNK N   1      33.471  16.535   7.640  0.00  0.00     0.285 A 
HETATM   18  O   UNK N   1      34.150  17.465   7.231  0.00  0.00    -0.267 OA
BRANCH  10  19
HETATM   19  O   UNK N   1      32.736  15.295   5.787  0.00  0.00    -0.355 OA
HETATM   20  C   UNK N   1      31.593  15.259   4.979  0.00  0.00     0.205 C 
ENDBRANCH  10  19
BRANCH  15  21
HETATM   21  C   UNK N   1      36.881  14.357   9.767  0.00  0.00     0.120 C 
BRANCH  21  22
HETATM   22  S   UNK N   1      36.880  12.559  10.004  0.00  0.00    -0.087 SA
BRANCH  22  23
HETATM   23  C   UNK N   1      35.934  12.819  11.469  0.00  0.00     0.175 A 
HETATM   24  N   UNK N   1      34.951  12.032  11.927  0.00  0.00    -0.262 N 
HETATM   25  N   UNK N   1      34.564  12.551  13.076  0.00  0.00    -0.223 N 
HETATM   26  C   UNK N   1      34.406  10.822  11.336  0.00  0.00     0.181 C 
HETATM   27  N   UNK N   1      35.292  13.634  13.320  0.00  0.00    -0.005 NA
ATOM     28  HN  UNK N   1      33.828  12.181  13.678  1.00  0.00     0.206 HD
HETATM   29  N   UNK N   1      36.157  13.819  12.332  0.00  0.00    -0.261 N 
ATOM     30  HN  UNK N   1      36.847  14.565  12.247  1.00  0.00     0.186 HD
ENDBRANCH  22  23
ENDBRANCH  21  22
ENDBRANCH  15  21
BRANCH  16  31
HETATM   31  C   UNK N   1      35.324  16.822  10.286  0.00  0.00     0.194 C 
HETATM   32  O   UNK N   1      35.299  16.618  11.488  0.00  0.00    -0.645 OA
BRANCH  31  33
HETATM   33  O   UNK N   1      35.688  18.039   9.839  0.00  0.00    -0.772 OA
HETATM   34  H   UNK N   1      35.301  18.828  10.163  0.00  0.00     0.167 HD
ENDBRANCH  31  33
ENDBRANCH  16  31
ENDBRANCH   8  10
ENDBRANCH   5   6
ENDBRANCH   4   5
ENDBRANCH   2   4
TORSDOF 10
ENDMDL
MODEL 2
REMARK VINA RESULT:      -5.8      2.783      3.957
REMARK  10 active torsions:
REMARK  status: ('A' for Active; 'I' for Inactive)
REMARK    1  A    between atoms: S_2  and  C_24 
REMARK    2  A    between atoms: S_2  and  C_29 
REMARK    3  A    between atoms: S_3  and  C_28 
REMARK    4  A    between atoms: S_3  and  C_30 
REMARK    5  A    between atoms: O_4  and  C_19 
REMARK    6  A    between atoms: O_6  and  C_25 
REMARK    7  A    between atoms: C_19  and  N_10 
REMARK       I    between atoms: N_10  and  C_26 
REMARK    8  A    between atoms: C_21  and  C_25 
REMARK    9  A    between atoms: C_22  and  C_24 
REMARK   10  A    between atoms: C_26  and  C_28 
ROOT
HETATM    1  N   UNK N   1      30.358  13.756   5.188  0.00  0.00    -0.197 NA
HETATM    2  C   UNK N   1      29.967  15.999   3.892  0.00  0.00     0.197 C 
HETATM    3  C   UNK N   1      30.193  14.743   4.604  0.00  0.00     0.069 C 
ENDROOT
BRANCH   2   4
HETATM    4  S   UNK N   1      30.559  17.362   4.934  0.00  0.00    -0.146 SA
BRANCH   4   5
HETATM    5  C   UNK N   1      32.261  16.939   4.525  0.00  0.00     0.177 C 
BRANCH   5   6
HETATM    6  C   UNK N   1      33.179  16.887   5.701  0.00  0.00     0.229 C 
HETATM    7  O   UNK N   1      34.029  17.745   5.885  0.00  0.00    -0.273 OA
HETATM    8  N   UNK N   1      32.890  15.968   6.634  0.00  0.00    -0.318 N 
HETATM    9  H   UNK N   1      32.373  15.192   6.319  0.00  0.00     0.166 HD
BRANCH   8  10
HETATM   10  C   UNK N   1      33.228  15.961   8.034  0.00  0.00     0.250 A 
HETATM   11  C   UNK N   1      34.770  15.864   8.586  0.00  0.00     0.221 A 
HETATM   12  S   UNK N   1      35.149  16.430  10.312  0.00  0.00    -0.133 SA
HETATM   13  N   UNK N   1      34.624  14.442   8.529  0.00  0.00    -0.288 N 
HETATM   14  C   UNK N   1      34.609  14.936  11.216  0.00  0.00     0.113 C 
HETATM   15  C   UNK N   1      35.213  13.674  10.667  0.00  0.00    -0.027 C 
HETATM   16  C   UNK N   1      35.132  13.421   9.351  0.00  0.00     0.116 C 
HETATM   17  C   UNK N   1      33.384  14.499   8.185  0.00  0.00     0.285 A 
HETATM   18  O   UNK N   1      32.588  13.574   8.114  0.00  0.00    -0.267 OA
BRANCH  10  19
HETATM   19  O   UNK N   1      32.227  16.405   8.917  0.00  0.00    -0.355 OA
HETATM   20  C   UNK N   1      31.850  17.690   8.506  0.00  0.00     0.205 C 
ENDBRANCH  10  19
BRANCH  15  21
HETATM   21  C   UNK N   1      35.867  12.732  11.592  0.00  0.00     0.120 C 
BRANCH  21  22
HETATM   22  S   UNK N   1      35.865  13.569  13.201  0.00  0.00    -0.087 SA
BRANCH  22  23
HETATM   23  C   UNK N   1      34.799  12.293  13.789  0.00  0.00     0.175 A 
HETATM   24  N   UNK N   1      34.373  12.136  15.050  0.00  0.00    -0.262 N 
HETATM   25  N   UNK N   1      33.545  11.109  15.037  0.00  0.00    -0.223 N 
HETATM   26  C   UNK N   1      34.697  12.929  16.223  0.00  0.00     0.181 C 
HETATM   27  N   UNK N   1      33.465  10.643  13.797  0.00  0.00    -0.005 NA
ATOM     28  HN  UNK N   1      33.050  10.735  15.846  1.00  0.00     0.206 HD
HETATM   29  N   UNK N   1      34.236  11.369  12.999  0.00  0.00    -0.261 N 
ATOM     30  HN  UNK N   1      34.372  11.251  11.995  1.00  0.00     0.186 HD
ENDBRANCH  22  23
ENDBRANCH  21  22
ENDBRANCH  15  21
BRANCH  16  31
HETATM   31  C   UNK N   1      35.535  12.131   8.712  0.00  0.00     0.194 C 
HETATM   32  O   UNK N   1      36.702  11.957   8.400  0.00  0.00    -0.645 OA
BRANCH  31  33
HETATM   33  O   UNK N   1      34.633  11.174   8.420  0.00  0.00    -0.772 OA
HETATM   34  H   UNK N   1      33.715  11.351   8.365  0.00  0.00     0.167 HD
ENDBRANCH  31  33
ENDBRANCH  16  31
ENDBRANCH   8  10
ENDBRANCH   5   6
ENDBRANCH   4   5
ENDBRANCH   2   4
TORSDOF 10
ENDMDL
MODEL 3
REMARK VINA RESULT:      -5.7      3.776      5.688
REMARK  10 active torsions:
REMARK  status: ('A' for Active; 'I' for Inactive)
REMARK    1  A    between atoms: S_2  and  C_24 
REMARK    2  A    between atoms: S_2  and  C_29 
REMARK    3  A    between atoms: S_3  and  C_28 
REMARK    4  A    between atoms: S_3  and  C_30 
REMARK    5  A    between atoms: O_4  and  C_19 
REMARK    6  A    between atoms: O_6  and  C_25 
REMARK    7  A    between atoms: C_19  and  N_10 
REMARK       I    between atoms: N_10  and  C_26 
REMARK    8  A    between atoms: C_21  and  C_25 
REMARK    9  A    between atoms: C_22  and  C_24 
REMARK   10  A    between atoms: C_26  and  C_28 
ROOT
HETATM    1  N   UNK N   1      19.696  15.069   6.909  0.00  0.00    -0.197 NA
HETATM    2  C   UNK N   1      21.891  16.440   6.508  0.00  0.00     0.197 C 
HETATM    3  C   UNK N   1      20.659  15.687   6.726  0.00  0.00     0.069 C 
ENDROOT
BRANCH   2   4
HETATM    4  S   UNK N   1      22.927  15.516   5.337  0.00  0.00    -0.146 SA
BRANCH   4   5
HETATM    5  C   UNK N   1      24.121  16.863   5.327  0.00  0.00     0.177 C 
BRANCH   5   6
HETATM    6  C   UNK N   1      25.508  16.456   5.700  0.00  0.00     0.229 C 
HETATM    7  O   UNK N   1      25.824  15.280   5.791  0.00  0.00    -0.273 OA
HETATM    8  N   UNK N   1      26.421  17.438   5.732  0.00  0.00    -0.318 N 
HETATM    9  H   UNK N   1      26.066  18.343   5.884  0.00  0.00     0.166 HD
BRANCH   8  10
HETATM   10  C   UNK N   1      27.850  17.351   5.572  0.00  0.00     0.250 A 
HETATM   11  C   UNK N   1      28.775  16.236   6.342  0.00  0.00     0.221 A 
HETATM   12  S   UNK N   1      30.452  15.828   5.661  0.00  0.00    -0.133 SA
HETATM   13  N   UNK N   1      28.869  17.167   7.424  0.00  0.00    -0.288 N 
HETATM   14  C   UNK N   1      31.381  17.243   6.351  0.00  0.00     0.113 C 
HETATM   15  C   UNK N   1      31.167  17.414   7.829  0.00  0.00    -0.027 C 
HETATM   16  C   UNK N   1      29.917  17.454   8.315  0.00  0.00     0.116 C 
HETATM   17  C   UNK N   1      28.224  18.089   6.796  0.00  0.00     0.285 A 
HETATM   18  O   UNK N   1      28.079  19.256   7.132  0.00  0.00    -0.267 OA
BRANCH  10  19
HETATM   19  O   UNK N   1      28.392  18.016   4.457  0.00  0.00    -0.355 OA
HETATM   20  C   UNK N   1      27.400  18.044   3.467  0.00  0.00     0.205 C 
ENDBRANCH  10  19
BRANCH  15  21
HETATM   21  C   UNK N   1      32.340  17.552   8.710  0.00  0.00     0.120 C 
BRANCH  21  22
HETATM   22  S   UNK N   1      33.773  17.543   7.598  0.00  0.00    -0.087 SA
BRANCH  22  23
HETATM   23  C   UNK N   1      34.689  16.769   8.890  0.00  0.00     0.175 A 
HETATM   24  N   UNK N   1      35.267  15.562   8.837  0.00  0.00    -0.262 N 
HETATM   25  N   UNK N   1      35.901  15.403   9.983  0.00  0.00    -0.223 N 
HETATM   26  C   UNK N   1      35.259  14.598   7.750  0.00  0.00     0.181 C 
HETATM   27  N   UNK N   1      35.716  16.487  10.725  0.00  0.00    -0.005 NA
ATOM     28  HN  UNK N   1      36.443  14.582  10.253  1.00  0.00     0.206 HD
HETATM   29  N   UNK N   1      34.965  17.356  10.062  0.00  0.00    -0.261 N 
ATOM     30  HN  UNK N   1      34.662  18.278  10.377  1.00  0.00     0.186 HD
ENDBRANCH  22  23
ENDBRANCH  21  22
ENDBRANCH  15  21
BRANCH  16  31
HETATM   31  C   UNK N   1      29.571  17.792   9.731  0.00  0.00     0.194 C 
HETATM   32  O   UNK N   1      29.612  18.955  10.095  0.00  0.00    -0.645 OA
BRANCH  31  33
HETATM   33  O   UNK N   1      29.268  16.837  10.632  0.00  0.00    -0.772 OA
HETATM   34  H   UNK N   1      28.431  16.418  10.655  0.00  0.00     0.167 HD
ENDBRANCH  31  33
ENDBRANCH  16  31
ENDBRANCH   8  10
ENDBRANCH   5   6
ENDBRANCH   4   5
ENDBRANCH   2   4
TORSDOF 10
ENDMDL
MODEL 4
REMARK VINA RESULT:      -5.7      3.174      9.831
REMARK  10 active torsions:
REMARK  status: ('A' for Active; 'I' for Inactive)
REMARK    1  A    between atoms: S_2  and  C_24 
REMARK    2  A    between atoms: S_2  and  C_29 
REMARK    3  A    between atoms: S_3  and  C_28 
REMARK    4  A    between atoms: S_3  and  C_30 
REMARK    5  A    between atoms: O_4  and  C_19 
REMARK    6  A    between atoms: O_6  and  C_25 
REMARK    7  A    between atoms: C_19  and  N_10 
REMARK       I    between atoms: N_10  and  C_26 
REMARK    8  A    between atoms: C_21  and  C_25 
REMARK    9  A    between atoms: C_22  and  C_24 
REMARK   10  A    between atoms: C_26  and  C_28 
ROOT
HETATM    1  N   UNK N   1      32.676  13.370   8.599  0.00  0.00    -0.197 NA
HETATM    2  C   UNK N   1      34.673  15.061   8.714  0.00  0.00     0.197 C 
HETATM    3  C   UNK N   1      33.566  14.110   8.660  0.00  0.00     0.069 C 
ENDROOT
BRANCH   2   4
HETATM    4  S   UNK N   1      34.002  16.699   9.119  0.00  0.00    -0.146 SA
BRANCH   4   5
HETATM    5  C   UNK N   1      34.496  17.306   7.497  0.00  0.00     0.177 C 
BRANCH   5   6
HETATM    6  C   UNK N   1      33.370  17.452   6.529  0.00  0.00     0.229 C 
HETATM    7  O   UNK N   1      33.568  17.738   5.358  0.00  0.00    -0.273 OA
HETATM    8  N   UNK N   1      32.164  17.061   6.965  0.00  0.00    -0.318 N 
HETATM    9  H   UNK N   1      32.040  17.077   7.941  0.00  0.00     0.166 HD
BRANCH   8  10
HETATM   10  C   UNK N   1      31.024  16.619   6.203  0.00  0.00     0.250 A 
HETATM   11  C   UNK N   1      30.309  17.532   5.043  0.00  0.00     0.221 A 
HETATM   12  S   UNK N   1      29.263  16.701   3.756  0.00  0.00    -0.133 SA
HETATM   13  N   UNK N   1      29.502  18.093   6.081  0.00  0.00    -0.288 N 
HETATM   14  C   UNK N   1      27.724  16.523   4.725  0.00  0.00     0.113 C 
HETATM   15  C   UNK N   1      27.286  17.812   5.361  0.00  0.00    -0.027 C 
HETATM   16  C   UNK N   1      28.163  18.520   6.091  0.00  0.00     0.116 C 
HETATM   17  C   UNK N   1      29.986  17.318   6.990  0.00  0.00     0.285 A 
HETATM   18  O   UNK N   1      29.589  17.179   8.138  0.00  0.00    -0.267 OA
BRANCH  10  19
HETATM   19  O   UNK N   1      30.759  15.237   6.226  0.00  0.00    -0.355 OA
HETATM   20  C   UNK N   1      31.678  14.623   5.365  0.00  0.00     0.205 C 
ENDBRANCH  10  19
BRANCH  15  21
HETATM   21  C   UNK N   1      25.894  18.261   5.184  0.00  0.00     0.120 C 
BRANCH  21  22
HETATM   22  S   UNK N   1      25.333  17.474   3.650  0.00  0.00    -0.087 SA
BRANCH  22  23
HETATM   23  C   UNK N   1      24.617  19.020   3.196  0.00  0.00     0.175 A 
HETATM   24  N   UNK N   1      23.351  19.400   3.413  0.00  0.00    -0.262 N 
HETATM   25  N   UNK N   1      23.257  20.643   2.983  0.00  0.00    -0.223 N 
HETATM   26  C   UNK N   1      22.270  18.649   4.027  0.00  0.00     0.181 C 
HETATM   27  N   UNK N   1      24.439  21.019   2.509  0.00  0.00    -0.005 NA
ATOM     28  HN  UNK N   1      22.416  21.219   3.009  1.00  0.00     0.206 HD
HETATM   29  N   UNK N   1      25.305  20.023   2.635  0.00  0.00    -0.261 N 
ATOM     30  HN  UNK N   1      26.288  20.021   2.364  1.00  0.00     0.186 HD
ENDBRANCH  22  23
ENDBRANCH  21  22
ENDBRANCH  15  21
BRANCH  16  31
HETATM   31  C   UNK N   1      27.807  19.718   6.913  0.00  0.00     0.194 C 
HETATM   32  O   UNK N   1      27.533  19.573   8.093  0.00  0.00    -0.645 OA
BRANCH  31  33
HETATM   33  O   UNK N   1      27.726  20.949   6.372  0.00  0.00    -0.772 OA
HETATM   34  H   UNK N   1      27.996  21.717   6.834  0.00  0.00     0.167 HD
ENDBRANCH  31  33
ENDBRANCH  16  31
ENDBRANCH   8  10
ENDBRANCH   5   6
ENDBRANCH   4   5
ENDBRANCH   2   4
TORSDOF 10
ENDMDL
MODEL 5
REMARK VINA RESULT:      -5.6      1.835      2.413
REMARK  10 active torsions:
REMARK  status: ('A' for Active; 'I' for Inactive)
REMARK    1  A    between atoms: S_2  and  C_24 
REMARK    2  A    between atoms: S_2  and  C_29 
REMARK    3  A    between atoms: S_3  and  C_28 
REMARK    4  A    between atoms: S_3  and  C_30 
REMARK    5  A    between atoms: O_4  and  C_19 
REMARK    6  A    between atoms: O_6  and  C_25 
REMARK    7  A    between atoms: C_19  and  N_10 
REMARK       I    between atoms: N_10  and  C_26 
REMARK    8  A    between atoms: C_21  and  C_25 
REMARK    9  A    between atoms: C_22  and  C_24 
REMARK   10  A    between atoms: C_26  and  C_28 
ROOT
HETATM    1  N   UNK N   1      27.736  17.991   6.306  0.00  0.00    -0.197 NA
HETATM    2  C   UNK N   1      29.782  16.563   7.104  0.00  0.00     0.197 C 
HETATM    3  C   UNK N   1      28.636  17.359   6.673  0.00  0.00     0.069 C 
ENDROOT
BRANCH   2   4
HETATM    4  S   UNK N   1      31.294  17.514   6.777  0.00  0.00    -0.146 SA
BRANCH   4   5
HETATM    5  C   UNK N   1      31.381  16.811   5.122  0.00  0.00     0.177 C 
BRANCH   5   6
HETATM    6  C   UNK N   1      32.620  16.023   4.855  0.00  0.00     0.229 C 
HETATM    7  O   UNK N   1      33.413  16.355   3.987  0.00  0.00    -0.273 OA
HETATM    8  N   UNK N   1      32.906  15.058   5.741  0.00  0.00    -0.318 N 
HETATM    9  H   UNK N   1      32.138  14.702   6.244  0.00  0.00     0.166 HD
BRANCH   8  10
HETATM   10  C   UNK N   1      34.183  14.473   6.062  0.00  0.00     0.250 A 
HETATM   11  C   UNK N   1      34.437  13.540   7.387  0.00  0.00     0.221 A 
HETATM   12  S   UNK N   1      35.892  12.390   7.417  0.00  0.00    -0.133 SA
HETATM   13  N   UNK N   1      34.719  14.749   8.096  0.00  0.00    -0.288 N 
HETATM   14  C   UNK N   1      37.186  13.596   7.877  0.00  0.00     0.113 C 
HETATM   15  C   UNK N   1      36.820  14.409   9.086  0.00  0.00    -0.027 C 
HETATM   16  C   UNK N   1      35.631  15.031   9.129  0.00  0.00     0.116 C 
HETATM   17  C   UNK N   1      34.616  15.488   7.046  0.00  0.00     0.285 A 
HETATM   18  O   UNK N   1      34.902  16.672   6.937  0.00  0.00    -0.267 OA
BRANCH  10  19
HETATM   19  O   UNK N   1      35.123  14.423   5.017  0.00  0.00    -0.355 OA
HETATM   20  C   UNK N   1      34.845  13.276   4.262  0.00  0.00     0.205 C 
ENDBRANCH  10  19
BRANCH  15  21
HETATM   21  C   UNK N   1      37.785  14.520  10.194  0.00  0.00     0.120 C 
BRANCH  21  22
HETATM   22  S   UNK N   1      37.990  12.828  10.814  0.00  0.00    -0.087 SA
BRANCH  22  23
HETATM   23  C   UNK N   1      36.623  13.125  11.887  0.00  0.00     0.175 A 
HETATM   24  N   UNK N   1      35.453  12.472  11.878  0.00  0.00    -0.262 N 
HETATM   25  N   UNK N   1      34.747  12.959  12.880  0.00  0.00    -0.223 N 
HETATM   26  C   UNK N   1      35.013  11.410  10.990  0.00  0.00     0.181 C 
HETATM   27  N   UNK N   1      35.466  13.892  13.491  0.00  0.00    -0.005 NA
ATOM     28  HN  UNK N   1      33.806  12.667  13.141  1.00  0.00     0.206 HD
HETATM   29  N   UNK N   1      36.643  14.011  12.891  0.00  0.00    -0.261 N 
ATOM     30  HN  UNK N   1      37.403  14.644  13.141  1.00  0.00     0.186 HD
ENDBRANCH  22  23
ENDBRANCH  21  22
ENDBRANCH  15  21
BRANCH  16  31
HETATM   31  C   UNK N   1      35.223  16.004  10.189  0.00  0.00     0.194 C 
HETATM   32  O   UNK N   1      35.679  17.135  10.171  0.00  0.00    -0.645 OA
BRANCH  31  33
HETATM   33  O   UNK N   1      34.405  15.648  11.199  0.00  0.00    -0.772 OA
HETATM   34  H   UNK N   1      34.532  14.862  11.692  0.00  0.00     0.167 HD
ENDBRANCH  31  33
ENDBRANCH  16  31
ENDBRANCH   8  10
ENDBRANCH   5   6
ENDBRANCH   4   5
ENDBRANCH   2   4
TORSDOF 10
ENDMDL
MODEL 6
REMARK VINA RESULT:      -5.5      3.211      4.607
REMARK  10 active torsions:
REMARK  status: ('A' for Active; 'I' for Inactive)
REMARK    1  A    between atoms: S_2  and  C_24 
REMARK    2  A    between atoms: S_2  and  C_29 
REMARK    3  A    between atoms: S_3  and  C_28 
REMARK    4  A    between atoms: S_3  and  C_30 
REMARK    5  A    between atoms: O_4  and  C_19 
REMARK    6  A    between atoms: O_6  and  C_25 
REMARK    7  A    between atoms: C_19  and  N_10 
REMARK       I    between atoms: N_10  and  C_26 
REMARK    8  A    between atoms: C_21  and  C_25 
REMARK    9  A    between atoms: C_22  and  C_24 
REMARK   10  A    between atoms: C_26  and  C_28 
ROOT
HETATM    1  N   UNK N   1      30.848  13.425   5.359  0.00  0.00    -0.197 NA
HETATM    2  C   UNK N   1      31.528  15.298   3.659  0.00  0.00     0.197 C 
HETATM    3  C   UNK N   1      31.140  14.248   4.597  0.00  0.00     0.069 C 
ENDROOT
BRANCH   2   4
HETATM    4  S   UNK N   1      33.325  15.213   3.415  0.00  0.00    -0.146 SA
BRANCH   4   5
HETATM    5  C   UNK N   1      33.568  16.356   4.785  0.00  0.00     0.177 C 
BRANCH   5   6
HETATM    6  C   UNK N   1      34.364  15.796   5.917  0.00  0.00     0.229 C 
HETATM    7  O   UNK N   1      35.572  15.637   5.830  0.00  0.00    -0.273 OA
HETATM    8  N   UNK N   1      33.717  15.668   7.084  0.00  0.00    -0.318 N 
HETATM    9  H   UNK N   1      32.739  15.583   7.020  0.00  0.00     0.166 HD
BRANCH   8  10
HETATM   10  C   UNK N   1      34.256  15.638   8.420  0.00  0.00     0.250 A 
HETATM   11  C   UNK N   1      35.495  14.661   8.868  0.00  0.00     0.221 A 
HETATM   12  S   UNK N   1      36.478  15.086  10.383  0.00  0.00    -0.133 SA
HETATM   13  N   UNK N   1      34.511  13.664   9.153  0.00  0.00    -0.288 N 
HETATM   14  C   UNK N   1      35.341  14.414  11.646  0.00  0.00     0.113 C 
HETATM   15  C   UNK N   1      34.931  12.996  11.364  0.00  0.00    -0.027 C 
HETATM   16  C   UNK N   1      34.450  12.676  10.152  0.00  0.00     0.116 C 
HETATM   17  C   UNK N   1      33.521  14.447   8.895  0.00  0.00     0.285 A 
HETATM   18  O   UNK N   1      32.334  14.237   9.098  0.00  0.00    -0.267 OA
BRANCH  10  19
HETATM   19  O   UNK N   1      33.932  16.731   9.245  0.00  0.00    -0.355 OA
HETATM   20  C   UNK N   1      33.092  17.575   8.506  0.00  0.00     0.205 C 
ENDBRANCH  10  19
BRANCH  15  21
HETATM   21  C   UNK N   1      35.050  11.990  12.434  0.00  0.00     0.120 C 
BRANCH  21  22
HETATM   22  S   UNK N   1      36.692  12.258  13.156  0.00  0.00    -0.087 SA
BRANCH  22  23
HETATM   23  C   UNK N   1      35.920  12.275  14.741  0.00  0.00     0.175 A 
HETATM   24  N   UNK N   1      36.126  11.398  15.732  0.00  0.00    -0.262 N 
HETATM   25  N   UNK N   1      35.407  11.817  16.755  0.00  0.00    -0.223 N 
HETATM   26  C   UNK N   1      36.984  10.226  15.743  0.00  0.00     0.181 C 
HETATM   27  N   UNK N   1      34.771  12.927  16.401  0.00  0.00    -0.005 NA
ATOM     28  HN  UNK N   1      35.349  11.363  17.666  1.00  0.00     0.206 HD
HETATM   29  N   UNK N   1      35.078  13.235  15.148  0.00  0.00    -0.261 N 
ATOM     30  HN  UNK N   1      34.745  14.034  14.609  1.00  0.00     0.186 HD
ENDBRANCH  22  23
ENDBRANCH  21  22
ENDBRANCH  15  21
BRANCH  16  31
HETATM   31  C   UNK N   1      33.850  11.351   9.803  0.00  0.00     0.194 C 
HETATM   32  O   UNK N   1      34.584  10.416   9.529  0.00  0.00    -0.645 OA
BRANCH  31  33
HETATM   33  O   UNK N   1      32.516  11.176   9.729  0.00  0.00    -0.772 OA
HETATM   34  H   UNK N   1      32.127  10.529   9.175  0.00  0.00     0.167 HD
ENDBRANCH  31  33
ENDBRANCH  16  31
ENDBRANCH   8  10
ENDBRANCH   5   6
ENDBRANCH   4   5
ENDBRANCH   2   4
TORSDOF 10
ENDMDL
MODEL 7
REMARK VINA RESULT:      -5.5      3.141      4.631
REMARK  10 active torsions:
REMARK  status: ('A' for Active; 'I' for Inactive)
REMARK    1  A    between atoms: S_2  and  C_24 
REMARK    2  A    between atoms: S_2  and  C_29 
REMARK    3  A    between atoms: S_3  and  C_28 
REMARK    4  A    between atoms: S_3  and  C_30 
REMARK    5  A    between atoms: O_4  and  C_19 
REMARK    6  A    between atoms: O_6  and  C_25 
REMARK    7  A    between atoms: C_19  and  N_10 
REMARK       I    between atoms: N_10  and  C_26 
REMARK    8  A    between atoms: C_21  and  C_25 
REMARK    9  A    between atoms: C_22  and  C_24 
REMARK   10  A    between atoms: C_26  and  C_28 
ROOT
HETATM    1  N   UNK N   1      31.522  15.757   9.404  0.00  0.00    -0.197 NA
HETATM    2  C   UNK N   1      32.065  17.166   7.264  0.00  0.00     0.197 C 
HETATM    3  C   UNK N   1      31.759  16.369   8.449  0.00  0.00     0.069 C 
ENDROOT
BRANCH   2   4
HETATM    4  S   UNK N   1      33.797  17.700   7.366  0.00  0.00    -0.146 SA
BRANCH   4   5
HETATM    5  C   UNK N   1      34.289  16.310   6.333  0.00  0.00     0.177 C 
BRANCH   5   6
HETATM    6  C   UNK N   1      34.513  15.038   7.082  0.00  0.00     0.229 C 
HETATM    7  O   UNK N   1      33.905  14.017   6.800  0.00  0.00    -0.273 OA
HETATM    8  N   UNK N   1      35.547  15.032   7.935  0.00  0.00    -0.318 N 
HETATM    9  H   UNK N   1      35.821  15.913   8.277  0.00  0.00     0.166 HD
BRANCH   8  10
HETATM   10  C   UNK N   1      36.314  13.913   8.421  0.00  0.00     0.250 A 
HETATM   11  C   UNK N   1      35.668  12.701   9.317  0.00  0.00     0.221 A 
HETATM   12  S   UNK N   1      36.550  11.071   9.401  0.00  0.00    -0.133 SA
HETATM   13  N   UNK N   1      35.948  13.500  10.469  0.00  0.00    -0.288 N 
HETATM   14  C   UNK N   1      37.796  11.497  10.668  0.00  0.00     0.113 C 
HETATM   15  C   UNK N   1      37.189  12.111  11.897  0.00  0.00    -0.027 C 
HETATM   16  C   UNK N   1      36.346  13.148  11.771  0.00  0.00     0.116 C 
HETATM   17  C   UNK N   1      36.543  14.419   9.790  0.00  0.00     0.285 A 
HETATM   18  O   UNK N   1      37.181  15.368  10.223  0.00  0.00    -0.267 OA
BRANCH  10  19
HETATM   19  O   UNK N   1      37.559  13.699   7.801  0.00  0.00    -0.355 OA
HETATM   20  C   UNK N   1      37.304  13.227   6.507  0.00  0.00     0.205 C 
ENDBRANCH  10  19
BRANCH  15  21
HETATM   21  C   UNK N   1      37.548  11.569  13.220  0.00  0.00     0.120 C 
BRANCH  21  22
HETATM   22  S   UNK N   1      37.149   9.802  13.132  0.00  0.00    -0.087 SA
BRANCH  22  23
HETATM   23  C   UNK N   1      35.589  10.185  13.859  0.00  0.00     0.175 A 
HETATM   24  N   UNK N   1      35.365  10.473  15.148  0.00  0.00    -0.262 N 
HETATM   25  N   UNK N   1      34.083  10.764  15.248  0.00  0.00    -0.223 N 
HETATM   26  C   UNK N   1      36.314  10.508  16.249  0.00  0.00     0.181 C 
HETATM   27  N   UNK N   1      33.529  10.655  14.046  0.00  0.00    -0.005 NA
ATOM     28  HN  UNK N   1      33.598  11.027  16.105  1.00  0.00     0.206 HD
HETATM   29  N   UNK N   1      34.450  10.299  13.162  0.00  0.00    -0.261 N 
ATOM     30  HN  UNK N   1      34.321  10.144  12.163  1.00  0.00     0.186 HD
ENDBRANCH  22  23
ENDBRANCH  21  22
ENDBRANCH  15  21
BRANCH  16  31
HETATM   31  C   UNK N   1      35.816  13.952  12.916  0.00  0.00     0.194 C 
HETATM   32  O   UNK N   1      34.846  13.544  13.534  0.00  0.00    -0.645 OA
BRANCH  31  33
HETATM   33  O   UNK N   1      36.347  15.143  13.250  0.00  0.00    -0.772 OA
HETATM   34  H   UNK N   1      36.715  15.723  12.612  0.00  0.00     0.167 HD
ENDBRANCH  31  33
ENDBRANCH  16  31
ENDBRANCH   8  10
ENDBRANCH   5   6
ENDBRANCH   4   5
ENDBRANCH   2   4
TORSDOF 10
ENDMDL
MODEL 8
REMARK VINA RESULT:      -5.5      3.655      5.888
REMARK  10 active torsions:
REMARK  status: ('A' for Active; 'I' for Inactive)
REMARK    1  A    between atoms: S_2  and  C_24 
REMARK    2  A    between atoms: S_2  and  C_29 
REMARK    3  A    between atoms: S_3  and  C_28 
REMARK    4  A    between atoms: S_3  and  C_30 
REMARK    5  A    between atoms: O_4  and  C_19 
REMARK    6  A    between atoms: O_6  and  C_25 
REMARK    7  A    between atoms: C_19  and  N_10 
REMARK       I    between atoms: N_10  and  C_26 
REMARK    8  A    between atoms: C_21  and  C_25 
REMARK    9  A    between atoms: C_22  and  C_24 
REMARK   10  A    between atoms: C_26  and  C_28 
ROOT
HETATM    1  N   UNK N   1      21.023  17.700   7.240  0.00  0.00    -0.197 NA
HETATM    2  C   UNK N   1      22.404  18.331   5.106  0.00  0.00     0.197 C 
HETATM    3  C   UNK N   1      21.623  17.987   6.291  0.00  0.00     0.069 C 
ENDROOT
BRANCH   2   4
HETATM    4  S   UNK N   1      22.864  16.793   4.257  0.00  0.00    -0.146 SA
BRANCH   4   5
HETATM    5  C   UNK N   1      23.243  16.028   5.843  0.00  0.00     0.177 C 
BRANCH   5   6
HETATM    6  C   UNK N   1      24.699  15.797   6.079  0.00  0.00     0.229 C 
HETATM    7  O   UNK N   1      25.126  14.698   6.399  0.00  0.00    -0.273 OA
HETATM    8  N   UNK N   1      25.518  16.799   5.729  0.00  0.00    -0.318 N 
HETATM    9  H   UNK N   1      25.111  17.695   5.714  0.00  0.00     0.166 HD
BRANCH   8  10
HETATM   10  C   UNK N   1      26.913  16.746   5.371  0.00  0.00     0.250 A 
HETATM   11  C   UNK N   1      28.003  15.793   6.141  0.00  0.00     0.221 A 
HETATM   12  S   UNK N   1      29.588  15.356   5.281  0.00  0.00    -0.133 SA
HETATM   13  N   UNK N   1      28.194  16.874   7.057  0.00  0.00    -0.288 N 
HETATM   14  C   UNK N   1      30.518  16.892   5.621  0.00  0.00     0.113 C 
HETATM   15  C   UNK N   1      30.508  17.267   7.076  0.00  0.00    -0.027 C 
HETATM   16  C   UNK N   1      29.339  17.329   7.734  0.00  0.00     0.116 C 
HETATM   17  C   UNK N   1      27.412  17.669   6.412  0.00  0.00     0.285 A 
HETATM   18  O   UNK N   1      27.247  18.866   6.601  0.00  0.00    -0.267 OA
BRANCH  10  19
HETATM   19  O   UNK N   1      27.249  17.262   4.106  0.00  0.00    -0.355 OA
HETATM   20  C   UNK N   1      26.640  16.443   3.147  0.00  0.00     0.205 C 
ENDBRANCH  10  19
BRANCH  15  21
HETATM   21  C   UNK N   1      31.784  17.578   7.745  0.00  0.00     0.120 C 
BRANCH  21  22
HETATM   22  S   UNK N   1      32.960  16.349   7.116  0.00  0.00    -0.087 SA
BRANCH  22  23
HETATM   23  C   UNK N   1      33.913  16.611   8.575  0.00  0.00     0.175 A 
HETATM   24  N   UNK N   1      33.894  15.854   9.681  0.00  0.00    -0.262 N 
HETATM   25  N   UNK N   1      34.800  16.360  10.494  0.00  0.00    -0.223 N 
HETATM   26  C   UNK N   1      33.083  14.683   9.964  0.00  0.00     0.181 C 
HETATM   27  N   UNK N   1      35.365  17.406   9.903  0.00  0.00    -0.005 NA
ATOM     28  HN  UNK N   1      35.029  16.006  11.422  1.00  0.00     0.206 HD
HETATM   29  N   UNK N   1      34.830  17.580   8.702  0.00  0.00    -0.261 N 
ATOM     30  HN  UNK N   1      35.066  18.299   8.019  1.00  0.00     0.186 HD
ENDBRANCH  22  23
ENDBRANCH  21  22
ENDBRANCH  15  21
BRANCH  16  31
HETATM   31  C   UNK N   1      29.179  17.856   9.125  0.00  0.00     0.194 C 
HETATM   32  O   UNK N   1      29.462  17.140  10.071  0.00  0.00    -0.645 OA
BRANCH  31  33
HETATM   33  O   UNK N   1      28.676  19.082   9.363  0.00  0.00    -0.772 OA
HETATM   34  H   UNK N   1      28.493  19.691   8.675  0.00  0.00     0.167 HD
ENDBRANCH  31  33
ENDBRANCH  16  31
ENDBRANCH   8  10
ENDBRANCH   5   6
ENDBRANCH   4   5
ENDBRANCH   2   4
TORSDOF 10
ENDMDL
MODEL 9
REMARK VINA RESULT:      -5.5      4.642      6.902
REMARK  10 active torsions:
REMARK  status: ('A' for Active; 'I' for Inactive)
REMARK    1  A    between atoms: S_2  and  C_24 
REMARK    2  A    between atoms: S_2  and  C_29 
REMARK    3  A    between atoms: S_3  and  C_28 
REMARK    4  A    between atoms: S_3  and  C_30 
REMARK    5  A    between atoms: O_4  and  C_19 
REMARK    6  A    between atoms: O_6  and  C_25 
REMARK    7  A    between atoms: C_19  and  N_10 
REMARK       I    between atoms: N_10  and  C_26 
REMARK    8  A    between atoms: C_21  and  C_25 
REMARK    9  A    between atoms: C_22  and  C_24 
REMARK   10  A    between atoms: C_26  and  C_28 
ROOT
HETATM    1  N   UNK N   1      34.213  17.937   6.399  0.00  0.00    -0.197 NA
HETATM    2  C   UNK N   1      33.283  16.980   8.653  0.00  0.00     0.197 C 
HETATM    3  C   UNK N   1      33.797  17.527   7.400  0.00  0.00     0.069 C 
ENDROOT
BRANCH   2   4
HETATM    4  S   UNK N   1      34.659  16.197   9.542  0.00  0.00    -0.146 SA
BRANCH   4   5
HETATM    5  C   UNK N   1      34.323  14.642   8.698  0.00  0.00     0.177 C 
BRANCH   5   6
HETATM    6  C   UNK N   1      34.215  13.462   9.607  0.00  0.00     0.229 C 
HETATM    7  O   UNK N   1      33.426  12.556   9.385  0.00  0.00    -0.273 OA
HETATM    8  N   UNK N   1      35.158  13.361  10.554  0.00  0.00    -0.318 N 
HETATM    9  H   UNK N   1      35.587  14.207  10.818  0.00  0.00     0.166 HD
BRANCH   8  10
HETATM   10  C   UNK N   1      35.632  12.185  11.239  0.00  0.00     0.250 A 
HETATM   11  C   UNK N   1      34.731  11.357  12.332  0.00  0.00     0.221 A 
HETATM   12  S   UNK N   1      35.170   9.596  12.714  0.00  0.00    -0.133 SA
HETATM   13  N   UNK N   1      35.249  12.246  13.325  0.00  0.00    -0.288 N 
HETATM   14  C   UNK N   1      36.531   9.901  13.895  0.00  0.00     0.113 C 
HETATM   15  C   UNK N   1      36.147  10.856  14.990  0.00  0.00    -0.027 C 
HETATM   16  C   UNK N   1      35.593  12.037  14.672  0.00  0.00     0.116 C 
HETATM   17  C   UNK N   1      36.034  12.847  12.498  0.00  0.00     0.285 A 
HETATM   18  O   UNK N   1      36.909  13.660  12.760  0.00  0.00    -0.267 OA
BRANCH  10  19
HETATM   19  O   UNK N   1      36.756  11.552  10.679  0.00  0.00    -0.355 OA
HETATM   20  C   UNK N   1      36.353  10.988   9.462  0.00  0.00     0.205 C 
ENDBRANCH  10  19
BRANCH  15  21
HETATM   21  C   UNK N   1      36.405  10.480  16.391  0.00  0.00     0.120 C 
BRANCH  21  22
HETATM   22  S   UNK N   1      34.930   9.565  16.916  0.00  0.00    -0.087 SA
BRANCH  22  23
HETATM   23  C   UNK N   1      34.988  10.468  18.429  0.00  0.00     0.175 A 
HETATM   24  N   UNK N   1      34.456  10.089  19.599  0.00  0.00    -0.262 N 
HETATM   25  N   UNK N   1      34.788  11.015  20.476  0.00  0.00    -0.223 N 
HETATM   26  C   UNK N   1      33.690   8.892  19.902  0.00  0.00     0.181 C 
HETATM   27  N   UNK N   1      35.508  11.945  19.860  0.00  0.00    -0.005 NA
ATOM     28  HN  UNK N   1      34.534  11.017  21.464  1.00  0.00     0.206 HD
HETATM   29  N   UNK N   1      35.649  11.623  18.582  0.00  0.00    -0.261 N 
ATOM     30  HN  UNK N   1      36.155  12.144  17.865  1.00  0.00     0.186 HD
ENDBRANCH  22  23
ENDBRANCH  21  22
ENDBRANCH  15  21
BRANCH  16  31
HETATM   31  C   UNK N   1      35.329  13.138  15.650  0.00  0.00     0.194 C 
HETATM   32  O   UNK N   1      34.225  13.231  16.162  0.00  0.00    -0.645 OA
BRANCH  31  33
HETATM   33  O   UNK N   1      36.262  14.065  15.940  0.00  0.00    -0.772 OA
HETATM   34  H   UNK N   1      37.122  13.835  16.231  0.00  0.00     0.167 HD
ENDBRANCH  31  33
ENDBRANCH  16  31
ENDBRANCH   8  10
ENDBRANCH   5   6
ENDBRANCH   4   5
ENDBRANCH   2   4
TORSDOF 10
ENDMDL
