MODEL 1
REMARK VINA RESULT:      -8.6      0.000      0.000
REMARK  5 active torsions:
REMARK  status: ('A' for Active; 'I' for Inactive)
REMARK    1  A    between atoms: S_1  and  N_8 
REMARK    2  A    between atoms: O_2  and  C_17 
REMARK    3  A    between atoms: N_5  and  C_9 
REMARK    4  A    between atoms: N_5  and  C_14 
REMARK    5  A    between atoms: N_8  and  C_18 
ROOT
HETATM    1  N   UNK N   1      37.002  14.146  12.833  0.00  0.00    -0.353 N 
HETATM    2  H   UNK N   1      37.979  14.138  12.956  0.00  0.00     0.166 HD
ENDROOT
BRANCH   1   3
HETATM    3  C   UNK N   1      36.211  13.552  13.883  0.00  0.00     0.058 A 
HETATM    4  C   UNK N   1      36.300  14.105  15.179  0.00  0.00     0.018 A 
HETATM    5  C   UNK N   1      35.511  13.572  16.228  0.00  0.00     0.045 A 
HETATM    6  C   UNK N   1      37.165  15.174  15.451  0.00  0.00     0.016 A 
HETATM    7  N   UNK N   1      34.668  12.541  15.998  0.00  0.00    -0.355 N 
HETATM    8  C   UNK N   1      35.602  14.111  17.514  0.00  0.00     0.030 A 
HETATM    9  C   UNK N   1      34.576  11.949  14.780  0.00  0.00     0.045 A 
ATOM     10  HN  UNK N   1      34.084  12.198  16.761  1.00  0.00     0.166 HD
HETATM   11  C   UNK N   1      35.364  12.415  13.698  0.00  0.00     0.018 A 
HETATM   12  C   UNK N   1      33.709  10.865  14.613  0.00  0.00     0.030 A 
HETATM   13  C   UNK N   1      35.291  11.707  12.486  0.00  0.00     0.016 A 
HETATM   14  C   UNK N   1      34.427  10.625  12.323  0.00  0.00     0.001 A 
HETATM   15  C   UNK N   1      33.623  10.214  13.382  0.00  0.00     0.002 A 
HETATM   16  C   UNK N   1      36.475  15.169  17.773  0.00  0.00     0.002 A 
HETATM   17  C   UNK N   1      37.256  15.700  16.744  0.00  0.00     0.001 A 
ENDBRANCH   1   3
BRANCH   1  18
HETATM   18  C   UNK N   1      36.512  14.746  11.631  0.00  0.00     0.066 A 
HETATM   19  C   UNK N   1      37.011  14.338  10.379  0.00  0.00     0.097 A 
HETATM   20  C   UNK N   1      36.408  14.836   9.199  0.00  0.00     0.069 A 
HETATM   21  C   UNK N   1      35.345  15.750   9.278  0.00  0.00     0.045 A 
HETATM   22  C   UNK N   1      34.949  16.231  10.518  0.00  0.00     0.032 A 
HETATM   23  C   UNK N   1      35.537  15.749  11.678  0.00  0.00     0.035 A 
BRANCH  19  24
HETATM   24  O   UNK N   1      38.043  13.460  10.326  0.00  0.00    -0.354 OA
HETATM   25  C   UNK N   1      37.908  12.169   9.864  0.00  0.00     0.210 C 
ENDBRANCH  19  24
BRANCH  21  26
HETATM   26  N   UNK N   1      34.628  16.187   8.137  0.00  0.00    -0.285 N 
HETATM   27  H   UNK N   1      34.447  15.518   7.438  0.00  0.00     0.178 HD
BRANCH  26  28
HETATM   28  S   UNK N   1      34.035  17.815   7.862  0.00  0.00     0.227 S 
HETATM   29  O   UNK N   1      34.245  18.008   6.356  0.00  0.00    -0.206 OA
HETATM   30  O   UNK N   1      35.132  18.730   8.431  0.00  0.00    -0.206 OA
HETATM   31  C   UNK N   1      32.366  18.315   8.369  0.00  0.00     0.186 C 
ENDBRANCH  26  28
ENDBRANCH  21  26
ENDBRANCH   1  18
TORSDOF 5
ENDMDL
MODEL 2
REMARK VINA RESULT:      -8.5      0.223      3.426
REMARK  5 active torsions:
REMARK  status: ('A' for Active; 'I' for Inactive)
REMARK    1  A    between atoms: S_1  and  N_8 
REMARK    2  A    between atoms: O_2  and  C_17 
REMARK    3  A    between atoms: N_5  and  C_9 
REMARK    4  A    between atoms: N_5  and  C_14 
REMARK    5  A    between atoms: N_8  and  C_18 
ROOT
HETATM    1  N   UNK N   1      37.087  13.811  12.813  0.00  0.00    -0.353 N 
HETATM    2  H   UNK N   1      38.052  13.614  12.842  0.00  0.00     0.166 HD
ENDROOT
BRANCH   1   3
HETATM    3  C   UNK N   1      36.313  13.422  13.967  0.00  0.00     0.058 A 
HETATM    4  C   UNK N   1      35.406  12.348  13.830  0.00  0.00     0.018 A 
HETATM    5  C   UNK N   1      34.656  11.912  14.949  0.00  0.00     0.045 A 
HETATM    6  C   UNK N   1      35.228  11.705  12.597  0.00  0.00     0.016 A 
HETATM    7  N   UNK N   1      34.805  12.512  16.152  0.00  0.00    -0.355 N 
HETATM    8  C   UNK N   1      33.751  10.856  14.816  0.00  0.00     0.030 A 
HETATM    9  C   UNK N   1      35.633  13.573  16.325  0.00  0.00     0.045 A 
ATOM     10  HN  UNK N   1      34.280  12.158  16.951  1.00  0.00     0.166 HD
HETATM   11  C   UNK N   1      36.387  14.077  15.236  0.00  0.00     0.018 A 
HETATM   12  C   UNK N   1      35.719  14.172  17.586  0.00  0.00     0.030 A 
HETATM   13  C   UNK N   1      37.159  15.230  15.454  0.00  0.00     0.016 A 
HETATM   14  C   UNK N   1      37.242  15.826  16.713  0.00  0.00     0.001 A 
HETATM   15  C   UNK N   1      36.535  15.287  17.783  0.00  0.00     0.002 A 
HETATM   16  C   UNK N   1      33.575  10.232  13.581  0.00  0.00     0.002 A 
HETATM   17  C   UNK N   1      34.312  10.655  12.472  0.00  0.00     0.001 A 
ENDBRANCH   1   3
BRANCH   1  18
HETATM   18  C   UNK N   1      36.598  14.452  11.633  0.00  0.00     0.066 A 
HETATM   19  C   UNK N   1      37.090  14.081  10.366  0.00  0.00     0.097 A 
HETATM   20  C   UNK N   1      36.487  14.620   9.205  0.00  0.00     0.069 A 
HETATM   21  C   UNK N   1      35.431  15.540   9.317  0.00  0.00     0.045 A 
HETATM   22  C   UNK N   1      35.043  15.984  10.574  0.00  0.00     0.032 A 
HETATM   23  C   UNK N   1      35.631  15.460  11.715  0.00  0.00     0.035 A 
BRANCH  19  24
HETATM   24  O   UNK N   1      38.115  13.197  10.282  0.00  0.00    -0.354 OA
HETATM   25  C   UNK N   1      37.973  11.928   9.765  0.00  0.00     0.210 C 
ENDBRANCH  19  24
BRANCH  21  26
HETATM   26  N   UNK N   1      34.713  16.018   8.194  0.00  0.00    -0.285 N 
HETATM   27  H   UNK N   1      34.551  15.381   7.460  0.00  0.00     0.178 HD
BRANCH  26  28
HETATM   28  S   UNK N   1      34.089  17.646   7.995  0.00  0.00     0.227 S 
HETATM   29  O   UNK N   1      34.393  17.953   6.523  0.00  0.00    -0.206 OA
HETATM   30  O   UNK N   1      35.117  18.545   8.701  0.00  0.00    -0.206 OA
HETATM   31  C   UNK N   1      32.375  18.063   8.419  0.00  0.00     0.186 C 
ENDBRANCH  26  28
ENDBRANCH  21  26
ENDBRANCH   1  18
TORSDOF 5
ENDMDL
MODEL 3
REMARK VINA RESULT:      -7.7      5.939     11.906
REMARK  5 active torsions:
REMARK  status: ('A' for Active; 'I' for Inactive)
REMARK    1  A    between atoms: S_1  and  N_8 
REMARK    2  A    between atoms: O_2  and  C_17 
REMARK    3  A    between atoms: N_5  and  C_9 
REMARK    4  A    between atoms: N_5  and  C_14 
REMARK    5  A    between atoms: N_8  and  C_18 
ROOT
HETATM    1  N   UNK N   1      30.017  17.593   4.072  0.00  0.00    -0.353 N 
HETATM    2  H   UNK N   1      30.541  17.836   3.274  0.00  0.00     0.166 HD
ENDROOT
BRANCH   1   3
HETATM    3  C   UNK N   1      28.584  17.547   3.917  0.00  0.00     0.058 A 
HETATM    4  C   UNK N   1      28.018  16.415   3.290  0.00  0.00     0.018 A 
HETATM    5  C   UNK N   1      26.611  16.316   3.154  0.00  0.00     0.045 A 
HETATM    6  C   UNK N   1      28.827  15.384   2.792  0.00  0.00     0.016 A 
HETATM    7  N   UNK N   1      25.804  17.293   3.624  0.00  0.00    -0.355 N 
HETATM    8  C   UNK N   1      26.047  15.201   2.527  0.00  0.00     0.030 A 
HETATM    9  C   UNK N   1      26.302  18.418   4.197  0.00  0.00     0.045 A 
ATOM     10  HN  UNK N   1      24.794  17.182   3.545  1.00  0.00     0.166 HD
HETATM   11  C   UNK N   1      27.702  18.592   4.333  0.00  0.00     0.018 A 
HETATM   12  C   UNK N   1      25.417  19.409   4.634  0.00  0.00     0.030 A 
HETATM   13  C   UNK N   1      28.160  19.814   4.854  0.00  0.00     0.016 A 
HETATM   14  C   UNK N   1      27.275  20.801   5.288  0.00  0.00     0.001 A 
HETATM   15  C   UNK N   1      25.902  20.592   5.193  0.00  0.00     0.002 A 
HETATM   16  C   UNK N   1      26.865  14.188   2.025  0.00  0.00     0.002 A 
HETATM   17  C   UNK N   1      28.252  14.278   2.157  0.00  0.00     0.001 A 
ENDBRANCH   1   3
BRANCH   1  18
HETATM   18  C   UNK N   1      30.757  17.324   5.266  0.00  0.00     0.066 A 
HETATM   19  C   UNK N   1      32.165  17.359   5.254  0.00  0.00     0.097 A 
HETATM   20  C   UNK N   1      32.870  17.238   6.474  0.00  0.00     0.069 A 
HETATM   21  C   UNK N   1      32.174  17.054   7.680  0.00  0.00     0.045 A 
HETATM   22  C   UNK N   1      30.794  16.901   7.655  0.00  0.00     0.032 A 
HETATM   23  C   UNK N   1      30.097  17.018   6.461  0.00  0.00     0.035 A 
BRANCH  19  24
HETATM   24  O   UNK N   1      32.817  17.530   4.077  0.00  0.00    -0.354 OA
HETATM   25  C   UNK N   1      33.185  16.482   3.263  0.00  0.00     0.210 C 
ENDBRANCH  19  24
BRANCH  21  26
HETATM   26  N   UNK N   1      32.819  17.048   8.941  0.00  0.00    -0.285 N 
HETATM   27  H   UNK N   1      32.360  17.506   9.682  0.00  0.00     0.178 HD
BRANCH  26  28
HETATM   28  S   UNK N   1      34.364  16.297   9.297  0.00  0.00     0.227 S 
HETATM   29  O   UNK N   1      34.105  15.592  10.634  0.00  0.00    -0.206 OA
HETATM   30  O   UNK N   1      35.266  17.459   9.747  0.00  0.00    -0.206 OA
HETATM   31  C   UNK N   1      35.177  15.191   8.110  0.00  0.00     0.186 C 
ENDBRANCH  26  28
ENDBRANCH  21  26
ENDBRANCH   1  18
TORSDOF 5
ENDMDL
MODEL 4
REMARK VINA RESULT:      -7.5      3.499      9.058
REMARK  5 active torsions:
REMARK  status: ('A' for Active; 'I' for Inactive)
REMARK    1  A    between atoms: S_1  and  N_8 
REMARK    2  A    between atoms: O_2  and  C_17 
REMARK    3  A    between atoms: N_5  and  C_9 
REMARK    4  A    between atoms: N_5  and  C_14 
REMARK    5  A    between atoms: N_8  and  C_18 
ROOT
HETATM    1  N   UNK N   1      33.570  17.626   7.208  0.00  0.00    -0.353 N 
HETATM    2  H   UNK N   1      34.092  18.354   6.797  0.00  0.00     0.166 HD
ENDROOT
BRANCH   1   3
HETATM    3  C   UNK N   1      32.217  17.453   6.738  0.00  0.00     0.058 A 
HETATM    4  C   UNK N   1      32.021  17.123   5.379  0.00  0.00     0.018 A 
HETATM    5  C   UNK N   1      30.709  16.908   4.889  0.00  0.00     0.045 A 
HETATM    6  C   UNK N   1      33.106  17.008   4.499  0.00  0.00     0.016 A 
HETATM    7  N   UNK N   1      29.642  17.011   5.713  0.00  0.00    -0.355 N 
HETATM    8  C   UNK N   1      30.510  16.588   3.543  0.00  0.00     0.030 A 
HETATM    9  C   UNK N   1      29.776  17.366   7.016  0.00  0.00     0.045 A 
ATOM     10  HN  UNK N   1      28.711  16.817   5.345  1.00  0.00     0.166 HD
HETATM   11  C   UNK N   1      31.059  17.626   7.558  0.00  0.00     0.018 A 
HETATM   12  C   UNK N   1      28.631  17.488   7.809  0.00  0.00     0.030 A 
HETATM   13  C   UNK N   1      31.127  18.074   8.889  0.00  0.00     0.016 A 
HETATM   14  C   UNK N   1      29.983  18.197   9.677  0.00  0.00     0.001 A 
HETATM   15  C   UNK N   1      28.736  17.888   9.143  0.00  0.00     0.002 A 
HETATM   16  C   UNK N   1      31.598  16.488   2.675  0.00  0.00     0.002 A 
HETATM   17  C   UNK N   1      32.894  16.697   3.151  0.00  0.00     0.001 A 
ENDBRANCH   1   3
BRANCH   1  18
HETATM   18  C   UNK N   1      34.232  16.850   8.210  0.00  0.00     0.066 A 
HETATM   19  C   UNK N   1      34.554  15.500   7.967  0.00  0.00     0.097 A 
HETATM   20  C   UNK N   1      35.339  14.796   8.910  0.00  0.00     0.069 A 
HETATM   21  C   UNK N   1      35.766  15.428  10.090  0.00  0.00     0.045 A 
HETATM   22  C   UNK N   1      35.337  16.720  10.366  0.00  0.00     0.032 A 
HETATM   23  C   UNK N   1      34.566  17.414   9.446  0.00  0.00     0.035 A 
BRANCH  19  24
HETATM   24  O   UNK N   1      34.125  14.908   6.825  0.00  0.00    -0.354 OA
HETATM   25  C   UNK N   1      34.927  14.099   6.051  0.00  0.00     0.210 C 
ENDBRANCH  19  24
BRANCH  21  26
HETATM   26  N   UNK N   1      36.651  14.813  11.008  0.00  0.00    -0.285 N 
HETATM   27  H   UNK N   1      37.614  14.871  10.811  0.00  0.00     0.178 HD
BRANCH  26  28
HETATM   28  S   UNK N   1      36.182  13.955  12.465  0.00  0.00     0.227 S 
HETATM   29  O   UNK N   1      34.652  13.927  12.370  0.00  0.00    -0.206 OA
HETATM   30  O   UNK N   1      36.387  14.973  13.599  0.00  0.00    -0.206 OA
HETATM   31  C   UNK N   1      36.853  12.315  12.857  0.00  0.00     0.186 C 
ENDBRANCH  26  28
ENDBRANCH  21  26
ENDBRANCH   1  18
TORSDOF 5
ENDMDL
MODEL 5
REMARK VINA RESULT:      -7.5      5.939     11.498
REMARK  5 active torsions:
REMARK  status: ('A' for Active; 'I' for Inactive)
REMARK    1  A    between atoms: S_1  and  N_8 
REMARK    2  A    between atoms: O_2  and  C_17 
REMARK    3  A    between atoms: N_5  and  C_9 
REMARK    4  A    between atoms: N_5  and  C_14 
REMARK    5  A    between atoms: N_8  and  C_18 
ROOT
HETATM    1  N   UNK N   1      30.071  17.790   4.127  0.00  0.00    -0.353 N 
HETATM    2  H   UNK N   1      30.566  18.308   3.452  0.00  0.00     0.166 HD
ENDROOT
BRANCH   1   3
HETATM    3  C   UNK N   1      28.705  17.453   3.811  0.00  0.00     0.058 A 
HETATM    4  C   UNK N   1      27.703  18.414   4.070  0.00  0.00     0.018 A 
HETATM    5  C   UNK N   1      26.355  18.134   3.738  0.00  0.00     0.045 A 
HETATM    6  C   UNK N   1      28.020  19.646   4.659  0.00  0.00     0.016 A 
HETATM    7  N   UNK N   1      26.018  16.954   3.169  0.00  0.00    -0.355 N 
HETATM    8  C   UNK N   1      25.360  19.079   4.000  0.00  0.00     0.030 A 
HETATM    9  C   UNK N   1      26.937  15.983   2.938  0.00  0.00     0.045 A 
ATOM     10  HN  UNK N   1      25.046  16.790   2.907  1.00  0.00     0.166 HD
HETATM   11  C   UNK N   1      28.297  16.190   3.278  0.00  0.00     0.018 A 
HETATM   12  C   UNK N   1      26.521  14.771   2.377  0.00  0.00     0.030 A 
HETATM   13  C   UNK N   1      29.186  15.116   3.096  0.00  0.00     0.016 A 
HETATM   14  C   UNK N   1      28.768  13.909   2.538  0.00  0.00     0.001 A 
HETATM   15  C   UNK N   1      27.438  13.741   2.163  0.00  0.00     0.002 A 
HETATM   16  C   UNK N   1      25.687  20.298   4.597  0.00  0.00     0.002 A 
HETATM   17  C   UNK N   1      27.014  20.581   4.926  0.00  0.00     0.001 A 
ENDBRANCH   1   3
BRANCH   1  18
HETATM   18  C   UNK N   1      30.781  17.450   5.321  0.00  0.00     0.066 A 
HETATM   19  C   UNK N   1      32.187  17.369   5.313  0.00  0.00     0.097 A 
HETATM   20  C   UNK N   1      32.876  17.179   6.535  0.00  0.00     0.069 A 
HETATM   21  C   UNK N   1      32.162  17.042   7.736  0.00  0.00     0.045 A 
HETATM   22  C   UNK N   1      30.774  17.004   7.706  0.00  0.00     0.032 A 
HETATM   23  C   UNK N   1      30.094  17.188   6.511  0.00  0.00     0.035 A 
BRANCH  19  24
HETATM   24  O   UNK N   1      32.856  17.497   4.140  0.00  0.00    -0.354 OA
HETATM   25  C   UNK N   1      33.142  16.429   3.319  0.00  0.00     0.210 C 
ENDBRANCH  19  24
BRANCH  21  26
HETATM   26  N   UNK N   1      32.799  16.972   8.999  0.00  0.00    -0.285 N 
HETATM   27  H   UNK N   1      32.328  17.375   9.763  0.00  0.00     0.178 HD
BRANCH  26  28
HETATM   28  S   UNK N   1      34.357  16.230   9.320  0.00  0.00     0.227 S 
HETATM   29  O   UNK N   1      34.127  15.508  10.653  0.00  0.00    -0.206 OA
HETATM   30  O   UNK N   1      35.257  17.394   9.767  0.00  0.00    -0.206 OA
HETATM   31  C   UNK N   1      35.158  15.145   8.106  0.00  0.00     0.186 C 
ENDBRANCH  26  28
ENDBRANCH  21  26
ENDBRANCH   1  18
TORSDOF 5
ENDMDL
MODEL 6
REMARK VINA RESULT:      -7.4      6.048     11.694
REMARK  5 active torsions:
REMARK  status: ('A' for Active; 'I' for Inactive)
REMARK    1  A    between atoms: S_1  and  N_8 
REMARK    2  A    between atoms: O_2  and  C_17 
REMARK    3  A    between atoms: N_5  and  C_9 
REMARK    4  A    between atoms: N_5  and  C_14 
REMARK    5  A    between atoms: N_8  and  C_18 
ROOT
HETATM    1  N   UNK N   1      27.552  16.791   7.320  0.00  0.00    -0.353 N 
HETATM    2  H   UNK N   1      26.993  16.395   8.028  0.00  0.00     0.166 HD
ENDROOT
BRANCH   1   3
HETATM    3  C   UNK N   1      26.938  16.951   6.024  0.00  0.00     0.058 A 
HETATM    4  C   UNK N   1      26.403  15.807   5.394  0.00  0.00     0.018 A 
HETATM    5  C   UNK N   1      25.759  15.930   4.139  0.00  0.00     0.045 A 
HETATM    6  C   UNK N   1      26.503  14.541   5.988  0.00  0.00     0.016 A 
HETATM    7  N   UNK N   1      25.646  17.137   3.540  0.00  0.00    -0.355 N 
HETATM    8  C   UNK N   1      25.235  14.799   3.507  0.00  0.00     0.030 A 
HETATM    9  C   UNK N   1      26.179  18.260   4.086  0.00  0.00     0.045 A 
ATOM     10  HN  UNK N   1      25.147  17.206   2.653  1.00  0.00     0.166 HD
HETATM   11  C   UNK N   1      26.864  18.196   5.324  0.00  0.00     0.018 A 
HETATM   12  C   UNK N   1      26.058  19.473   3.402  0.00  0.00     0.030 A 
HETATM   13  C   UNK N   1      27.470  19.373   5.796  0.00  0.00     0.016 A 
HETATM   14  C   UNK N   1      27.349  20.582   5.111  0.00  0.00     0.001 A 
HETATM   15  C   UNK N   1      26.629  20.636   3.922  0.00  0.00     0.002 A 
HETATM   16  C   UNK N   1      25.351  13.543   4.105  0.00  0.00     0.002 A 
HETATM   17  C   UNK N   1      25.984  13.413   5.343  0.00  0.00     0.001 A 
ENDBRANCH   1   3
BRANCH   1  18
HETATM   18  C   UNK N   1      28.888  17.148   7.682  0.00  0.00     0.066 A 
HETATM   19  C   UNK N   1      29.980  16.667   6.934  0.00  0.00     0.097 A 
HETATM   20  C   UNK N   1      31.279  17.151   7.217  0.00  0.00     0.069 A 
HETATM   21  C   UNK N   1      31.480  18.076   8.255  0.00  0.00     0.045 A 
HETATM   22  C   UNK N   1      30.409  18.445   9.058  0.00  0.00     0.032 A 
HETATM   23  C   UNK N   1      29.133  17.973   8.786  0.00  0.00     0.035 A 
BRANCH  19  24
HETATM   24  O   UNK N   1      29.765  15.768   5.942  0.00  0.00    -0.354 OA
HETATM   25  C   UNK N   1      30.574  14.673   5.731  0.00  0.00     0.210 C 
ENDBRANCH  19  24
BRANCH  21  26
HETATM   26  N   UNK N   1      32.735  18.684   8.504  0.00  0.00    -0.285 N 
HETATM   27  H   UNK N   1      32.728  19.569   8.934  0.00  0.00     0.178 HD
BRANCH  26  28
HETATM   28  S   UNK N   1      34.301  17.998   8.109  0.00  0.00     0.227 S 
HETATM   29  O   UNK N   1      35.275  19.115   8.502  0.00  0.00    -0.206 OA
HETATM   30  O   UNK N   1      34.380  18.065   6.575  0.00  0.00    -0.206 OA
HETATM   31  C   UNK N   1      34.828  16.393   8.774  0.00  0.00     0.186 C 
ENDBRANCH  26  28
ENDBRANCH  21  26
ENDBRANCH   1  18
TORSDOF 5
ENDMDL
MODEL 7
REMARK VINA RESULT:      -7.2      5.960     11.336
REMARK  5 active torsions:
REMARK  status: ('A' for Active; 'I' for Inactive)
REMARK    1  A    between atoms: S_1  and  N_8 
REMARK    2  A    between atoms: O_2  and  C_17 
REMARK    3  A    between atoms: N_5  and  C_9 
REMARK    4  A    between atoms: N_5  and  C_14 
REMARK    5  A    between atoms: N_8  and  C_18 
ROOT
HETATM    1  N   UNK N   1      27.619  16.807   7.206  0.00  0.00    -0.353 N 
HETATM    2  H   UNK N   1      27.035  16.433   7.906  0.00  0.00     0.166 HD
ENDROOT
BRANCH   1   3
HETATM    3  C   UNK N   1      27.047  16.943   5.889  0.00  0.00     0.058 A 
HETATM    4  C   UNK N   1      26.893  18.243   5.360  0.00  0.00     0.018 A 
HETATM    5  C   UNK N   1      26.370  18.415   4.055  0.00  0.00     0.045 A 
HETATM    6  C   UNK N   1      27.245  19.375   6.109  0.00  0.00     0.016 A 
HETATM    7  N   UNK N   1      26.021  17.344   3.307  0.00  0.00    -0.355 N 
HETATM    8  C   UNK N   1      26.209  19.701   3.530  0.00  0.00     0.030 A 
HETATM    9  C   UNK N   1      26.112  16.077   3.786  0.00  0.00     0.045 A 
ATOM     10  HN  UNK N   1      25.680  17.492   2.358  1.00  0.00     0.166 HD
HETATM   11  C   UNK N   1      26.597  15.841   5.096  0.00  0.00     0.018 A 
HETATM   12  C   UNK N   1      25.704  15.013   2.976  0.00  0.00     0.030 A 
HETATM   13  C   UNK N   1      26.586  14.517   5.568  0.00  0.00     0.016 A 
HETATM   14  C   UNK N   1      26.177  13.457   4.759  0.00  0.00     0.001 A 
HETATM   15  C   UNK N   1      25.752  13.703   3.456  0.00  0.00     0.002 A 
HETATM   16  C   UNK N   1      26.553  20.819   4.291  0.00  0.00     0.002 A 
HETATM   17  C   UNK N   1      27.070  20.657   5.578  0.00  0.00     0.001 A 
ENDBRANCH   1   3
BRANCH   1  18
HETATM   18  C   UNK N   1      28.948  17.158   7.601  0.00  0.00     0.066 A 
HETATM   19  C   UNK N   1      30.054  16.709   6.855  0.00  0.00     0.097 A 
HETATM   20  C   UNK N   1      31.346  17.190   7.174  0.00  0.00     0.069 A 
HETATM   21  C   UNK N   1      31.524  18.082   8.244  0.00  0.00     0.045 A 
HETATM   22  C   UNK N   1      30.439  18.418   9.042  0.00  0.00     0.032 A 
HETATM   23  C   UNK N   1      29.171  17.949   8.734  0.00  0.00     0.035 A 
BRANCH  19  24
HETATM   24  O   UNK N   1      29.859  15.841   5.831  0.00  0.00    -0.354 OA
HETATM   25  C   UNK N   1      30.475  14.611   5.761  0.00  0.00     0.210 C 
ENDBRANCH  19  24
BRANCH  21  26
HETATM   26  N   UNK N   1      32.772  18.688   8.532  0.00  0.00    -0.285 N 
HETATM   27  H   UNK N   1      32.752  19.577   8.956  0.00  0.00     0.178 HD
BRANCH  26  28
HETATM   28  S   UNK N   1      34.349  17.994   8.199  0.00  0.00     0.227 S 
HETATM   29  O   UNK N   1      35.309  19.136   8.553  0.00  0.00    -0.206 OA
HETATM   30  O   UNK N   1      34.454  17.987   6.665  0.00  0.00    -0.206 OA
HETATM   31  C   UNK N   1      34.874  16.428   8.951  0.00  0.00     0.186 C 
ENDBRANCH  26  28
ENDBRANCH  21  26
ENDBRANCH   1  18
TORSDOF 5
ENDMDL
MODEL 8
REMARK VINA RESULT:      -7.2     12.828     14.974
REMARK  5 active torsions:
REMARK  status: ('A' for Active; 'I' for Inactive)
REMARK    1  A    between atoms: S_1  and  N_8 
REMARK    2  A    between atoms: O_2  and  C_17 
REMARK    3  A    between atoms: N_5  and  C_9 
REMARK    4  A    between atoms: N_5  and  C_14 
REMARK    5  A    between atoms: N_8  and  C_18 
ROOT
HETATM    1  N   UNK N   1      24.112  17.272   3.893  0.00  0.00    -0.353 N 
HETATM    2  H   UNK N   1      23.601  17.513   3.086  0.00  0.00     0.166 HD
ENDROOT
BRANCH   1   3
HETATM    3  C   UNK N   1      25.550  17.344   3.795  0.00  0.00     0.058 A 
HETATM    4  C   UNK N   1      26.198  18.482   4.321  0.00  0.00     0.018 A 
HETATM    5  C   UNK N   1      27.611  18.572   4.277  0.00  0.00     0.045 A 
HETATM    6  C   UNK N   1      25.465  19.536   4.884  0.00  0.00     0.016 A 
HETATM    7  N   UNK N   1      28.347  17.572   3.740  0.00  0.00    -0.355 N 
HETATM    8  C   UNK N   1      28.257  19.700   4.789  0.00  0.00     0.030 A 
HETATM    9  C   UNK N   1      27.769  16.477   3.186  0.00  0.00     0.045 A 
ATOM     10  HN  UNK N   1      29.364  17.644   3.752  1.00  0.00     0.166 HD
HETATM   11  C   UNK N   1      26.358  16.343   3.169  0.00  0.00     0.018 A 
HETATM   12  C   UNK N   1      28.583  15.492   2.616  0.00  0.00     0.030 A 
HETATM   13  C   UNK N   1      25.815  15.231   2.504  0.00  0.00     0.016 A 
HETATM   14  C   UNK N   1      26.629  14.251   1.936  0.00  0.00     0.001 A 
HETATM   15  C   UNK N   1      28.014  14.373   2.006  0.00  0.00     0.002 A 
HETATM   16  C   UNK N   1      27.514  20.747   5.337  0.00  0.00     0.002 A 
HETATM   17  C   UNK N   1      26.120  20.666   5.385  0.00  0.00     0.001 A 
ENDBRANCH   1   3
BRANCH   1  18
HETATM   18  C   UNK N   1      23.353  16.886   5.041  0.00  0.00     0.066 A 
HETATM   19  C   UNK N   1      22.248  17.656   5.455  0.00  0.00     0.097 A 
HETATM   20  C   UNK N   1      21.423  17.176   6.499  0.00  0.00     0.069 A 
HETATM   21  C   UNK N   1      21.721  15.960   7.136  0.00  0.00     0.045 A 
HETATM   22  C   UNK N   1      22.881  15.277   6.795  0.00  0.00     0.032 A 
HETATM   23  C   UNK N   1      23.695  15.743   5.773  0.00  0.00     0.035 A 
BRANCH  19  24
HETATM   24  O   UNK N   1      21.983  18.831   4.831  0.00  0.00    -0.354 OA
HETATM   25  C   UNK N   1      20.901  19.012   3.999  0.00  0.00     0.210 C 
ENDBRANCH  19  24
BRANCH  21  26
HETATM   26  N   UNK N   1      20.866  15.374   8.101  0.00  0.00    -0.285 N 
HETATM   27  H   UNK N   1      20.057  15.877   8.348  0.00  0.00     0.178 HD
BRANCH  26  28
HETATM   28  S   UNK N   1      21.124  13.830   8.895  0.00  0.00     0.227 S 
HETATM   29  O   UNK N   1      20.769  12.817   7.801  0.00  0.00    -0.206 OA
HETATM   30  O   UNK N   1      19.922  13.674   9.841  0.00  0.00    -0.206 OA
HETATM   31  C   UNK N   1      22.705  13.424   9.688  0.00  0.00     0.186 C 
ENDBRANCH  26  28
ENDBRANCH  21  26
ENDBRANCH   1  18
TORSDOF 5
ENDMDL
MODEL 9
REMARK VINA RESULT:      -7.1     17.758     20.754
REMARK  5 active torsions:
REMARK  status: ('A' for Active; 'I' for Inactive)
REMARK    1  A    between atoms: S_1  and  N_8 
REMARK    2  A    between atoms: O_2  and  C_17 
REMARK    3  A    between atoms: N_5  and  C_9 
REMARK    4  A    between atoms: N_5  and  C_14 
REMARK    5  A    between atoms: N_8  and  C_18 
ROOT
HETATM    1  N   UNK N   1      29.665  22.666  -3.448  0.00  0.00    -0.353 N 
HETATM    2  H   UNK N   1      29.582  22.255  -2.557  0.00  0.00     0.166 HD
ENDROOT
BRANCH   1   3
HETATM    3  C   UNK N   1      30.279  21.862  -4.477  0.00  0.00     0.058 A 
HETATM    4  C   UNK N   1      31.535  21.278  -4.207  0.00  0.00     0.018 A 
HETATM    5  C   UNK N   1      32.151  20.450  -5.177  0.00  0.00     0.045 A 
HETATM    6  C   UNK N   1      32.192  21.507  -2.989  0.00  0.00     0.016 A 
HETATM    7  N   UNK N   1      31.543  20.210  -6.361  0.00  0.00    -0.355 N 
HETATM    8  C   UNK N   1      33.399  19.877  -4.917  0.00  0.00     0.030 A 
HETATM    9  C   UNK N   1      30.355  20.781  -6.684  0.00  0.00     0.045 A 
ATOM     10  HN  UNK N   1      31.991  19.583  -7.029  1.00  0.00     0.166 HD
HETATM   11  C   UNK N   1      29.704  21.644  -5.768  0.00  0.00     0.018 A 
HETATM   12  C   UNK N   1      29.793  20.519  -7.938  0.00  0.00     0.030 A 
HETATM   13  C   UNK N   1      28.521  22.273  -6.193  0.00  0.00     0.016 A 
HETATM   14  C   UNK N   1      27.963  22.012  -7.444  0.00  0.00     0.001 A 
HETATM   15  C   UNK N   1      28.590  21.122  -8.310  0.00  0.00     0.002 A 
HETATM   16  C   UNK N   1      34.047  20.123  -3.706  0.00  0.00     0.002 A 
HETATM   17  C   UNK N   1      33.445  20.936  -2.743  0.00  0.00     0.001 A 
ENDBRANCH   1   3
BRANCH   1  18
HETATM   18  C   UNK N   1      29.166  23.998  -3.589  0.00  0.00     0.066 A 
HETATM   19  C   UNK N   1      30.054  25.073  -3.786  0.00  0.00     0.097 A 
HETATM   20  C   UNK N   1      29.533  26.358  -4.072  0.00  0.00     0.069 A 
HETATM   21  C   UNK N   1      28.145  26.562  -4.127  0.00  0.00     0.045 A 
HETATM   22  C   UNK N   1      27.287  25.517  -3.810  0.00  0.00     0.032 A 
HETATM   23  C   UNK N   1      27.792  24.257  -3.528  0.00  0.00     0.035 A 
BRANCH  19  24
HETATM   24  O   UNK N   1      31.391  24.855  -3.722  0.00  0.00    -0.354 OA
HETATM   25  C   UNK N   1      32.229  24.993  -4.806  0.00  0.00     0.210 C 
ENDBRANCH  19  24
BRANCH  21  26
HETATM   26  N   UNK N   1      27.570  27.794  -4.526  0.00  0.00    -0.285 N 
HETATM   27  H   UNK N   1      27.673  28.052  -5.470  0.00  0.00     0.178 HD
BRANCH  26  28
HETATM   28  S   UNK N   1      26.692  28.900  -3.483  0.00  0.00     0.227 S 
HETATM   29  O   UNK N   1      27.416  28.754  -2.140  0.00  0.00    -0.206 OA
HETATM   30  O   UNK N   1      25.366  28.181  -3.183  0.00  0.00    -0.206 OA
HETATM   31  C   UNK N   1      26.465  30.644  -3.929  0.00  0.00     0.186 C 
ENDBRANCH  26  28
ENDBRANCH  21  26
ENDBRANCH   1  18
TORSDOF 5
ENDMDL
