REMARK  0 active torsions:
REMARK  status: ('A' for Active; 'I' for Inactive)
ROOT
HETATM    1  O   UNK N   1       2.829   2.580  -0.010  0.00  0.00    -0.265 OA
HETATM    2  O   UNK N   1       0.582  -1.360   0.005  0.00  0.00    -0.246 OA
HETATM    3  N   UNK N   1       2.842  -1.426   0.005  0.00  0.00    -0.287 N 
HETATM    4  N   UNK N   1       1.624   0.654  -0.003  0.00  0.00    -0.269 N 
HETATM    5  N   UNK N   1       5.260   1.090  -0.003  0.00  0.00    -0.345 N 
HETATM    6  N   UNK N   1       5.246  -1.167   0.004  0.00  0.00    -0.336 N 
ATOM      7  HN  UNK N   1       5.555  -2.138   0.007  1.00  0.00     0.168 HD
HETATM    8  C   UNK N   1       3.989  -0.701   0.003  0.00  0.00     0.145 A 
HETATM    9  C   UNK N   1       3.996   0.643  -0.002  0.00  0.00     0.147 A 
HETATM   10  C   UNK N   1       2.815   1.360  -0.005  0.00  0.00     0.281 A 
HETATM   11  C   UNK N   1       1.636  -0.740   0.003  0.00  0.00     0.332 A 
HETATM   12  C   UNK N   1       2.891  -2.883   0.008  0.00  0.00     0.163 C 
HETATM   13  C   UNK N   1       0.356   1.378  -0.006  0.00  0.00     0.164 C 
HETATM   14  C   UNK N   1       6.013  -0.043   0.001  0.00  0.00     0.182 A 
HETATM   15  H   UNK N   1       5.571   2.023  -0.005  0.00  0.00     0.167 HD
ENDROOT
TORSDOF 0
