MODEL 1
REMARK VINA RESULT:      -5.2      0.000      0.000
REMARK  0 active torsions:
REMARK  status: ('A' for Active; 'I' for Inactive)
ROOT
HETATM    1  O   UNK N   1      21.096  19.510   5.213  0.00  0.00    -0.265 OA
HETATM    2  O   UNK N   1      20.203  15.700   2.919  0.00  0.00    -0.246 OA
HETATM    3  N   UNK N   1      20.285  17.642   1.763  0.00  0.00    -0.287 N 
HETATM    4  N   UNK N   1      20.655  17.555   4.143  0.00  0.00    -0.269 N 
HETATM    5  N   UNK N   1      20.897  20.933   2.749  0.00  0.00    -0.345 N 
HETATM    6  N   UNK N   1      20.438  19.861   0.816  0.00  0.00    -0.336 N 
ATOM      7  HN  UNK N   1      20.254  19.675  -0.168  1.00  0.00     0.168 HD
HETATM    8  C   UNK N   1      20.480  18.983   1.828  0.00  0.00     0.145 A 
HETATM    9  C   UNK N   1      20.753  19.620   2.980  0.00  0.00     0.147 A 
HETATM   10  C   UNK N   1      20.848  18.926   4.171  0.00  0.00     0.281 A 
HETATM   11  C   UNK N   1      20.374  16.911   2.939  0.00  0.00     0.332 A 
HETATM   12  C   UNK N   1      19.989  17.001   0.487  0.00  0.00     0.163 C 
HETATM   13  C   UNK N   1      20.748  16.788   5.382  0.00  0.00     0.164 C 
HETATM   14  C   UNK N   1      20.699  21.058   1.409  0.00  0.00     0.182 A 
HETATM   15  H   UNK N   1      21.101  21.642   3.400  0.00  0.00     0.167 HD
ENDROOT
TORSDOF 0
ENDMDL
MODEL 2
REMARK VINA RESULT:      -5.1      7.264      9.800
REMARK  0 active torsions:
REMARK  status: ('A' for Active; 'I' for Inactive)
ROOT
HETATM    1  O   UNK N   1      19.803  13.168  10.221  0.00  0.00    -0.265 OA
HETATM    2  O   UNK N   1      23.148  14.384   7.409  0.00  0.00    -0.246 OA
HETATM    3  N   UNK N   1      23.704  13.311   9.320  0.00  0.00    -0.287 N 
HETATM    4  N   UNK N   1      21.415  13.813   8.756  0.00  0.00    -0.269 N 
HETATM    5  N   UNK N   1      21.782  12.065  11.953  0.00  0.00    -0.345 N 
HETATM    6  N   UNK N   1      23.975  12.158  11.428  0.00  0.00    -0.336 N 
ATOM      7  HN  UNK N   1      24.987  12.047  11.470  1.00  0.00     0.168 HD
HETATM    8  C   UNK N   1      23.248  12.738  10.462  0.00  0.00     0.145 A 
HETATM    9  C   UNK N   1      21.942  12.684  10.774  0.00  0.00     0.147 A 
HETATM   10  C   UNK N   1      20.987  13.220   9.931  0.00  0.00     0.281 A 
HETATM   11  C   UNK N   1      22.774  13.859   8.448  0.00  0.00     0.332 A 
HETATM   12  C   UNK N   1      25.132  13.345   9.031  0.00  0.00     0.163 C 
HETATM   13  C   UNK N   1      20.434  14.390   7.840  0.00  0.00     0.164 C 
HETATM   14  C   UNK N   1      23.048  11.749  12.336  0.00  0.00     0.182 A 
HETATM   15  H   UNK N   1      20.942  11.881  12.429  0.00  0.00     0.167 HD
ENDROOT
TORSDOF 0
ENDMDL
MODEL 3
REMARK VINA RESULT:      -4.9     14.114     15.269
REMARK  0 active torsions:
REMARK  status: ('A' for Active; 'I' for Inactive)
ROOT
HETATM    1  O   UNK N   1      34.763  18.693   8.049  0.00  0.00    -0.265 OA
HETATM    2  O   UNK N   1      32.861  14.919   6.402  0.00  0.00    -0.246 OA
HETATM    3  N   UNK N   1      33.660  14.870   8.517  0.00  0.00    -0.287 N 
HETATM    4  N   UNK N   1      33.795  16.847   7.145  0.00  0.00    -0.269 N 
HETATM    5  N   UNK N   1      35.229  17.287  10.485  0.00  0.00    -0.345 N 
HETATM    6  N   UNK N   1      34.601  15.132  10.728  0.00  0.00    -0.336 N 
ATOM      7  HN  UNK N   1      34.445  14.207  11.127  1.00  0.00     0.168 HD
HETATM    8  C   UNK N   1      34.275  15.569   9.504  0.00  0.00     0.145 A 
HETATM    9  C   UNK N   1      34.649  16.852   9.358  0.00  0.00     0.147 A 
HETATM   10  C   UNK N   1      34.420  17.529   8.175  0.00  0.00     0.281 A 
HETATM   11  C   UNK N   1      33.413  15.517   7.314  0.00  0.00     0.332 A 
HETATM   12  C   UNK N   1      33.277  13.479   8.727  0.00  0.00     0.163 C 
HETATM   13  C   UNK N   1      33.537  17.530   5.880  0.00  0.00     0.164 C 
HETATM   14  C   UNK N   1      35.188  16.210  11.316  0.00  0.00     0.182 A 
HETATM   15  H   UNK N   1      35.598  18.179  10.670  0.00  0.00     0.167 HD
ENDROOT
TORSDOF 0
ENDMDL
MODEL 4
REMARK VINA RESULT:      -4.9     11.382     12.542
REMARK  0 active torsions:
REMARK  status: ('A' for Active; 'I' for Inactive)
ROOT
HETATM    1  O   UNK N   1      29.882  17.025   5.038  0.00  0.00    -0.265 OA
HETATM    2  O   UNK N   1      34.306  17.585   5.867  0.00  0.00    -0.246 OA
HETATM    3  N   UNK N   1      32.889  17.563   7.629  0.00  0.00    -0.287 N 
HETATM    4  N   UNK N   1      32.113  17.300   5.362  0.00  0.00    -0.269 N 
HETATM    5  N   UNK N   1      29.426  17.191   7.848  0.00  0.00    -0.345 N 
HETATM    6  N   UNK N   1      31.135  17.496   9.291  0.00  0.00    -0.336 N 
ATOM      7  HN  UNK N   1      31.665  17.623  10.152  1.00  0.00     0.168 HD
HETATM    8  C   UNK N   1      31.599  17.450   8.035  0.00  0.00     0.145 A 
HETATM    9  C   UNK N   1      30.583  17.269   7.174  0.00  0.00     0.147 A 
HETATM   10  C   UNK N   1      30.809  17.189   5.814  0.00  0.00     0.281 A 
HETATM   11  C   UNK N   1      33.155  17.487   6.270  0.00  0.00     0.332 A 
HETATM   12  C   UNK N   1      33.954  17.761   8.605  0.00  0.00     0.163 C 
HETATM   13  C   UNK N   1      32.391  17.220   3.931  0.00  0.00     0.164 C 
HETATM   14  C   UNK N   1      29.791  17.333   9.151  0.00  0.00     0.182 A 
HETATM   15  H   UNK N   1      28.522  17.060   7.484  0.00  0.00     0.167 HD
ENDROOT
TORSDOF 0
ENDMDL
MODEL 5
REMARK VINA RESULT:      -4.8     11.310     11.945
REMARK  0 active torsions:
REMARK  status: ('A' for Active; 'I' for Inactive)
ROOT
HETATM    1  O   UNK N   1      34.409  17.554   6.159  0.00  0.00    -0.265 OA
HETATM    2  O   UNK N   1      30.367  17.279   8.198  0.00  0.00    -0.246 OA
HETATM    3  N   UNK N   1      30.432  17.129   5.943  0.00  0.00    -0.287 N 
HETATM    4  N   UNK N   1      32.427  17.427   7.262  0.00  0.00    -0.269 N 
HETATM    5  N   UNK N   1      33.070  17.241   3.662  0.00  0.00    -0.345 N 
HETATM    6  N   UNK N   1      30.828  17.005   3.561  0.00  0.00    -0.336 N 
ATOM      7  HN  UNK N   1      29.881  16.883   3.204  1.00  0.00     0.168 HD
HETATM    8  C   UNK N   1      31.218  17.133   4.837  0.00  0.00     0.145 A 
HETATM    9  C   UNK N   1      32.553  17.275   4.898  0.00  0.00     0.147 A 
HETATM   10  C   UNK N   1      33.197  17.425   6.111  0.00  0.00     0.281 A 
HETATM   11  C   UNK N   1      31.043  17.277   7.179  0.00  0.00     0.332 A 
HETATM   12  C   UNK N   1      28.987  16.974   5.820  0.00  0.00     0.163 C 
HETATM   13  C   UNK N   1      33.073  17.584   8.562  0.00  0.00     0.164 C 
HETATM   14  C   UNK N   1      31.988  17.074   2.854  0.00  0.00     0.182 A 
HETATM   15  H   UNK N   1      34.015  17.319   3.399  0.00  0.00     0.167 HD
ENDROOT
TORSDOF 0
ENDMDL
MODEL 6
REMARK VINA RESULT:      -4.7      7.086      8.994
REMARK  0 active torsions:
REMARK  status: ('A' for Active; 'I' for Inactive)
ROOT
HETATM    1  O   UNK N   1      22.991  11.409  11.181  0.00  0.00    -0.265 OA
HETATM    2  O   UNK N   1      19.572  14.045   9.789  0.00  0.00    -0.246 OA
HETATM    3  N   UNK N   1      21.535  14.175   8.676  0.00  0.00    -0.287 N 
HETATM    4  N   UNK N   1      21.226  12.694  10.551  0.00  0.00    -0.269 N 
HETATM    5  N   UNK N   1      24.582  12.528   9.096  0.00  0.00    -0.345 N 
HETATM    6  N   UNK N   1      23.744  14.087   7.696  0.00  0.00    -0.336 N 
ATOM      7  HN  UNK N   1      23.660  14.769   6.944  1.00  0.00     0.168 HD
HETATM    8  C   UNK N   1      22.809  13.717   8.583  0.00  0.00     0.145 A 
HETATM    9  C   UNK N   1      23.307  12.790   9.418  0.00  0.00     0.147 A 
HETATM   10  C   UNK N   1      22.531  12.251  10.426  0.00  0.00     0.281 A 
HETATM   11  C   UNK N   1      20.725  13.656   9.676  0.00  0.00     0.332 A 
HETATM   12  C   UNK N   1      21.045  15.185   7.745  0.00  0.00     0.163 C 
HETATM   13  C   UNK N   1      20.376  12.147  11.605  0.00  0.00     0.164 C 
HETATM   14  C   UNK N   1      24.829  13.339   8.032  0.00  0.00     0.182 A 
HETATM   15  H   UNK N   1      25.197  11.894   9.530  0.00  0.00     0.167 HD
ENDROOT
TORSDOF 0
ENDMDL
MODEL 7
REMARK VINA RESULT:      -4.6     13.542     14.860
REMARK  0 active torsions:
REMARK  status: ('A' for Active; 'I' for Inactive)
ROOT
HETATM    1  O   UNK N   1      32.227  13.554   8.799  0.00  0.00    -0.265 OA
HETATM    2  O   UNK N   1      32.805  17.321   6.339  0.00  0.00    -0.246 OA
HETATM    3  N   UNK N   1      33.880  17.172   8.323  0.00  0.00    -0.287 N 
HETATM    4  N   UNK N   1      32.459  15.406   7.503  0.00  0.00    -0.269 N 
HETATM    5  N   UNK N   1      33.968  14.675  10.759  0.00  0.00    -0.345 N 
HETATM    6  N   UNK N   1      34.888  16.716  10.473  0.00  0.00    -0.336 N 
ATOM      7  HN  UNK N   1      35.430  17.565  10.627  1.00  0.00     0.168 HD
HETATM    8  C   UNK N   1      34.114  16.411   9.421  0.00  0.00     0.145 A 
HETATM    9  C   UNK N   1      33.565  15.196   9.591  0.00  0.00     0.147 A 
HETATM   10  C   UNK N   1      32.722  14.658   8.638  0.00  0.00     0.281 A 
HETATM   11  C   UNK N   1      33.039  16.664   7.343  0.00  0.00     0.332 A 
HETATM   12  C   UNK N   1      34.499  18.485   8.190  0.00  0.00     0.163 C 
HETATM   13  C   UNK N   1      31.574  14.869   6.474  0.00  0.00     0.164 C 
HETATM   14  C   UNK N   1      34.782  15.630  11.285  0.00  0.00     0.182 A 
HETATM   15  H   UNK N   1      33.730  13.803  11.146  0.00  0.00     0.167 HD
ENDROOT
TORSDOF 0
ENDMDL
MODEL 8
REMARK VINA RESULT:      -4.6     21.310     21.860
REMARK  0 active torsions:
REMARK  status: ('A' for Active; 'I' for Inactive)
ROOT
HETATM    1  O   UNK N   1      41.469  24.346   1.366  0.00  0.00    -0.265 OA
HETATM    2  O   UNK N   1      40.515  20.005   0.460  0.00  0.00    -0.246 OA
HETATM    3  N   UNK N   1      41.943  20.447   2.157  0.00  0.00    -0.287 N 
HETATM    4  N   UNK N   1      40.936  22.200   0.843  0.00  0.00    -0.269 N 
HETATM    5  N   UNK N   1      43.168  23.439   3.468  0.00  0.00    -0.345 N 
HETATM    6  N   UNK N   1      43.423  21.238   3.897  0.00  0.00    -0.336 N 
ATOM      7  HN  UNK N   1      43.730  20.362   4.316  1.00  0.00     0.168 HD
HETATM    8  C   UNK N   1      42.578  21.410   2.870  0.00  0.00     0.145 A 
HETATM    9  C   UNK N   1      42.427  22.721   2.613  0.00  0.00     0.147 A 
HETATM   10  C   UNK N   1      41.602  23.154   1.593  0.00  0.00     0.281 A 
HETATM   11  C   UNK N   1      41.105  20.845   1.125  0.00  0.00     0.332 A 
HETATM   12  C   UNK N   1      42.145  19.039   2.476  0.00  0.00     0.163 C 
HETATM   13  C   UNK N   1      40.055  22.621  -0.243  0.00  0.00     0.164 C 
HETATM   14  C   UNK N   1      43.773  22.505   4.250  0.00  0.00     0.182 A 
HETATM   15  H   UNK N   1      43.254  24.418   3.519  0.00  0.00     0.167 HD
ENDROOT
TORSDOF 0
ENDMDL
MODEL 9
REMARK VINA RESULT:      -4.6     11.117     11.905
REMARK  0 active torsions:
REMARK  status: ('A' for Active; 'I' for Inactive)
ROOT
HETATM    1  O   UNK N   1      30.872  16.983   8.969  0.00  0.00    -0.265 OA
HETATM    2  O   UNK N   1      34.306  17.662   6.084  0.00  0.00    -0.246 OA
HETATM    3  N   UNK N   1      32.236  17.368   5.222  0.00  0.00    -0.287 N 
HETATM    4  N   UNK N   1      32.649  17.329   7.597  0.00  0.00    -0.269 N 
HETATM    5  N   UNK N   1      29.133  16.806   6.717  0.00  0.00    -0.345 N 
HETATM    6  N   UNK N   1      29.922  17.024   4.613  0.00  0.00    -0.336 N 
ATOM      7  HN  UNK N   1      29.969  17.076   3.597  1.00  0.00     0.168 HD
HETATM    8  C   UNK N   1      30.925  17.146   5.494  0.00  0.00     0.145 A 
HETATM    9  C   UNK N   1      30.457  17.016   6.747  0.00  0.00     0.147 A 
HETATM   10  C   UNK N   1      31.304  17.103   7.835  0.00  0.00     0.281 A 
HETATM   11  C   UNK N   1      33.117  17.462   6.290  0.00  0.00     0.332 A 
HETATM   12  C   UNK N   1      32.692  17.499   3.844  0.00  0.00     0.163 C 
HETATM   13  C   UNK N   1      33.574  17.427   8.722  0.00  0.00     0.164 C 
HETATM   14  C   UNK N   1      28.825  16.815   5.392  0.00  0.00     0.182 A 
HETATM   15  H   UNK N   1      28.524  16.676   7.478  0.00  0.00     0.167 HD
ENDROOT
TORSDOF 0
ENDMDL
