MODEL 1
REMARK VINA RESULT:      -6.5      0.000      0.000
REMARK  8 active torsions:
REMARK  status: ('A' for Active; 'I' for Inactive)
REMARK    1  A    between atoms: O_4  and  C_14 
REMARK    2  A    between atoms: O_4  and  C_18 
REMARK    3  A    between atoms: O_5  and  C_17 
REMARK    4  A    between atoms: O_7  and  C_23 
REMARK    5  A    between atoms: C_10  and  N_8 
REMARK    6  A    between atoms: C_9  and  C_10 
REMARK    7  A    between atoms: C_9  and  C_11 
REMARK    8  A    between atoms: C_10  and  C_17 
ROOT
HETATM    1  I   UNK N   1      28.527  17.921   9.025  0.00  0.00    -0.042 I 
HETATM    2  I   UNK N   1      31.815  16.347   3.850  0.00  0.00    -0.042 I 
HETATM    3  C   UNK N   1      28.329  18.752   4.842  0.00  0.00    -0.053 A 
HETATM    4  C   UNK N   1      29.355  18.081   4.189  0.00  0.00     0.028 A 
HETATM    5  C   UNK N   1      28.219  18.660   6.222  0.00  0.00     0.028 A 
HETATM    6  C   UNK N   1      30.214  17.255   6.332  0.00  0.00     0.109 A 
HETATM    7  C   UNK N   1      29.121  17.921   6.990  0.00  0.00     0.042 A 
HETATM    8  C   UNK N   1      30.284  17.341   4.922  0.00  0.00     0.042 A 
ENDROOT
BRANCH   6   9
HETATM    9  O   UNK N   1      31.210  16.515   6.916  0.00  0.00    -0.308 OA
BRANCH   9  10
HETATM   10  C   UNK N   1      32.311  16.709   7.689  0.00  0.00     0.077 A 
HETATM   11  C   UNK N   1      32.744  15.812   8.662  0.00  0.00     0.058 A 
HETATM   12  C   UNK N   1      33.882  16.070   9.432  0.00  0.00     0.042 A 
HETATM   13  I   UNK N   1      34.532  14.621  10.824  0.00  0.00    -0.042 I 
HETATM   14  C   UNK N   1      34.581  17.269   9.256  0.00  0.00     0.082 A 
HETATM   15  C   UNK N   1      34.144  18.191   8.303  0.00  0.00     0.040 A 
HETATM   16  C   UNK N   1      33.020  17.907   7.522  0.00  0.00     0.040 A 
BRANCH  14  17
HETATM   17  O   UNK N   1      35.672  17.539   9.994  0.00  0.00    -0.359 OA
HETATM   18  H   UNK N   1      35.810  18.405  10.327  0.00  0.00     0.217 HD
ENDBRANCH  14  17
ENDBRANCH   9  10
ENDBRANCH   6   9
BRANCH   3  19
HETATM   19  C   UNK N   1      27.350  19.595   4.098  0.00  0.00     0.074 C 
BRANCH  19  20
HETATM   20  C   UNK N   1      25.969  18.961   4.054  0.00  0.00     0.177 C 
BRANCH  20  21
HETATM   21  N   UNK N   1      26.047  17.647   3.437  0.00  0.00    -0.417 N 
HETATM   22  H   UNK N   1      25.673  16.832   3.924  0.00  0.00     0.150 HD
HETATM   23  H   UNK N   1      26.475  17.540   2.518  0.00  0.00     0.150 HD
ENDBRANCH  20  21
BRANCH  20  24
HETATM   24  C   UNK N   1      25.035  19.861   3.296  0.00  0.00     0.163 C 
HETATM   25  O   UNK N   1      23.845  19.862   3.566  0.00  0.00    -0.648 OA
BRANCH  24  26
HETATM   26  O   UNK N   1      25.495  20.661   2.314  0.00  0.00    -0.775 OA
HETATM   27  H   UNK N   1      26.344  20.516   1.943  0.00  0.00     0.167 HD
ENDBRANCH  24  26
ENDBRANCH  20  24
ENDBRANCH  19  20
ENDBRANCH   3  19
TORSDOF 8
ENDMDL
MODEL 2
REMARK VINA RESULT:      -6.4      3.080      8.300
REMARK  8 active torsions:
REMARK  status: ('A' for Active; 'I' for Inactive)
REMARK    1  A    between atoms: O_4  and  C_14 
REMARK    2  A    between atoms: O_4  and  C_18 
REMARK    3  A    between atoms: O_5  and  C_17 
REMARK    4  A    between atoms: O_7  and  C_23 
REMARK    5  A    between atoms: C_10  and  N_8 
REMARK    6  A    between atoms: C_9  and  C_10 
REMARK    7  A    between atoms: C_9  and  C_11 
REMARK    8  A    between atoms: C_10  and  C_17 
ROOT
HETATM    1  I   UNK N   1      29.106  17.968   9.075  0.00  0.00    -0.042 I 
HETATM    2  I   UNK N   1      31.836  16.795   3.485  0.00  0.00    -0.042 I 
HETATM    3  C   UNK N   1      33.081  17.484   7.595  0.00  0.00    -0.053 A 
HETATM    4  C   UNK N   1      33.040  17.253   6.227  0.00  0.00     0.028 A 
HETATM    5  C   UNK N   1      31.898  17.634   8.302  0.00  0.00     0.028 A 
HETATM    6  C   UNK N   1      30.589  17.263   6.273  0.00  0.00     0.109 A 
HETATM    7  C   UNK N   1      30.649  17.545   7.683  0.00  0.00     0.042 A 
HETATM    8  C   UNK N   1      31.812  17.145   5.573  0.00  0.00     0.042 A 
ENDROOT
BRANCH   6   9
HETATM    9  O   UNK N   1      29.464  17.109   5.503  0.00  0.00    -0.308 OA
BRANCH   9  10
HETATM   10  C   UNK N   1      28.353  17.813   5.159  0.00  0.00     0.077 A 
HETATM   11  C   UNK N   1      27.083  17.253   5.052  0.00  0.00     0.058 A 
HETATM   12  C   UNK N   1      25.978  18.028   4.686  0.00  0.00     0.042 A 
HETATM   13  I   UNK N   1      24.066  17.132   4.634  0.00  0.00    -0.042 I 
HETATM   14  C   UNK N   1      26.150  19.383   4.381  0.00  0.00     0.082 A 
HETATM   15  C   UNK N   1      27.423  19.952   4.458  0.00  0.00     0.040 A 
HETATM   16  C   UNK N   1      28.514  19.171   4.851  0.00  0.00     0.040 A 
BRANCH  14  17
HETATM   17  O   UNK N   1      25.101  20.141   4.019  0.00  0.00    -0.359 OA
HETATM   18  H   UNK N   1      24.228  19.822   4.140  0.00  0.00     0.217 HD
ENDBRANCH  14  17
ENDBRANCH   9  10
ENDBRANCH   6   9
BRANCH   3  19
HETATM   19  C   UNK N   1      34.374  17.552   8.336  0.00  0.00     0.074 C 
BRANCH  19  20
HETATM   20  C   UNK N   1      34.440  16.532   9.462  0.00  0.00     0.177 C 
BRANCH  20  21
HETATM   21  N   UNK N   1      34.975  17.155  10.662  0.00  0.00    -0.417 N 
HETATM   22  H   UNK N   1      34.893  18.164  10.794  0.00  0.00     0.150 HD
HETATM   23  H   UNK N   1      35.432  16.584  11.373  0.00  0.00     0.150 HD
ENDBRANCH  20  21
BRANCH  20  24
HETATM   24  C   UNK N   1      35.291  15.372   9.030  0.00  0.00     0.163 C 
HETATM   25  O   UNK N   1      34.979  14.729   8.040  0.00  0.00    -0.648 OA
BRANCH  24  26
HETATM   26  O   UNK N   1      36.392  15.027   9.727  0.00  0.00    -0.775 OA
HETATM   27  H   UNK N   1      36.574  14.126   9.908  0.00  0.00     0.167 HD
ENDBRANCH  24  26
ENDBRANCH  20  24
ENDBRANCH  19  20
ENDBRANCH   3  19
TORSDOF 8
ENDMDL
MODEL 3
REMARK VINA RESULT:      -6.4      0.258      2.233
REMARK  8 active torsions:
REMARK  status: ('A' for Active; 'I' for Inactive)
REMARK    1  A    between atoms: O_4  and  C_14 
REMARK    2  A    between atoms: O_4  and  C_18 
REMARK    3  A    between atoms: O_5  and  C_17 
REMARK    4  A    between atoms: O_7  and  C_23 
REMARK    5  A    between atoms: C_10  and  N_8 
REMARK    6  A    between atoms: C_9  and  C_10 
REMARK    7  A    between atoms: C_9  and  C_11 
REMARK    8  A    between atoms: C_10  and  C_17 
ROOT
HETATM    1  I   UNK N   1      31.850  16.686   3.757  0.00  0.00    -0.042 I 
HETATM    2  I   UNK N   1      28.558  17.953   9.013  0.00  0.00    -0.042 I 
HETATM    3  C   UNK N   1      28.261  18.774   4.751  0.00  0.00    -0.053 A 
HETATM    4  C   UNK N   1      28.059  18.716   6.124  0.00  0.00     0.028 A 
HETATM    5  C   UNK N   1      29.353  18.128   4.192  0.00  0.00     0.028 A 
HETATM    6  C   UNK N   1      30.039  17.294   6.383  0.00  0.00     0.109 A 
HETATM    7  C   UNK N   1      30.260  17.398   4.964  0.00  0.00     0.042 A 
HETATM    8  C   UNK N   1      28.936  17.988   6.930  0.00  0.00     0.042 A 
ENDROOT
BRANCH   6   9
HETATM    9  O   UNK N   1      30.796  16.602   7.293  0.00  0.00    -0.308 OA
BRANCH   9  10
HETATM   10  C   UNK N   1      31.983  16.726   7.944  0.00  0.00     0.077 A 
HETATM   11  C   UNK N   1      32.502  15.758   8.801  0.00  0.00     0.058 A 
HETATM   12  C   UNK N   1      33.727  15.946   9.449  0.00  0.00     0.042 A 
HETATM   13  I   UNK N   1      34.497  14.397  10.660  0.00  0.00    -0.042 I 
HETATM   14  C   UNK N   1      34.429  17.143   9.273  0.00  0.00     0.082 A 
HETATM   15  C   UNK N   1      33.908  18.134   8.438  0.00  0.00     0.040 A 
HETATM   16  C   UNK N   1      32.696  17.921   7.775  0.00  0.00     0.040 A 
BRANCH  14  17
HETATM   17  O   UNK N   1      35.603  17.346   9.895  0.00  0.00    -0.359 OA
HETATM   18  H   UNK N   1      35.689  17.150  10.808  0.00  0.00     0.217 HD
ENDBRANCH  14  17
ENDBRANCH   9  10
ENDBRANCH   6   9
BRANCH   3  19
HETATM   19  C   UNK N   1      27.317  19.497   3.853  0.00  0.00     0.074 C 
BRANCH  19  20
HETATM   20  C   UNK N   1      25.893  18.981   3.988  0.00  0.00     0.177 C 
BRANCH  20  21
HETATM   21  N   UNK N   1      25.814  17.615   3.498  0.00  0.00    -0.417 N 
HETATM   22  H   UNK N   1      25.474  17.430   2.553  0.00  0.00     0.150 HD
HETATM   23  H   UNK N   1      26.097  16.840   4.098  0.00  0.00     0.150 HD
ENDBRANCH  20  21
BRANCH  20  24
HETATM   24  C   UNK N   1      24.964  19.883   3.226  0.00  0.00     0.163 C 
HETATM   25  O   UNK N   1      25.421  20.683   2.425  0.00  0.00    -0.648 OA
BRANCH  24  26
HETATM   26  O   UNK N   1      23.632  19.825   3.422  0.00  0.00    -0.775 OA
HETATM   27  H   UNK N   1      23.108  20.598   3.341  0.00  0.00     0.167 HD
ENDBRANCH  24  26
ENDBRANCH  20  24
ENDBRANCH  19  20
ENDBRANCH   3  19
TORSDOF 8
ENDMDL
MODEL 4
REMARK VINA RESULT:      -6.3      3.088      8.578
REMARK  8 active torsions:
REMARK  status: ('A' for Active; 'I' for Inactive)
REMARK    1  A    between atoms: O_4  and  C_14 
REMARK    2  A    between atoms: O_4  and  C_18 
REMARK    3  A    between atoms: O_5  and  C_17 
REMARK    4  A    between atoms: O_7  and  C_23 
REMARK    5  A    between atoms: C_10  and  N_8 
REMARK    6  A    between atoms: C_9  and  C_10 
REMARK    7  A    between atoms: C_9  and  C_11 
REMARK    8  A    between atoms: C_10  and  C_17 
ROOT
HETATM    1  I   UNK N   1      31.485  16.336   3.722  0.00  0.00    -0.042 I 
HETATM    2  I   UNK N   1      28.599  17.826   9.156  0.00  0.00    -0.042 I 
HETATM    3  C   UNK N   1      32.670  17.443   7.671  0.00  0.00    -0.053 A 
HETATM    4  C   UNK N   1      31.540  17.634   8.456  0.00  0.00     0.028 A 
HETATM    5  C   UNK N   1      32.527  17.113   6.332  0.00  0.00     0.028 A 
HETATM    6  C   UNK N   1      30.094  17.216   6.521  0.00  0.00     0.109 A 
HETATM    7  C   UNK N   1      31.273  16.980   5.731  0.00  0.00     0.042 A 
HETATM    8  C   UNK N   1      30.269  17.521   7.891  0.00  0.00     0.042 A 
ENDROOT
BRANCH   6   9
HETATM    9  O   UNK N   1      28.789  17.165   6.103  0.00  0.00    -0.308 OA
BRANCH   9  10
HETATM   10  C   UNK N   1      27.896  17.942   5.434  0.00  0.00     0.077 A 
HETATM   11  C   UNK N   1      26.555  17.610   5.263  0.00  0.00     0.058 A 
HETATM   12  C   UNK N   1      25.684  18.447   4.558  0.00  0.00     0.042 A 
HETATM   13  I   UNK N   1      23.643  17.926   4.418  0.00  0.00    -0.042 I 
HETATM   14  C   UNK N   1      26.172  19.623   3.975  0.00  0.00     0.082 A 
HETATM   15  C   UNK N   1      27.521  19.955   4.115  0.00  0.00     0.040 A 
HETATM   16  C   UNK N   1      28.373  19.122   4.845  0.00  0.00     0.040 A 
BRANCH  14  17
HETATM   17  O   UNK N   1      25.353  20.435   3.286  0.00  0.00    -0.359 OA
HETATM   18  H   UNK N   1      25.026  21.218   3.683  0.00  0.00     0.217 HD
ENDBRANCH  14  17
ENDBRANCH   9  10
ENDBRANCH   6   9
BRANCH   3  19
HETATM   19  C   UNK N   1      34.043  17.607   8.228  0.00  0.00     0.074 C 
BRANCH  19  20
HETATM   20  C   UNK N   1      34.315  16.642   9.371  0.00  0.00     0.177 C 
BRANCH  20  21
HETATM   21  N   UNK N   1      35.009  17.331  10.446  0.00  0.00    -0.417 N 
HETATM   22  H   UNK N   1      35.460  16.795  11.189  0.00  0.00     0.150 HD
HETATM   23  H   UNK N   1      35.046  18.350  10.460  0.00  0.00     0.150 HD
ENDBRANCH  20  21
BRANCH  20  24
HETATM   24  C   UNK N   1      35.125  15.484   8.859  0.00  0.00     0.163 C 
HETATM   25  O   UNK N   1      34.835  14.970   7.790  0.00  0.00    -0.648 OA
BRANCH  24  26
HETATM   26  O   UNK N   1      36.163  15.002   9.570  0.00  0.00    -0.775 OA
HETATM   27  H   UNK N   1      37.016  15.379   9.476  0.00  0.00     0.167 HD
ENDBRANCH  24  26
ENDBRANCH  20  24
ENDBRANCH  19  20
ENDBRANCH   3  19
TORSDOF 8
ENDMDL
MODEL 5
REMARK VINA RESULT:      -6.3      7.805      8.777
REMARK  8 active torsions:
REMARK  status: ('A' for Active; 'I' for Inactive)
REMARK    1  A    between atoms: O_4  and  C_14 
REMARK    2  A    between atoms: O_4  and  C_18 
REMARK    3  A    between atoms: O_5  and  C_17 
REMARK    4  A    between atoms: O_7  and  C_23 
REMARK    5  A    between atoms: C_10  and  N_8 
REMARK    6  A    between atoms: C_9  and  C_10 
REMARK    7  A    between atoms: C_9  and  C_11 
REMARK    8  A    between atoms: C_10  and  C_17 
ROOT
HETATM    1  I   UNK N   1      20.217  16.417   7.395  0.00  0.00    -0.042 I 
HETATM    2  I   UNK N   1      23.168  12.750   3.163  0.00  0.00    -0.042 I 
HETATM    3  C   UNK N   1      21.056  16.552   3.211  0.00  0.00    -0.053 A 
HETATM    4  C   UNK N   1      21.749  15.406   2.842  0.00  0.00     0.028 A 
HETATM    5  C   UNK N   1      20.708  16.745   4.539  0.00  0.00     0.028 A 
HETATM    6  C   UNK N   1      21.801  14.655   5.175  0.00  0.00     0.109 A 
HETATM    7  C   UNK N   1      21.047  15.826   5.536  0.00  0.00     0.042 A 
HETATM    8  C   UNK N   1      22.116  14.469   3.809  0.00  0.00     0.042 A 
ENDROOT
BRANCH   6   9
HETATM    9  O   UNK N   1      22.249  13.665   6.011  0.00  0.00    -0.308 OA
BRANCH   9  10
HETATM   10  C   UNK N   1      23.026  13.533   7.119  0.00  0.00     0.077 A 
HETATM   11  C   UNK N   1      22.566  13.029   8.333  0.00  0.00     0.058 A 
HETATM   12  C   UNK N   1      23.412  12.925   9.442  0.00  0.00     0.042 A 
HETATM   13  I   UNK N   1      22.671  12.064  11.223  0.00  0.00    -0.042 I 
HETATM   14  C   UNK N   1      24.736  13.370   9.350  0.00  0.00     0.082 A 
HETATM   15  C   UNK N   1      25.203  13.903   8.147  0.00  0.00     0.040 A 
HETATM   16  C   UNK N   1      24.354  13.977   7.039  0.00  0.00     0.040 A 
BRANCH  14  17
HETATM   17  O   UNK N   1      25.560  13.287  10.407  0.00  0.00    -0.359 OA
HETATM   18  H   UNK N   1      25.688  12.464  10.839  0.00  0.00     0.217 HD
ENDBRANCH  14  17
ENDBRANCH   9  10
ENDBRANCH   6   9
BRANCH   3  19
HETATM   19  C   UNK N   1      20.694  17.600   2.214  0.00  0.00     0.074 C 
BRANCH  19  20
HETATM   20  C   UNK N   1      19.901  18.735   2.842  0.00  0.00     0.177 C 
BRANCH  20  21
HETATM   21  N   UNK N   1      18.537  18.722   2.341  0.00  0.00    -0.417 N 
HETATM   22  H   UNK N   1      18.311  19.190   1.462  0.00  0.00     0.150 HD
HETATM   23  H   UNK N   1      17.805  18.244   2.866  0.00  0.00     0.150 HD
ENDBRANCH  20  21
BRANCH  20  24
HETATM   24  C   UNK N   1      20.578  20.041   2.535  0.00  0.00     0.163 C 
HETATM   25  O   UNK N   1      21.123  20.200   1.454  0.00  0.00    -0.648 OA
BRANCH  24  26
HETATM   26  O   UNK N   1      20.595  21.038   3.441  0.00  0.00    -0.775 OA
HETATM   27  H   UNK N   1      20.398  20.863   4.341  0.00  0.00     0.167 HD
ENDBRANCH  24  26
ENDBRANCH  20  24
ENDBRANCH  19  20
ENDBRANCH   3  19
TORSDOF 8
ENDMDL
MODEL 6
REMARK VINA RESULT:      -6.3      3.380      8.633
REMARK  8 active torsions:
REMARK  status: ('A' for Active; 'I' for Inactive)
REMARK    1  A    between atoms: O_4  and  C_14 
REMARK    2  A    between atoms: O_4  and  C_18 
REMARK    3  A    between atoms: O_5  and  C_17 
REMARK    4  A    between atoms: O_7  and  C_23 
REMARK    5  A    between atoms: C_10  and  N_8 
REMARK    6  A    between atoms: C_9  and  C_10 
REMARK    7  A    between atoms: C_9  and  C_11 
REMARK    8  A    between atoms: C_10  and  C_17 
ROOT
HETATM    1  I   UNK N   1      27.041  21.148   6.545  0.00  0.00    -0.042 I 
HETATM    2  I   UNK N   1      28.140  15.569   3.764  0.00  0.00    -0.042 I 
HETATM    3  C   UNK N   1      29.319  17.641   7.402  0.00  0.00    -0.053 A 
HETATM    4  C   UNK N   1      29.169  16.729   6.367  0.00  0.00     0.028 A 
HETATM    5  C   UNK N   1      28.636  18.847   7.358  0.00  0.00     0.028 A 
HETATM    6  C   UNK N   1      27.578  18.221   5.247  0.00  0.00     0.109 A 
HETATM    7  C   UNK N   1      27.777  19.175   6.306  0.00  0.00     0.042 A 
HETATM    8  C   UNK N   1      28.312  17.013   5.303  0.00  0.00     0.042 A 
ENDROOT
BRANCH   6   9
HETATM    9  O   UNK N   1      26.758  18.349   4.156  0.00  0.00    -0.308 OA
BRANCH   9  10
HETATM   10  C   UNK N   1      25.592  18.962   3.817  0.00  0.00     0.077 A 
HETATM   11  C   UNK N   1      24.333  18.477   4.160  0.00  0.00     0.058 A 
HETATM   12  C   UNK N   1      23.168  19.148   3.777  0.00  0.00     0.042 A 
HETATM   13  I   UNK N   1      21.296  18.405   4.412  0.00  0.00    -0.042 I 
HETATM   14  C   UNK N   1      23.259  20.308   2.998  0.00  0.00     0.082 A 
HETATM   15  C   UNK N   1      24.514  20.791   2.623  0.00  0.00     0.040 A 
HETATM   16  C   UNK N   1      25.671  20.124   3.037  0.00  0.00     0.040 A 
BRANCH  14  17
HETATM   17  O   UNK N   1      22.150  20.961   2.612  0.00  0.00    -0.359 OA
HETATM   18  H   UNK N   1      22.010  21.152   1.704  0.00  0.00     0.217 HD
ENDBRANCH  14  17
ENDBRANCH   9  10
ENDBRANCH   6   9
BRANCH   3  19
HETATM   19  C   UNK N   1      30.185  17.349   8.580  0.00  0.00     0.074 C 
BRANCH  19  20
HETATM   20  C   UNK N   1      31.415  16.542   8.198  0.00  0.00     0.177 C 
BRANCH  20  21
HETATM   21  N   UNK N   1      31.948  15.867   9.371  0.00  0.00    -0.417 N 
HETATM   22  H   UNK N   1      31.324  15.592  10.130  0.00  0.00     0.150 HD
HETATM   23  H   UNK N   1      32.946  15.668   9.435  0.00  0.00     0.150 HD
ENDBRANCH  20  21
BRANCH  20  24
HETATM   24  C   UNK N   1      32.439  17.457   7.589  0.00  0.00     0.163 C 
HETATM   25  O   UNK N   1      32.669  17.395   6.392  0.00  0.00    -0.648 OA
BRANCH  24  26
HETATM   26  O   UNK N   1      33.111  18.343   8.350  0.00  0.00    -0.775 OA
HETATM   27  H   UNK N   1      32.958  18.385   9.274  0.00  0.00     0.167 HD
ENDBRANCH  24  26
ENDBRANCH  20  24
ENDBRANCH  19  20
ENDBRANCH   3  19
TORSDOF 8
ENDMDL
MODEL 7
REMARK VINA RESULT:      -6.0      4.027      6.138
REMARK  8 active torsions:
REMARK  status: ('A' for Active; 'I' for Inactive)
REMARK    1  A    between atoms: O_4  and  C_14 
REMARK    2  A    between atoms: O_4  and  C_18 
REMARK    3  A    between atoms: O_5  and  C_17 
REMARK    4  A    between atoms: O_7  and  C_23 
REMARK    5  A    between atoms: C_10  and  N_8 
REMARK    6  A    between atoms: C_9  and  C_10 
REMARK    7  A    between atoms: C_9  and  C_11 
REMARK    8  A    between atoms: C_10  and  C_17 
ROOT
HETATM    1  I   UNK N   1      26.328  20.232   3.817  0.00  0.00    -0.042 I 
HETATM    2  I   UNK N   1      23.548  15.013   6.075  0.00  0.00    -0.042 I 
HETATM    3  C   UNK N   1      22.413  18.531   3.783  0.00  0.00    -0.053 A 
HETATM    4  C   UNK N   1      22.423  17.334   4.488  0.00  0.00     0.028 A 
HETATM    5  C   UNK N   1      23.590  19.246   3.628  0.00  0.00     0.028 A 
HETATM    6  C   UNK N   1      24.841  17.535   4.844  0.00  0.00     0.109 A 
HETATM    7  C   UNK N   1      24.806  18.794   4.147  0.00  0.00     0.042 A 
HETATM    8  C   UNK N   1      23.619  16.843   5.012  0.00  0.00     0.042 A 
ENDROOT
BRANCH   6   9
HETATM    9  O   UNK N   1      25.936  16.917   5.390  0.00  0.00    -0.308 OA
BRANCH   9  10
HETATM   10  C   UNK N   1      27.257  16.747   5.120  0.00  0.00     0.077 A 
HETATM   11  C   UNK N   1      28.269  16.911   6.063  0.00  0.00     0.058 A 
HETATM   12  C   UNK N   1      29.613  16.730   5.724  0.00  0.00     0.042 A 
HETATM   13  I   UNK N   1      31.086  16.904   7.227  0.00  0.00    -0.042 I 
HETATM   14  C   UNK N   1      29.960  16.417   4.404  0.00  0.00     0.082 A 
HETATM   15  C   UNK N   1      28.958  16.276   3.442  0.00  0.00     0.040 A 
HETATM   16  C   UNK N   1      27.617  16.434   3.802  0.00  0.00     0.040 A 
BRANCH  14  17
HETATM   17  O   UNK N   1      31.247  16.248   4.057  0.00  0.00    -0.359 OA
HETATM   18  H   UNK N   1      31.463  15.835   3.244  0.00  0.00     0.217 HD
ENDBRANCH  14  17
ENDBRANCH   9  10
ENDBRANCH   6   9
BRANCH   3  19
HETATM   19  C   UNK N   1      21.164  19.060   3.163  0.00  0.00     0.074 C 
BRANCH  19  20
HETATM   20  C   UNK N   1      21.428  20.290   2.309  0.00  0.00     0.177 C 
BRANCH  20  21
HETATM   21  N   UNK N   1      20.739  21.440   2.870  0.00  0.00    -0.417 N 
HETATM   22  H   UNK N   1      21.247  22.309   3.036  0.00  0.00     0.150 HD
HETATM   23  H   UNK N   1      19.747  21.379   3.098  0.00  0.00     0.150 HD
ENDBRANCH  20  21
BRANCH  20  24
HETATM   24  C   UNK N   1      20.976  20.022   0.902  0.00  0.00     0.163 C 
HETATM   25  O   UNK N   1      21.138  20.873   0.042  0.00  0.00    -0.648 OA
BRANCH  24  26
HETATM   26  O   UNK N   1      20.385  18.854   0.578  0.00  0.00    -0.775 OA
HETATM   27  H   UNK N   1      20.767  18.041   0.843  0.00  0.00     0.167 HD
ENDBRANCH  24  26
ENDBRANCH  20  24
ENDBRANCH  19  20
ENDBRANCH   3  19
TORSDOF 8
ENDMDL
MODEL 8
REMARK VINA RESULT:      -5.9      3.651      9.141
REMARK  8 active torsions:
REMARK  status: ('A' for Active; 'I' for Inactive)
REMARK    1  A    between atoms: O_4  and  C_14 
REMARK    2  A    between atoms: O_4  and  C_18 
REMARK    3  A    between atoms: O_5  and  C_17 
REMARK    4  A    between atoms: O_7  and  C_23 
REMARK    5  A    between atoms: C_10  and  N_8 
REMARK    6  A    between atoms: C_9  and  C_10 
REMARK    7  A    between atoms: C_9  and  C_11 
REMARK    8  A    between atoms: C_10  and  C_17 
ROOT
HETATM    1  I   UNK N   1      26.347  15.744   2.936  0.00  0.00    -0.042 I 
HETATM    2  I   UNK N   1      26.890  21.148   6.188  0.00  0.00    -0.042 I 
HETATM    3  C   UNK N   1      28.777  17.229   6.117  0.00  0.00    -0.053 A 
HETATM    4  C   UNK N   1      28.399  18.531   6.417  0.00  0.00     0.028 A 
HETATM    5  C   UNK N   1      28.146  16.553   5.083  0.00  0.00     0.028 A 
HETATM    6  C   UNK N   1      26.771  18.510   4.584  0.00  0.00     0.109 A 
HETATM    7  C   UNK N   1      27.144  17.146   4.312  0.00  0.00     0.042 A 
HETATM    8  C   UNK N   1      27.409  19.163   5.664  0.00  0.00     0.042 A 
ENDROOT
BRANCH   6   9
HETATM    9  O   UNK N   1      25.839  19.265   3.920  0.00  0.00    -0.308 OA
BRANCH   9  10
HETATM   10  C   UNK N   1      24.489  19.334   3.779  0.00  0.00     0.077 A 
HETATM   11  C   UNK N   1      23.606  18.384   4.287  0.00  0.00     0.058 A 
HETATM   12  C   UNK N   1      22.225  18.506   4.103  0.00  0.00     0.042 A 
HETATM   13  I   UNK N   1      20.941  17.077   4.981  0.00  0.00    -0.042 I 
HETATM   14  C   UNK N   1      21.716  19.578   3.362  0.00  0.00     0.082 A 
HETATM   15  C   UNK N   1      22.590  20.523   2.823  0.00  0.00     0.040 A 
HETATM   16  C   UNK N   1      23.966  20.403   3.037  0.00  0.00     0.040 A 
BRANCH  14  17
HETATM   17  O   UNK N   1      20.392  19.706   3.167  0.00  0.00    -0.359 OA
HETATM   18  H   UNK N   1      19.845  18.945   3.146  0.00  0.00     0.217 HD
ENDBRANCH  14  17
ENDBRANCH   9  10
ENDBRANCH   6   9
BRANCH   3  19
HETATM   19  C   UNK N   1      29.867  16.540   6.866  0.00  0.00     0.074 C 
BRANCH  19  20
HETATM   20  C   UNK N   1      31.101  17.416   7.010  0.00  0.00     0.177 C 
BRANCH  20  21
HETATM   21  N   UNK N   1      32.242  16.769   6.383  0.00  0.00    -0.417 N 
HETATM   22  H   UNK N   1      32.303  15.751   6.359  0.00  0.00     0.150 HD
HETATM   23  H   UNK N   1      32.983  17.333   5.966  0.00  0.00     0.150 HD
ENDBRANCH  20  21
BRANCH  20  24
HETATM   24  C   UNK N   1      31.359  17.672   8.468  0.00  0.00     0.163 C 
HETATM   25  O   UNK N   1      30.660  18.468   9.074  0.00  0.00    -0.648 OA
BRANCH  24  26
HETATM   26  O   UNK N   1      32.359  17.039   9.113  0.00  0.00    -0.775 OA
HETATM   27  H   UNK N   1      32.663  16.206   8.811  0.00  0.00     0.167 HD
ENDBRANCH  24  26
ENDBRANCH  20  24
ENDBRANCH  19  20
ENDBRANCH   3  19
TORSDOF 8
ENDMDL
MODEL 9
REMARK VINA RESULT:      -5.9      9.728     12.154
REMARK  8 active torsions:
REMARK  status: ('A' for Active; 'I' for Inactive)
REMARK    1  A    between atoms: O_4  and  C_14 
REMARK    2  A    between atoms: O_4  and  C_18 
REMARK    3  A    between atoms: O_5  and  C_17 
REMARK    4  A    between atoms: O_7  and  C_23 
REMARK    5  A    between atoms: C_10  and  N_8 
REMARK    6  A    between atoms: C_9  and  C_10 
REMARK    7  A    between atoms: C_9  and  C_11 
REMARK    8  A    between atoms: C_10  and  C_17 
ROOT
HETATM    1  I   UNK N   1      23.697  12.603   9.714  0.00  0.00    -0.042 I 
HETATM    2  I   UNK N   1      19.767  11.932   4.798  0.00  0.00    -0.042 I 
HETATM    3  C   UNK N   1      23.251   9.907   6.434  0.00  0.00    -0.053 A 
HETATM    4  C   UNK N   1      22.172  10.303   5.655  0.00  0.00     0.028 A 
HETATM    5  C   UNK N   1      23.564  10.617   7.583  0.00  0.00     0.028 A 
HETATM    6  C   UNK N   1      21.669  12.117   7.226  0.00  0.00     0.109 A 
HETATM    7  C   UNK N   1      22.816  11.720   8.001  0.00  0.00     0.042 A 
HETATM    8  C   UNK N   1      21.392  11.393   6.043  0.00  0.00     0.042 A 
ENDROOT
BRANCH   6   9
HETATM    9  O   UNK N   1      20.801  13.144   7.492  0.00  0.00    -0.308 OA
BRANCH   9  10
HETATM   10  C   UNK N   1      20.786  14.504   7.468  0.00  0.00     0.077 A 
HETATM   11  C   UNK N   1      21.438  15.270   6.506  0.00  0.00     0.058 A 
HETATM   12  C   UNK N   1      21.392  16.667   6.538  0.00  0.00     0.042 A 
HETATM   13  I   UNK N   1      22.327  17.763   4.993  0.00  0.00    -0.042 I 
HETATM   14  C   UNK N   1      20.714  17.316   7.576  0.00  0.00     0.082 A 
HETATM   15  C   UNK N   1      20.078  16.561   8.563  0.00  0.00     0.040 A 
HETATM   16  C   UNK N   1      20.110  15.164   8.504  0.00  0.00     0.040 A 
BRANCH  14  17
HETATM   17  O   UNK N   1      20.667  18.658   7.629  0.00  0.00    -0.359 OA
HETATM   18  H   UNK N   1      20.327  19.086   8.391  0.00  0.00     0.217 HD
ENDBRANCH  14  17
ENDBRANCH   9  10
ENDBRANCH   6   9
BRANCH   3  19
HETATM   19  C   UNK N   1      24.075   8.716   6.079  0.00  0.00     0.074 C 
BRANCH  19  20
HETATM   20  C   UNK N   1      24.390   7.857   7.294  0.00  0.00     0.177 C 
BRANCH  20  21
HETATM   21  N   UNK N   1      25.715   7.275   7.158  0.00  0.00    -0.417 N 
HETATM   22  H   UNK N   1      26.067   6.635   7.871  0.00  0.00     0.150 HD
HETATM   23  H   UNK N   1      26.292   7.504   6.350  0.00  0.00     0.150 HD
ENDBRANCH  20  21
BRANCH  20  24
HETATM   24  C   UNK N   1      23.341   6.790   7.432  0.00  0.00     0.163 C 
HETATM   25  O   UNK N   1      22.324   6.851   6.759  0.00  0.00    -0.648 OA
BRANCH  24  26
HETATM   26  O   UNK N   1      23.507   5.769   8.295  0.00  0.00    -0.775 OA
HETATM   27  H   UNK N   1      23.138   5.812   9.156  0.00  0.00     0.167 HD
ENDBRANCH  24  26
ENDBRANCH  20  24
ENDBRANCH  19  20
ENDBRANCH   3  19
TORSDOF 8
ENDMDL
