REMARK  8 active torsions:
REMARK  status: ('A' for Active; 'I' for Inactive)
REMARK    1  A    between atoms: O_4  and  C_14 
REMARK    2  A    between atoms: O_4  and  C_18 
REMARK    3  A    between atoms: O_5  and  C_17 
REMARK    4  A    between atoms: O_7  and  C_23 
REMARK    5  A    between atoms: C_10  and  N_8 
REMARK    6  A    between atoms: C_9  and  C_10 
REMARK    7  A    between atoms: C_9  and  C_11 
REMARK    8  A    between atoms: C_10  and  C_17 
ROOT
HETATM    1  I   UNK N   1       6.443   0.211  -0.524  0.00  0.00    -0.042 I 
HETATM    2  I   UNK N   1       0.390   1.946   0.123  0.00  0.00    -0.042 I 
HETATM    3  C   UNK N   1       2.752  -1.690   0.470  0.00  0.00    -0.053 A 
HETATM    4  C   UNK N   1       1.726  -0.755   0.431  0.00  0.00     0.028 A 
HETATM    5  C   UNK N   1       4.055  -1.289   0.217  0.00  0.00     0.028 A 
HETATM    6  C   UNK N   1       3.334   1.028  -0.065  0.00  0.00     0.109 A 
HETATM    7  C   UNK N   1       4.381   0.040  -0.063  0.00  0.00     0.042 A 
HETATM    8  C   UNK N   1       2.011   0.585   0.166  0.00  0.00     0.042 A 
ENDROOT
BRANCH   6   9
HETATM    9  O   UNK N   1       3.463   2.375  -0.285  0.00  0.00    -0.308 OA
BRANCH   9  10
HETATM   10  C   UNK N   1       4.423   3.336  -0.223  0.00  0.00     0.077 A 
HETATM   11  C   UNK N   1       5.753   3.083   0.103  0.00  0.00     0.058 A 
HETATM   12  C   UNK N   1       6.695   4.115   0.158  0.00  0.00     0.042 A 
HETATM   13  I   UNK N   1       8.713   3.645   0.567  0.00  0.00    -0.042 I 
HETATM   14  C   UNK N   1       6.293   5.435  -0.077  0.00  0.00     0.082 A 
HETATM   15  C   UNK N   1       4.957   5.707  -0.378  0.00  0.00     0.040 A 
HETATM   16  C   UNK N   1       4.032   4.662  -0.456  0.00  0.00     0.040 A 
BRANCH  14  17
HETATM   17  O   UNK N   1       7.182   6.441  -0.019  0.00  0.00    -0.359 OA
HETATM   18  H   UNK N   1       8.100   6.254   0.021  0.00  0.00     0.217 HD
ENDBRANCH  14  17
ENDBRANCH   9  10
ENDBRANCH   6   9
BRANCH   3  19
HETATM   19  C   UNK N   1       2.492  -3.120   0.802  0.00  0.00     0.074 C 
BRANCH  19  20
HETATM   20  C   UNK N   1       1.850  -3.867  -0.356  0.00  0.00     0.177 C 
BRANCH  20  21
HETATM   21  N   UNK N   1       0.409  -3.676  -0.330  0.00  0.00    -0.417 N 
HETATM   22  H   UNK N   1       0.019  -2.733  -0.312  0.00  0.00     0.150 HD
HETATM   23  H   UNK N   1      -0.213  -4.484  -0.330  0.00  0.00     0.150 HD
ENDBRANCH  20  21
BRANCH  20  24
HETATM   24  C   UNK N   1       2.204  -5.324  -0.263  0.00  0.00     0.163 C 
HETATM   25  O   UNK N   1       3.375  -5.666  -0.312  0.00  0.00    -0.648 OA
BRANCH  24  26
HETATM   26  O   UNK N   1       1.243  -6.260  -0.133  0.00  0.00    -0.775 OA
HETATM   27  H   UNK N   1       0.345  -6.007  -0.043  0.00  0.00     0.167 HD
ENDBRANCH  24  26
ENDBRANCH  20  24
ENDBRANCH  19  20
ENDBRANCH   3  19
TORSDOF 8
