MODEL 1
REMARK VINA RESULT:      -5.5      0.000      0.000
REMARK  5 active torsions:
REMARK  status: ('A' for Active; 'I' for Inactive)
REMARK    1  A    between atoms: N_2  and  C_4 
REMARK    2  A    between atoms: N_2  and  C_5 
REMARK    3  A    between atoms: N_2  and  C_6 
REMARK    4  A    between atoms: N_3  and  C_7 
REMARK       I    between atoms: N_3  and  C_8 
REMARK    5  A    between atoms: C_4  and  C_8 
ROOT
HETATM    1  O   UNK N   1      37.197  12.960  14.880  0.00  0.00    -0.271 OA
HETATM    2  N   UNK N   1      34.995  13.024  15.305  0.00  0.00    -0.325 N 
HETATM    3  C   UNK N   1      36.095  13.407  14.602  0.00  0.00     0.250 C 
HETATM    4  H   UNK N   1      34.119  13.347  14.993  0.00  0.00     0.169 HD
ENDROOT
BRANCH   2   5
HETATM    5  C   UNK N   1      35.021  12.187  16.466  0.00  0.00     0.046 A 
HETATM    6  C   UNK N   1      35.225  12.698  17.777  0.00  0.00    -0.035 A 
HETATM    7  C   UNK N   1      35.256  11.824  18.868  0.00  0.00     0.009 A 
HETATM    8  C   UNK N   1      35.357  14.156  18.058  0.00  0.00     0.050 C 
HETATM    9  C   UNK N   1      35.088  10.453  18.684  0.00  0.00     0.001 A 
HETATM   10  C   UNK N   1      34.863   9.945  17.406  0.00  0.00     0.009 A 
HETATM   11  C   UNK N   1      34.822  10.801  16.302  0.00  0.00    -0.035 A 
HETATM   12  C   UNK N   1      34.588  10.216  14.951  0.00  0.00     0.050 C 
ENDBRANCH   2   5
BRANCH   3  13
HETATM   13  C   UNK N   1      35.937  14.260  13.368  0.00  0.00     0.374 C 
BRANCH  13  14
HETATM   14  N   UNK N   1      35.037  13.709  12.341  0.00  0.00     0.096 N 
BRANCH  14  15
HETATM   15  C   UNK N   1      34.676  14.711  11.346  0.00  0.00     0.268 C 
HETATM   16  C   UNK N   1      35.599  15.909  11.471  0.00  0.00     0.037 C 
ENDBRANCH  14  15
BRANCH  14  17
HETATM   17  C   UNK N   1      35.806  12.709  11.611  0.00  0.00     0.268 C 
HETATM   18  C   UNK N   1      35.022  11.418  11.472  0.00  0.00     0.037 C 
ENDBRANCH  14  17
ENDBRANCH  13  14
ENDBRANCH   3  13
TORSDOF 5
ENDMDL
MODEL 2
REMARK VINA RESULT:      -5.4      1.794      3.132
REMARK  5 active torsions:
REMARK  status: ('A' for Active; 'I' for Inactive)
REMARK    1  A    between atoms: N_2  and  C_4 
REMARK    2  A    between atoms: N_2  and  C_5 
REMARK    3  A    between atoms: N_2  and  C_6 
REMARK    4  A    between atoms: N_3  and  C_7 
REMARK       I    between atoms: N_3  and  C_8 
REMARK    5  A    between atoms: C_4  and  C_8 
ROOT
HETATM    1  O   UNK N   1      35.013  13.887  13.338  0.00  0.00    -0.271 OA
HETATM    2  N   UNK N   1      36.909  13.434  14.451  0.00  0.00    -0.325 N 
HETATM    3  C   UNK N   1      36.188  13.554  13.303  0.00  0.00     0.250 C 
HETATM    4  H   UNK N   1      37.870  13.243  14.368  0.00  0.00     0.169 HD
ENDROOT
BRANCH   2   5
HETATM    5  C   UNK N   1      36.368  13.566  15.770  0.00  0.00     0.046 A 
HETATM    6  C   UNK N   1      35.601  12.542  16.391  0.00  0.00    -0.035 A 
HETATM    7  C   UNK N   1      35.087  12.740  17.676  0.00  0.00     0.009 A 
HETATM    8  C   UNK N   1      35.358  11.219  15.747  0.00  0.00     0.050 C 
HETATM    9  C   UNK N   1      35.319  13.933  18.357  0.00  0.00     0.001 A 
HETATM   10  C   UNK N   1      36.090  14.933  17.767  0.00  0.00     0.009 A 
HETATM   11  C   UNK N   1      36.618  14.754  16.486  0.00  0.00    -0.035 A 
HETATM   12  C   UNK N   1      37.430  15.852  15.887  0.00  0.00     0.050 C 
ENDBRANCH   2   5
BRANCH   3  13
HETATM   13  C   UNK N   1      36.879  13.435  11.968  0.00  0.00     0.374 C 
BRANCH  13  14
HETATM   14  N   UNK N   1      36.095  13.912  10.817  0.00  0.00     0.096 N 
BRANCH  14  15
HETATM   15  C   UNK N   1      36.549  15.220  10.360  0.00  0.00     0.268 C 
HETATM   16  C   UNK N   1      35.603  16.293  10.867  0.00  0.00     0.037 C 
ENDBRANCH  14  15
BRANCH  14  17
HETATM   17  C   UNK N   1      36.384  13.004   9.714  0.00  0.00     0.268 C 
HETATM   18  C   UNK N   1      35.967  13.612   8.389  0.00  0.00     0.037 C 
ENDBRANCH  14  17
ENDBRANCH  13  14
ENDBRANCH   3  13
TORSDOF 5
ENDMDL
MODEL 3
REMARK VINA RESULT:      -5.4      2.105      3.730
REMARK  5 active torsions:
REMARK  status: ('A' for Active; 'I' for Inactive)
REMARK    1  A    between atoms: N_2  and  C_4 
REMARK    2  A    between atoms: N_2  and  C_5 
REMARK    3  A    between atoms: N_2  and  C_6 
REMARK    4  A    between atoms: N_3  and  C_7 
REMARK       I    between atoms: N_3  and  C_8 
REMARK    5  A    between atoms: C_4  and  C_8 
ROOT
HETATM    1  O   UNK N   1      35.042  13.817  13.352  0.00  0.00    -0.271 OA
HETATM    2  N   UNK N   1      36.930  13.405  14.494  0.00  0.00    -0.325 N 
HETATM    3  C   UNK N   1      36.219  13.489  13.337  0.00  0.00     0.250 C 
HETATM    4  H   UNK N   1      37.893  13.217  14.425  0.00  0.00     0.169 HD
ENDROOT
BRANCH   2   5
HETATM    5  C   UNK N   1      36.376  13.570  15.804  0.00  0.00     0.046 A 
HETATM    6  C   UNK N   1      35.602  12.563  16.443  0.00  0.00    -0.035 A 
HETATM    7  C   UNK N   1      35.076  12.793  17.717  0.00  0.00     0.009 A 
HETATM    8  C   UNK N   1      35.364  11.224  15.830  0.00  0.00     0.050 C 
HETATM    9  C   UNK N   1      35.303  14.003  18.371  0.00  0.00     0.001 A 
HETATM   10  C   UNK N   1      36.080  14.987  17.763  0.00  0.00     0.009 A 
HETATM   11  C   UNK N   1      36.621  14.776  16.492  0.00  0.00    -0.035 A 
HETATM   12  C   UNK N   1      37.439  15.857  15.874  0.00  0.00     0.050 C 
ENDBRANCH   2   5
BRANCH   3  13
HETATM   13  C   UNK N   1      36.923  13.337  12.012  0.00  0.00     0.374 C 
BRANCH  13  14
HETATM   14  N   UNK N   1      37.627  12.058  11.825  0.00  0.00     0.096 N 
BRANCH  14  15
HETATM   15  C   UNK N   1      36.738  10.919  12.016  0.00  0.00     0.268 C 
HETATM   16  C   UNK N   1      37.394   9.911  12.942  0.00  0.00     0.037 C 
ENDBRANCH  14  15
BRANCH  14  17
HETATM   17  C   UNK N   1      38.018  12.002  10.422  0.00  0.00     0.268 C 
HETATM   18  C   UNK N   1      38.955  13.143  10.074  0.00  0.00     0.037 C 
ENDBRANCH  14  17
ENDBRANCH  13  14
ENDBRANCH   3  13
TORSDOF 5
ENDMDL
MODEL 4
REMARK VINA RESULT:      -5.4     21.556     24.398
REMARK  5 active torsions:
REMARK  status: ('A' for Active; 'I' for Inactive)
REMARK    1  A    between atoms: N_2  and  C_4 
REMARK    2  A    between atoms: N_2  and  C_5 
REMARK    3  A    between atoms: N_2  and  C_6 
REMARK    4  A    between atoms: N_3  and  C_7 
REMARK       I    between atoms: N_3  and  C_8 
REMARK    5  A    between atoms: C_4  and  C_8 
ROOT
HETATM    1  O   UNK N   1      26.401  23.910  -3.202  0.00  0.00    -0.271 OA
HETATM    2  N   UNK N   1      28.271  24.808  -4.058  0.00  0.00    -0.325 N 
HETATM    3  C   UNK N   1      27.036  24.911  -3.497  0.00  0.00     0.250 C 
HETATM    4  H   UNK N   1      28.777  25.639  -4.203  0.00  0.00     0.169 HD
ENDROOT
BRANCH   2   5
HETATM    5  C   UNK N   1      28.886  23.576  -4.453  0.00  0.00     0.046 A 
HETATM    6  C   UNK N   1      29.659  22.784  -3.560  0.00  0.00    -0.035 A 
HETATM    7  C   UNK N   1      30.246  21.598  -4.013  0.00  0.00     0.009 A 
HETATM    8  C   UNK N   1      29.833  23.134  -2.121  0.00  0.00     0.050 C 
HETATM    9  C   UNK N   1      30.081  21.184  -5.333  0.00  0.00     0.001 A 
HETATM   10  C   UNK N   1      29.306  21.941  -6.209  0.00  0.00     0.009 A 
HETATM   11  C   UNK N   1      28.704  23.126  -5.776  0.00  0.00    -0.035 A 
HETATM   12  C   UNK N   1      27.890  23.911  -6.747  0.00  0.00     0.050 C 
ENDBRANCH   2   5
BRANCH   3  13
HETATM   13  C   UNK N   1      26.510  26.263  -3.084  0.00  0.00     0.374 C 
BRANCH  13  14
HETATM   14  N   UNK N   1      26.621  27.313  -4.110  0.00  0.00     0.096 N 
BRANCH  14  15
HETATM   15  C   UNK N   1      25.313  27.740  -4.589  0.00  0.00     0.268 C 
HETATM   16  C   UNK N   1      24.906  26.896  -5.783  0.00  0.00     0.037 C 
ENDBRANCH  14  15
BRANCH  14  17
HETATM   17  C   UNK N   1      27.183  28.483  -3.447  0.00  0.00     0.268 C 
HETATM   18  C   UNK N   1      26.535  29.756  -3.954  0.00  0.00     0.037 C 
ENDBRANCH  14  17
ENDBRANCH  13  14
ENDBRANCH   3  13
TORSDOF 5
ENDMDL
MODEL 5
REMARK VINA RESULT:      -5.3      0.631      2.683
REMARK  5 active torsions:
REMARK  status: ('A' for Active; 'I' for Inactive)
REMARK    1  A    between atoms: N_2  and  C_4 
REMARK    2  A    between atoms: N_2  and  C_5 
REMARK    3  A    between atoms: N_2  and  C_6 
REMARK    4  A    between atoms: N_3  and  C_7 
REMARK       I    between atoms: N_3  and  C_8 
REMARK    5  A    between atoms: C_4  and  C_8 
ROOT
HETATM    1  O   UNK N   1      37.213  12.882  15.039  0.00  0.00    -0.271 OA
HETATM    2  N   UNK N   1      35.037  13.049  15.564  0.00  0.00    -0.325 N 
HETATM    3  C   UNK N   1      36.122  13.381  14.812  0.00  0.00     0.250 C 
HETATM    4  H   UNK N   1      34.165  13.414  15.293  0.00  0.00     0.169 HD
ENDROOT
BRANCH   2   5
HETATM    5  C   UNK N   1      35.077  12.206  16.721  0.00  0.00     0.046 A 
HETATM    6  C   UNK N   1      34.962  10.791  16.644  0.00  0.00    -0.035 A 
HETATM    7  C   UNK N   1      34.992  10.026  17.814  0.00  0.00     0.009 A 
HETATM    8  C   UNK N   1      34.863  10.063  15.347  0.00  0.00     0.050 C 
HETATM    9  C   UNK N   1      35.135  10.637  19.059  0.00  0.00     0.001 A 
HETATM   10  C   UNK N   1      35.272  12.021  19.142  0.00  0.00     0.009 A 
HETATM   11  C   UNK N   1      35.251  12.805  17.986  0.00  0.00    -0.035 A 
HETATM   12  C   UNK N   1      35.392  14.283  18.120  0.00  0.00     0.050 C 
ENDBRANCH   2   5
BRANCH   3  13
HETATM   13  C   UNK N   1      35.949  14.246  13.589  0.00  0.00     0.374 C 
BRANCH  13  14
HETATM   14  N   UNK N   1      36.299  13.598  12.314  0.00  0.00     0.096 N 
BRANCH  14  15
HETATM   15  C   UNK N   1      35.391  12.502  11.998  0.00  0.00     0.268 C 
HETATM   16  C   UNK N   1      36.182  11.219  11.825  0.00  0.00     0.037 C 
ENDBRANCH  14  15
BRANCH  14  17
HETATM   17  C   UNK N   1      36.076  14.589  11.270  0.00  0.00     0.268 C 
HETATM   18  C   UNK N   1      34.607  14.958  11.178  0.00  0.00     0.037 C 
ENDBRANCH  14  17
ENDBRANCH  13  14
ENDBRANCH   3  13
TORSDOF 5
ENDMDL
MODEL 6
REMARK VINA RESULT:      -5.2      2.155      3.229
REMARK  5 active torsions:
REMARK  status: ('A' for Active; 'I' for Inactive)
REMARK    1  A    between atoms: N_2  and  C_4 
REMARK    2  A    between atoms: N_2  and  C_5 
REMARK    3  A    between atoms: N_2  and  C_6 
REMARK    4  A    between atoms: N_3  and  C_7 
REMARK       I    between atoms: N_3  and  C_8 
REMARK    5  A    between atoms: C_4  and  C_8 
ROOT
HETATM    1  O   UNK N   1      35.069  14.174  13.173  0.00  0.00    -0.271 OA
HETATM    2  N   UNK N   1      36.899  13.445  14.249  0.00  0.00    -0.325 N 
HETATM    3  C   UNK N   1      36.190  13.691  13.114  0.00  0.00     0.250 C 
HETATM    4  H   UNK N   1      37.826  13.133  14.149  0.00  0.00     0.169 HD
ENDROOT
BRANCH   2   5
HETATM    5  C   UNK N   1      36.390  13.608  15.578  0.00  0.00     0.046 A 
HETATM    6  C   UNK N   1      36.660  14.760  16.367  0.00  0.00    -0.035 A 
HETATM    7  C   UNK N   1      36.146  14.850  17.664  0.00  0.00     0.009 A 
HETATM    8  C   UNK N   1      37.435  15.924  15.850  0.00  0.00     0.050 C 
HETATM    9  C   UNK N   1      35.369  13.821  18.193  0.00  0.00     0.001 A 
HETATM   10  C   UNK N   1      35.079  12.699  17.419  0.00  0.00     0.009 A 
HETATM   11  C   UNK N   1      35.577  12.590  16.118  0.00  0.00    -0.035 A 
HETATM   12  C   UNK N   1      35.252  11.370  15.326  0.00  0.00     0.050 C 
ENDBRANCH   2   5
BRANCH   3  13
HETATM   13  C   UNK N   1      36.848  13.522  11.768  0.00  0.00     0.374 C 
BRANCH  13  14
HETATM   14  N   UNK N   1      37.848  12.444  11.696  0.00  0.00     0.096 N 
BRANCH  14  15
HETATM   15  C   UNK N   1      37.225  11.142  11.492  0.00  0.00     0.268 C 
HETATM   16  C   UNK N   1      37.598  10.215  12.634  0.00  0.00     0.037 C 
ENDBRANCH  14  15
BRANCH  14  17
HETATM   17  C   UNK N   1      38.629  12.684  10.488  0.00  0.00     0.268 C 
HETATM   18  C   UNK N   1      38.193  13.966   9.807  0.00  0.00     0.037 C 
ENDBRANCH  14  17
ENDBRANCH  13  14
ENDBRANCH   3  13
TORSDOF 5
ENDMDL
MODEL 7
REMARK VINA RESULT:      -5.1      1.845      2.116
REMARK  5 active torsions:
REMARK  status: ('A' for Active; 'I' for Inactive)
REMARK    1  A    between atoms: N_2  and  C_4 
REMARK    2  A    between atoms: N_2  and  C_5 
REMARK    3  A    between atoms: N_2  and  C_6 
REMARK    4  A    between atoms: N_3  and  C_7 
REMARK       I    between atoms: N_3  and  C_8 
REMARK    5  A    between atoms: C_4  and  C_8 
ROOT
HETATM    1  O   UNK N   1      34.795  13.180  13.433  0.00  0.00    -0.271 OA
HETATM    2  N   UNK N   1      36.688  13.412  14.618  0.00  0.00    -0.325 N 
HETATM    3  C   UNK N   1      35.840  13.785  13.621  0.00  0.00     0.250 C 
HETATM    4  H   UNK N   1      37.475  13.978  14.782  0.00  0.00     0.169 HD
ENDROOT
BRANCH   2   5
HETATM    5  C   UNK N   1      36.515  12.255  15.443  0.00  0.00     0.046 A 
HETATM    6  C   UNK N   1      35.730  12.268  16.629  0.00  0.00    -0.035 A 
HETATM    7  C   UNK N   1      35.614  11.107  17.399  0.00  0.00     0.009 A 
HETATM    8  C   UNK N   1      34.965  13.469  17.072  0.00  0.00     0.050 C 
HETATM    9  C   UNK N   1      36.261   9.933  17.016  0.00  0.00     0.001 A 
HETATM   10  C   UNK N   1      37.013   9.904  15.843  0.00  0.00     0.009 A 
HETATM   11  C   UNK N   1      37.137  11.051  15.055  0.00  0.00    -0.035 A 
HETATM   12  C   UNK N   1      37.957  10.980  13.812  0.00  0.00     0.050 C 
ENDBRANCH   2   5
BRANCH   3  13
HETATM   13  C   UNK N   1      36.106  15.051  12.845  0.00  0.00     0.374 C 
BRANCH  13  14
HETATM   14  N   UNK N   1      35.720  15.003  11.425  0.00  0.00     0.096 N 
BRANCH  14  15
HETATM   15  C   UNK N   1      35.710  16.331  10.823  0.00  0.00     0.268 C 
HETATM   16  C   UNK N   1      34.619  16.405   9.771  0.00  0.00     0.037 C 
ENDBRANCH  14  15
BRANCH  14  17
HETATM   17  C   UNK N   1      36.779  14.280  10.732  0.00  0.00     0.268 C 
HETATM   18  C   UNK N   1      36.227  13.056  10.026  0.00  0.00     0.037 C 
ENDBRANCH  14  17
ENDBRANCH  13  14
ENDBRANCH   3  13
TORSDOF 5
ENDMDL
MODEL 8
REMARK VINA RESULT:      -5.1     21.669     24.539
REMARK  5 active torsions:
REMARK  status: ('A' for Active; 'I' for Inactive)
REMARK    1  A    between atoms: N_2  and  C_4 
REMARK    2  A    between atoms: N_2  and  C_5 
REMARK    3  A    between atoms: N_2  and  C_6 
REMARK    4  A    between atoms: N_3  and  C_7 
REMARK       I    between atoms: N_3  and  C_8 
REMARK    5  A    between atoms: C_4  and  C_8 
ROOT
HETATM    1  O   UNK N   1      26.252  23.960  -3.631  0.00  0.00    -0.271 OA
HETATM    2  N   UNK N   1      28.290  24.808  -4.037  0.00  0.00    -0.325 N 
HETATM    3  C   UNK N   1      26.988  24.934  -3.661  0.00  0.00     0.250 C 
HETATM    4  H   UNK N   1      28.864  25.605  -3.968  0.00  0.00     0.169 HD
ENDROOT
BRANCH   2   5
HETATM    5  C   UNK N   1      28.883  23.600  -4.524  0.00  0.00     0.046 A 
HETATM    6  C   UNK N   1      28.774  23.184  -5.880  0.00  0.00    -0.035 A 
HETATM    7  C   UNK N   1      29.364  21.984  -6.289  0.00  0.00     0.009 A 
HETATM    8  C   UNK N   1      28.095  24.008  -6.920  0.00  0.00     0.050 C 
HETATM    9  C   UNK N   1      30.060  21.189  -5.380  0.00  0.00     0.001 A 
HETATM   10  C   UNK N   1      30.192  21.600  -4.055  0.00  0.00     0.009 A 
HETATM   11  C   UNK N   1      29.616  22.798  -3.625  0.00  0.00    -0.035 A 
HETATM   12  C   UNK N   1      29.774  23.197  -2.198  0.00  0.00     0.050 C 
ENDBRANCH   2   5
BRANCH   3  13
HETATM   13  C   UNK N   1      26.487  26.251  -3.123  0.00  0.00     0.374 C 
BRANCH  13  14
HETATM   14  N   UNK N   1      26.523  27.369  -4.081  0.00  0.00     0.096 N 
BRANCH  14  15
HETATM   15  C   UNK N   1      25.220  27.594  -4.696  0.00  0.00     0.268 C 
HETATM   16  C   UNK N   1      25.162  26.890  -6.039  0.00  0.00     0.037 C 
ENDBRANCH  14  15
BRANCH  14  17
HETATM   17  C   UNK N   1      26.788  28.573  -3.304  0.00  0.00     0.268 C 
HETATM   18  C   UNK N   1      26.712  29.809  -4.179  0.00  0.00     0.037 C 
ENDBRANCH  14  17
ENDBRANCH  13  14
ENDBRANCH   3  13
TORSDOF 5
ENDMDL
MODEL 9
REMARK VINA RESULT:      -5.0      1.562      2.500
REMARK  5 active torsions:
REMARK  status: ('A' for Active; 'I' for Inactive)
REMARK    1  A    between atoms: N_2  and  C_4 
REMARK    2  A    between atoms: N_2  and  C_5 
REMARK    3  A    between atoms: N_2  and  C_6 
REMARK    4  A    between atoms: N_3  and  C_7 
REMARK       I    between atoms: N_3  and  C_8 
REMARK    5  A    between atoms: C_4  and  C_8 
ROOT
HETATM    1  O   UNK N   1      34.600  12.905  13.823  0.00  0.00    -0.271 OA
HETATM    2  N   UNK N   1      36.483  13.148  15.022  0.00  0.00    -0.325 N 
HETATM    3  C   UNK N   1      35.667  13.478  13.984  0.00  0.00     0.250 C 
HETATM    4  H   UNK N   1      37.292  13.691  15.157  0.00  0.00     0.169 HD
ENDROOT
BRANCH   2   5
HETATM    5  C   UNK N   1      36.247  12.066  15.930  0.00  0.00     0.046 A 
HETATM    6  C   UNK N   1      36.699  10.741  15.679  0.00  0.00    -0.035 A 
HETATM    7  C   UNK N   1      36.422   9.726  16.600  0.00  0.00     0.009 A 
HETATM    8  C   UNK N   1      37.516  10.384  14.485  0.00  0.00     0.050 C 
HETATM    9  C   UNK N   1      35.706  10.000  17.764  0.00  0.00     0.001 A 
HETATM   10  C   UNK N   1      35.280  11.300  18.030  0.00  0.00     0.009 A 
HETATM   11  C   UNK N   1      35.551  12.331  17.127  0.00  0.00    -0.035 A 
HETATM   12  C   UNK N   1      35.071  13.706  17.445  0.00  0.00     0.050 C 
ENDBRANCH   2   5
BRANCH   3  13
HETATM   13  C   UNK N   1      36.000  14.667  13.118  0.00  0.00     0.374 C 
BRANCH  13  14
HETATM   14  N   UNK N   1      35.949  14.415  11.668  0.00  0.00     0.096 N 
BRANCH  14  15
HETATM   15  C   UNK N   1      36.184  15.632  10.900  0.00  0.00     0.268 C 
HETATM   16  C   UNK N   1      35.156  15.741   9.790  0.00  0.00     0.037 C 
ENDBRANCH  14  15
BRANCH  14  17
HETATM   17  C   UNK N   1      37.077  13.547  11.358  0.00  0.00     0.268 C 
HETATM   18  C   UNK N   1      36.614  12.289  10.649  0.00  0.00     0.037 C 
ENDBRANCH  14  17
ENDBRANCH  13  14
ENDBRANCH   3  13
TORSDOF 5
ENDMDL
