REMARK  9 active torsions:
REMARK  status: ('A' for Active; 'I' for Inactive)
REMARK    1  A    between atoms: P_1  and  O_4 
REMARK    2  A    between atoms: P_1  and  O_5 
REMARK    3  A    between atoms: P_1  and  C_11 
REMARK    4  A    between atoms: P_2  and  O_6 
REMARK    5  A    between atoms: P_2  and  O_7 
REMARK    6  A    between atoms: P_2  and  C_11 
REMARK    7  A    between atoms: N_10  and  C_13 
REMARK    8  A    between atoms: C_11  and  C_12 
REMARK    9  A    between atoms: C_12  and  C_13 
ROOT
HETATM    1  O   UNK N   1       3.615  -0.447  -1.856  0.00  0.00    -0.368 OA
HETATM    2  C   UNK N   1       3.481  -0.535  -0.470  0.00  0.00     0.253 C 
HETATM    3  H   UNK N   1       3.714  -0.497  -2.819  0.00  0.00     0.212 HD
ENDROOT
BRANCH   2   4
HETATM    4  P   UNK N   1       2.211  -1.843  -0.048  0.00  0.00     0.283 P 
HETATM    5  O   UNK N   1       2.586  -3.206  -0.691  0.00  0.00    -0.651 OA
BRANCH   4   6
HETATM    6  O   UNK N   1       0.616  -1.524  -0.654  0.00  0.00    -0.327 OA
HETATM    7  H   UNK N   1       0.325  -0.662  -0.992  0.00  0.00     0.220 HD
ENDBRANCH   4   6
BRANCH   4   8
HETATM    8  O   UNK N   1       2.039  -2.202   1.641  0.00  0.00    -0.327 OA
HETATM    9  H   UNK N   1       1.817  -2.220   2.585  0.00  0.00     0.220 HD
ENDBRANCH   4   8
ENDBRANCH   2   4
BRANCH   2  10
HETATM   10  P   UNK N   1       5.134  -0.981   0.267  0.00  0.00     0.283 P 
HETATM   11  O   UNK N   1       5.043  -1.080   1.812  0.00  0.00    -0.651 OA
BRANCH  10  12
HETATM   12  O   UNK N   1       6.361   0.217  -0.000  0.00  0.00    -0.327 OA
HETATM   13  H   UNK N   1       7.284  -0.042  -0.149  0.00  0.00     0.220 HD
ENDBRANCH  10  12
BRANCH  10  14
HETATM   14  O   UNK N   1       5.806  -2.504  -0.225  0.00  0.00    -0.327 OA
HETATM   15  H   UNK N   1       5.257  -3.255  -0.499  0.00  0.00     0.220 HD
ENDBRANCH  10  14
ENDBRANCH   2  10
BRANCH   2  16
HETATM   16  C   UNK N   1       3.068   0.819   0.100  0.00  0.00     0.082 C 
BRANCH  16  17
HETATM   17  C   UNK N   1       1.814   1.371  -0.557  0.00  0.00     0.115 C 
BRANCH  17  18
HETATM   18  N   UNK N   1       1.486   2.655   0.032  0.00  0.00    -0.430 N 
HETATM   19  H   UNK N   1       2.154   3.306   0.446  0.00  0.00     0.149 HD
HETATM   20  H   UNK N   1       0.505   2.931   0.032  0.00  0.00     0.149 HD
ENDBRANCH  17  18
ENDBRANCH  16  17
ENDBRANCH   2  16
TORSDOF 9
