MODEL 1
REMARK VINA RESULT:      -5.0      0.000      0.000
REMARK  9 active torsions:
REMARK  status: ('A' for Active; 'I' for Inactive)
REMARK    1  A    between atoms: P_1  and  O_4 
REMARK    2  A    between atoms: P_1  and  O_5 
REMARK    3  A    between atoms: P_1  and  C_11 
REMARK    4  A    between atoms: P_2  and  O_6 
REMARK    5  A    between atoms: P_2  and  O_7 
REMARK    6  A    between atoms: P_2  and  C_11 
REMARK    7  A    between atoms: N_10  and  C_13 
REMARK    8  A    between atoms: C_11  and  C_12 
REMARK    9  A    between atoms: C_12  and  C_13 
ROOT
HETATM    1  O   UNK N   1      37.137  15.922  10.865  0.00  0.00    -0.368 OA
HETATM    2  C   UNK N   1      36.249  14.848  10.793  0.00  0.00     0.253 C 
HETATM    3  H   UNK N   1      37.697  16.700  11.006  0.00  0.00     0.212 HD
ENDROOT
BRANCH   2   4
HETATM    4  P   UNK N   1      36.085  14.060  12.482  0.00  0.00     0.283 P 
HETATM    5  O   UNK N   1      36.266  15.117  13.605  0.00  0.00    -0.651 OA
BRANCH   4   6
HETATM    6  O   UNK N   1      37.289  12.862  12.842  0.00  0.00    -0.327 OA
HETATM    7  H   UNK N   1      37.092  11.927  13.010  0.00  0.00     0.220 HD
ENDBRANCH   4   6
BRANCH   4   8
HETATM    8  O   UNK N   1      34.545  13.336  12.824  0.00  0.00    -0.327 OA
HETATM    9  H   UNK N   1      33.613  13.141  13.008  0.00  0.00     0.220 HD
ENDBRANCH   4   8
ENDBRANCH   2   4
BRANCH   2  10
HETATM   10  P   UNK N   1      34.593  15.474  10.210  0.00  0.00     0.283 P 
HETATM   11  O   UNK N   1      34.290  14.981   8.771  0.00  0.00    -0.651 OA
BRANCH  10  12
HETATM   12  O   UNK N   1      34.508  17.202  10.084  0.00  0.00    -0.327 OA
HETATM   13  H   UNK N   1      34.827  17.659   9.289  0.00  0.00     0.220 HD
ENDBRANCH  10  12
BRANCH  10  14
HETATM   14  O   UNK N   1      33.215  14.971  11.138  0.00  0.00    -0.327 OA
HETATM   15  H   UNK N   1      32.935  14.045  11.201  0.00  0.00     0.220 HD
ENDBRANCH  10  14
ENDBRANCH   2  10
BRANCH   2  16
HETATM   16  C   UNK N   1      36.747  13.829   9.771  0.00  0.00     0.082 C 
BRANCH  16  17
HETATM   17  C   UNK N   1      38.220  14.004   9.443  0.00  0.00     0.115 C 
BRANCH  17  18
HETATM   18  N   UNK N   1      39.023  13.462  10.523  0.00  0.00    -0.430 N 
HETATM   19  H   UNK N   1      38.731  12.727  11.167  0.00  0.00     0.149 HD
HETATM   20  H   UNK N   1      39.957  13.849  10.649  0.00  0.00     0.149 HD
ENDBRANCH  17  18
ENDBRANCH  16  17
ENDBRANCH   2  16
TORSDOF 9
ENDMDL
MODEL 2
REMARK VINA RESULT:      -4.8      3.245      4.198
REMARK  9 active torsions:
REMARK  status: ('A' for Active; 'I' for Inactive)
REMARK    1  A    between atoms: P_1  and  O_4 
REMARK    2  A    between atoms: P_1  and  O_5 
REMARK    3  A    between atoms: P_1  and  C_11 
REMARK    4  A    between atoms: P_2  and  O_6 
REMARK    5  A    between atoms: P_2  and  O_7 
REMARK    6  A    between atoms: P_2  and  C_11 
REMARK    7  A    between atoms: N_10  and  C_13 
REMARK    8  A    between atoms: C_11  and  C_12 
REMARK    9  A    between atoms: C_12  and  C_13 
ROOT
HETATM    1  O   UNK N   1      35.286  15.399   7.519  0.00  0.00    -0.368 OA
HETATM    2  C   UNK N   1      34.327  15.990   8.342  0.00  0.00     0.253 C 
HETATM    3  H   UNK N   1      36.029  15.046   7.005  0.00  0.00     0.212 HD
ENDROOT
BRANCH   2   4
HETATM    4  P   UNK N   1      34.883  15.885  10.125  0.00  0.00     0.283 P 
HETATM    5  O   UNK N   1      35.127  17.301  10.713  0.00  0.00    -0.651 OA
BRANCH   4   6
HETATM    6  O   UNK N   1      36.398  15.071  10.363  0.00  0.00    -0.327 OA
HETATM    7  H   UNK N   1      36.744  14.382   9.773  0.00  0.00     0.220 HD
ENDBRANCH   4   6
BRANCH   4   8
HETATM    8  O   UNK N   1      33.751  15.158  11.221  0.00  0.00    -0.327 OA
HETATM    9  H   UNK N   1      32.974  14.891  11.738  0.00  0.00     0.220 HD
ENDBRANCH   4   8
ENDBRANCH   2   4
BRANCH   2  10
HETATM   10  P   UNK N   1      34.118  17.772   7.837  0.00  0.00     0.283 P 
HETATM   11  O   UNK N   1      32.725  18.308   8.260  0.00  0.00    -0.651 OA
BRANCH  10  12
HETATM   12  O   UNK N   1      34.151  18.017   6.119  0.00  0.00    -0.327 OA
HETATM   13  H   UNK N   1      34.973  18.268   5.669  0.00  0.00     0.220 HD
ENDBRANCH  10  12
BRANCH  10  14
HETATM   14  O   UNK N   1      35.243  18.900   8.525  0.00  0.00    -0.327 OA
HETATM   15  H   UNK N   1      34.962  19.680   9.028  0.00  0.00     0.220 HD
ENDBRANCH  10  14
ENDBRANCH   2  10
BRANCH   2  16
HETATM   16  C   UNK N   1      32.982  15.293   8.156  0.00  0.00     0.082 C 
BRANCH  16  17
HETATM   17  C   UNK N   1      33.118  13.785   8.028  0.00  0.00     0.115 C 
BRANCH  17  18
HETATM   18  N   UNK N   1      32.447  13.144   9.142  0.00  0.00    -0.430 N 
HETATM   19  H   UNK N   1      32.906  12.736   9.957  0.00  0.00     0.149 HD
HETATM   20  H   UNK N   1      31.429  13.097   9.109  0.00  0.00     0.149 HD
ENDBRANCH  17  18
ENDBRANCH  16  17
ENDBRANCH   2  16
TORSDOF 9
ENDMDL
MODEL 3
REMARK VINA RESULT:      -4.7      3.260      5.214
REMARK  9 active torsions:
REMARK  status: ('A' for Active; 'I' for Inactive)
REMARK    1  A    between atoms: P_1  and  O_4 
REMARK    2  A    between atoms: P_1  and  O_5 
REMARK    3  A    between atoms: P_1  and  C_11 
REMARK    4  A    between atoms: P_2  and  O_6 
REMARK    5  A    between atoms: P_2  and  O_7 
REMARK    6  A    between atoms: P_2  and  C_11 
REMARK    7  A    between atoms: N_10  and  C_13 
REMARK    8  A    between atoms: C_11  and  C_12 
REMARK    9  A    between atoms: C_12  and  C_13 
ROOT
HETATM    1  O   UNK N   1      32.288  16.038   9.321  0.00  0.00    -0.368 OA
HETATM    2  C   UNK N   1      33.625  16.023   8.922  0.00  0.00     0.253 C 
HETATM    3  H   UNK N   1      31.381  16.147   9.644  0.00  0.00     0.212 HD
ENDROOT
BRANCH   2   4
HETATM    4  P   UNK N   1      34.066  17.674   8.159  0.00  0.00     0.283 P 
HETATM    5  O   UNK N   1      32.842  18.629   8.160  0.00  0.00    -0.651 OA
BRANCH   4   6
HETATM    6  O   UNK N   1      34.530  17.597   6.488  0.00  0.00    -0.327 OA
HETATM    7  H   UNK N   1      35.224  17.012   6.142  0.00  0.00     0.220 HD
ENDBRANCH   4   6
BRANCH   4   8
HETATM    8  O   UNK N   1      35.306  18.570   8.979  0.00  0.00    -0.327 OA
HETATM    9  H   UNK N   1      36.030  19.161   9.237  0.00  0.00     0.220 HD
ENDBRANCH   4   8
ENDBRANCH   2   4
BRANCH   2  10
HETATM   10  P   UNK N   1      34.694  15.696  10.413  0.00  0.00     0.283 P 
HETATM   11  O   UNK N   1      36.066  15.109   9.993  0.00  0.00    -0.651 OA
BRANCH  10  12
HETATM   12  O   UNK N   1      34.042  14.500  11.488  0.00  0.00    -0.327 OA
HETATM   13  H   UNK N   1      33.904  14.698  12.427  0.00  0.00     0.220 HD
ENDBRANCH  10  12
BRANCH  10  14
HETATM   14  O   UNK N   1      35.094  17.077  11.386  0.00  0.00    -0.327 OA
HETATM   15  H   UNK N   1      34.443  17.753  11.630  0.00  0.00     0.220 HD
ENDBRANCH  10  14
ENDBRANCH   2  10
BRANCH   2  16
HETATM   16  C   UNK N   1      33.858  14.891   7.926  0.00  0.00     0.082 C 
BRANCH  16  17
HETATM   17  C   UNK N   1      32.658  13.968   7.799  0.00  0.00     0.115 C 
BRANCH  17  18
HETATM   18  N   UNK N   1      32.562  13.135   8.982  0.00  0.00    -0.430 N 
HETATM   19  H   UNK N   1      33.102  13.258   9.839  0.00  0.00     0.149 HD
HETATM   20  H   UNK N   1      31.900  12.361   8.955  0.00  0.00     0.149 HD
ENDBRANCH  17  18
ENDBRANCH  16  17
ENDBRANCH   2  16
TORSDOF 9
ENDMDL
MODEL 4
REMARK VINA RESULT:      -4.5      3.119      4.467
REMARK  9 active torsions:
REMARK  status: ('A' for Active; 'I' for Inactive)
REMARK    1  A    between atoms: P_1  and  O_4 
REMARK    2  A    between atoms: P_1  and  O_5 
REMARK    3  A    between atoms: P_1  and  C_11 
REMARK    4  A    between atoms: P_2  and  O_6 
REMARK    5  A    between atoms: P_2  and  O_7 
REMARK    6  A    between atoms: P_2  and  C_11 
REMARK    7  A    between atoms: N_10  and  C_13 
REMARK    8  A    between atoms: C_11  and  C_12 
REMARK    9  A    between atoms: C_12  and  C_13 
ROOT
HETATM    1  O   UNK N   1      34.451  16.613  10.431  0.00  0.00    -0.368 OA
HETATM    2  C   UNK N   1      34.212  16.284   9.096  0.00  0.00     0.253 C 
HETATM    3  H   UNK N   1      34.511  16.878  11.361  0.00  0.00     0.212 HD
ENDROOT
BRANCH   2   4
HETATM    4  P   UNK N   1      32.579  15.381   8.958  0.00  0.00     0.283 P 
HETATM    5  O   UNK N   1      32.802  13.886   8.602  0.00  0.00    -0.651 OA
BRANCH   4   6
HETATM    6  O   UNK N   1      31.539  15.958   7.694  0.00  0.00    -0.327 OA
HETATM    7  H   UNK N   1      30.754  15.483   7.376  0.00  0.00     0.220 HD
ENDBRANCH   4   6
BRANCH   4   8
HETATM    8  O   UNK N   1      31.624  15.336  10.407  0.00  0.00    -0.327 OA
HETATM    9  H   UNK N   1      30.938  15.408  11.088  0.00  0.00     0.220 HD
ENDBRANCH   4   8
ENDBRANCH   2   4
BRANCH   2  10
HETATM   10  P   UNK N   1      34.168  17.852   8.089  0.00  0.00     0.283 P 
HETATM   11  O   UNK N   1      32.769  18.516   8.159  0.00  0.00    -0.651 OA
BRANCH  10  12
HETATM   12  O   UNK N   1      34.421  17.595   6.391  0.00  0.00    -0.327 OA
HETATM   13  H   UNK N   1      35.202  17.117   6.072  0.00  0.00     0.220 HD
ENDBRANCH  10  12
BRANCH  10  14
HETATM   14  O   UNK N   1      35.267  19.105   8.574  0.00  0.00    -0.327 OA
HETATM   15  H   UNK N   1      35.713  19.686   7.939  0.00  0.00     0.220 HD
ENDBRANCH  10  14
ENDBRANCH   2  10
BRANCH   2  16
HETATM   16  C   UNK N   1      35.351  15.420   8.562  0.00  0.00     0.082 C 
BRANCH  16  17
HETATM   17  C   UNK N   1      36.203  14.825   9.671  0.00  0.00     0.115 C 
BRANCH  17  18
HETATM   18  N   UNK N   1      35.577  13.613  10.162  0.00  0.00    -0.430 N 
HETATM   19  H   UNK N   1      34.978  13.546  10.986  0.00  0.00     0.149 HD
HETATM   20  H   UNK N   1      35.749  12.755   9.640  0.00  0.00     0.149 HD
ENDBRANCH  17  18
ENDBRANCH  16  17
ENDBRANCH   2  16
TORSDOF 9
ENDMDL
MODEL 5
REMARK VINA RESULT:      -4.5      4.520      5.826
REMARK  9 active torsions:
REMARK  status: ('A' for Active; 'I' for Inactive)
REMARK    1  A    between atoms: P_1  and  O_4 
REMARK    2  A    between atoms: P_1  and  O_5 
REMARK    3  A    between atoms: P_1  and  C_11 
REMARK    4  A    between atoms: P_2  and  O_6 
REMARK    5  A    between atoms: P_2  and  O_7 
REMARK    6  A    between atoms: P_2  and  C_11 
REMARK    7  A    between atoms: N_10  and  C_13 
REMARK    8  A    between atoms: C_11  and  C_12 
REMARK    9  A    between atoms: C_12  and  C_13 
ROOT
HETATM    1  O   UNK N   1      32.199  15.214   7.642  0.00  0.00    -0.368 OA
HETATM    2  C   UNK N   1      32.857  16.345   8.127  0.00  0.00     0.253 C 
HETATM    3  H   UNK N   1      31.840  14.376   7.312  0.00  0.00     0.212 HD
ENDROOT
BRANCH   2   4
HETATM    4  P   UNK N   1      33.910  15.871   9.599  0.00  0.00     0.283 P 
HETATM    5  O   UNK N   1      35.018  14.864   9.185  0.00  0.00    -0.651 OA
BRANCH   4   6
HETATM    6  O   UNK N   1      33.055  15.048  10.865  0.00  0.00    -0.327 OA
HETATM    7  H   UNK N   1      33.406  14.286  11.353  0.00  0.00     0.220 HD
ENDBRANCH   4   6
BRANCH   4   8
HETATM    8  O   UNK N   1      34.777  17.173  10.349  0.00  0.00    -0.327 OA
HETATM    9  H   UNK N   1      35.373  17.736  10.867  0.00  0.00     0.220 HD
ENDBRANCH   4   8
ENDBRANCH   2   4
BRANCH   2  10
HETATM   10  P   UNK N   1      33.925  17.047   6.770  0.00  0.00     0.283 P 
HETATM   11  O   UNK N   1      34.672  18.316   7.254  0.00  0.00    -0.651 OA
BRANCH  10  12
HETATM   12  O   UNK N   1      33.026  17.597   5.391  0.00  0.00    -0.327 OA
HETATM   13  H   UNK N   1      33.257  18.427   4.946  0.00  0.00     0.220 HD
ENDBRANCH  10  12
BRANCH  10  14
HETATM   14  O   UNK N   1      35.179  16.009   6.168  0.00  0.00    -0.327 OA
HETATM   15  H   UNK N   1      35.003  15.266   5.570  0.00  0.00     0.220 HD
ENDBRANCH  10  14
ENDBRANCH   2  10
BRANCH   2  16
HETATM   16  C   UNK N   1      31.838  17.413   8.516  0.00  0.00     0.082 C 
BRANCH  16  17
HETATM   17  C   UNK N   1      30.416  17.026   8.145  0.00  0.00     0.115 C 
BRANCH  17  18
HETATM   18  N   UNK N   1      30.179  17.344   6.750  0.00  0.00    -0.430 N 
HETATM   19  H   UNK N   1      29.503  16.880   6.142  0.00  0.00     0.149 HD
HETATM   20  H   UNK N   1      30.733  18.096   6.342  0.00  0.00     0.149 HD
ENDBRANCH  17  18
ENDBRANCH  16  17
ENDBRANCH   2  16
TORSDOF 9
ENDMDL
MODEL 6
REMARK VINA RESULT:      -4.5      3.223      5.210
REMARK  9 active torsions:
REMARK  status: ('A' for Active; 'I' for Inactive)
REMARK    1  A    between atoms: P_1  and  O_4 
REMARK    2  A    between atoms: P_1  and  O_5 
REMARK    3  A    between atoms: P_1  and  C_11 
REMARK    4  A    between atoms: P_2  and  O_6 
REMARK    5  A    between atoms: P_2  and  O_7 
REMARK    6  A    between atoms: P_2  and  C_11 
REMARK    7  A    between atoms: N_10  and  C_13 
REMARK    8  A    between atoms: C_11  and  C_12 
REMARK    9  A    between atoms: C_12  and  C_13 
ROOT
HETATM    1  O   UNK N   1      33.058  15.358   8.213  0.00  0.00    -0.368 OA
HETATM    2  C   UNK N   1      34.279  16.021   8.345  0.00  0.00     0.253 C 
HETATM    3  H   UNK N   1      32.165  14.982   8.178  0.00  0.00     0.212 HD
ENDROOT
BRANCH   2   4
HETATM    4  P   UNK N   1      34.063  17.822   7.885  0.00  0.00     0.283 P 
HETATM    5  O   UNK N   1      34.196  18.021   6.351  0.00  0.00    -0.651 OA
BRANCH   4   6
HETATM    6  O   UNK N   1      35.264  18.886   8.547  0.00  0.00    -0.327 OA
HETATM    7  H   UNK N   1      35.167  19.850   8.600  0.00  0.00     0.220 HD
ENDBRANCH   4   6
BRANCH   4   8
HETATM    8  O   UNK N   1      32.519  18.513   8.272  0.00  0.00    -0.327 OA
HETATM    9  H   UNK N   1      31.606  18.692   8.548  0.00  0.00     0.220 HD
ENDBRANCH   4   8
ENDBRANCH   2   4
BRANCH   2  10
HETATM   10  P   UNK N   1      34.857  15.872  10.111  0.00  0.00     0.283 P 
HETATM   11  O   UNK N   1      35.147  17.269  10.718  0.00  0.00    -0.651 OA
BRANCH  10  12
HETATM   12  O   UNK N   1      36.362  15.025  10.281  0.00  0.00    -0.327 OA
HETATM   13  H   UNK N   1      36.420  14.218  10.818  0.00  0.00     0.220 HD
ENDBRANCH  10  12
BRANCH  10  14
HETATM   14  O   UNK N   1      33.742  15.140  11.223  0.00  0.00    -0.327 OA
HETATM   15  H   UNK N   1      33.811  15.252  12.183  0.00  0.00     0.220 HD
ENDBRANCH  10  14
ENDBRANCH   2  10
BRANCH   2  16
HETATM   16  C   UNK N   1      35.328  15.361   7.455  0.00  0.00     0.082 C 
BRANCH  16  17
HETATM   17  C   UNK N   1      34.719  14.399   6.449  0.00  0.00     0.115 C 
BRANCH  17  18
HETATM   18  N   UNK N   1      34.262  15.140   5.289  0.00  0.00    -0.430 N 
HETATM   19  H   UNK N   1      33.391  14.973   4.783  0.00  0.00     0.149 HD
HETATM   20  H   UNK N   1      34.860  15.893   4.951  0.00  0.00     0.149 HD
ENDBRANCH  17  18
ENDBRANCH  16  17
ENDBRANCH   2  16
TORSDOF 9
ENDMDL
MODEL 7
REMARK VINA RESULT:      -4.4     13.441     14.939
REMARK  9 active torsions:
REMARK  status: ('A' for Active; 'I' for Inactive)
REMARK    1  A    between atoms: P_1  and  O_4 
REMARK    2  A    between atoms: P_1  and  O_5 
REMARK    3  A    between atoms: P_1  and  C_11 
REMARK    4  A    between atoms: P_2  and  O_6 
REMARK    5  A    between atoms: P_2  and  O_7 
REMARK    6  A    between atoms: P_2  and  C_11 
REMARK    7  A    between atoms: N_10  and  C_13 
REMARK    8  A    between atoms: C_11  and  C_12 
REMARK    9  A    between atoms: C_12  and  C_13 
ROOT
HETATM    1  O   UNK N   1      43.228  23.624   3.762  0.00  0.00    -0.368 OA
HETATM    2  C   UNK N   1      43.434  23.111   2.481  0.00  0.00     0.253 C 
HETATM    3  H   UNK N   1      43.028  24.064   4.603  0.00  0.00     0.212 HD
ENDROOT
BRANCH   2   4
HETATM    4  P   UNK N   1      41.817  23.113   1.540  0.00  0.00     0.283 P 
HETATM    5  O   UNK N   1      41.218  24.545   1.472  0.00  0.00    -0.651 OA
BRANCH   4   6
HETATM    6  O   UNK N   1      40.555  22.171   2.270  0.00  0.00    -0.327 OA
HETATM    7  H   UNK N   1      39.636  22.471   2.363  0.00  0.00     0.220 HD
ENDBRANCH   4   6
BRANCH   4   8
HETATM    8  O   UNK N   1      41.915  22.613  -0.119  0.00  0.00    -0.327 OA
HETATM    9  H   UNK N   1      41.917  22.135  -0.962  0.00  0.00     0.220 HD
ENDBRANCH   4   8
ENDBRANCH   2   4
BRANCH   2  10
HETATM   10  P   UNK N   1      44.691  24.171   1.603  0.00  0.00     0.283 P 
HETATM   11  O   UNK N   1      45.640  24.860   2.618  0.00  0.00    -0.651 OA
BRANCH  10  12
HETATM   12  O   UNK N   1      43.993  25.494   0.724  0.00  0.00    -0.327 OA
HETATM   13  H   UNK N   1      44.381  25.794  -0.113  0.00  0.00     0.220 HD
ENDBRANCH  10  12
BRANCH  10  14
HETATM   14  O   UNK N   1      45.756  23.348   0.507  0.00  0.00    -0.327 OA
HETATM   15  H   UNK N   1      45.434  22.850  -0.260  0.00  0.00     0.220 HD
ENDBRANCH  10  14
ENDBRANCH   2  10
BRANCH   2  16
HETATM   16  C   UNK N   1      44.001  21.697   2.572  0.00  0.00     0.082 C 
BRANCH  16  17
HETATM   17  C   UNK N   1      44.526  21.367   3.960  0.00  0.00     0.115 C 
BRANCH  17  18
HETATM   18  N   UNK N   1      45.730  22.134   4.215  0.00  0.00    -0.430 N 
HETATM   19  H   UNK N   1      46.671  21.749   4.302  0.00  0.00     0.149 HD
HETATM   20  H   UNK N   1      45.627  23.142   4.317  0.00  0.00     0.149 HD
ENDBRANCH  17  18
ENDBRANCH  16  17
ENDBRANCH   2  16
TORSDOF 9
ENDMDL
MODEL 8
REMARK VINA RESULT:      -4.4      3.495      4.838
REMARK  9 active torsions:
REMARK  status: ('A' for Active; 'I' for Inactive)
REMARK    1  A    between atoms: P_1  and  O_4 
REMARK    2  A    between atoms: P_1  and  O_5 
REMARK    3  A    between atoms: P_1  and  C_11 
REMARK    4  A    between atoms: P_2  and  O_6 
REMARK    5  A    between atoms: P_2  and  O_7 
REMARK    6  A    between atoms: P_2  and  C_11 
REMARK    7  A    between atoms: N_10  and  C_13 
REMARK    8  A    between atoms: C_11  and  C_12 
REMARK    9  A    between atoms: C_12  and  C_13 
ROOT
HETATM    1  O   UNK N   1      35.119  15.428   7.742  0.00  0.00    -0.368 OA
HETATM    2  C   UNK N   1      34.298  16.153   8.607  0.00  0.00     0.253 C 
HETATM    3  H   UNK N   1      35.627  14.964   7.059  0.00  0.00     0.212 HD
ENDROOT
BRANCH   2   4
HETATM    4  P   UNK N   1      34.067  17.886   7.940  0.00  0.00     0.283 P 
HETATM    5  O   UNK N   1      34.230  17.912   6.396  0.00  0.00    -0.651 OA
BRANCH   4   6
HETATM    6  O   UNK N   1      35.240  19.038   8.499  0.00  0.00    -0.327 OA
HETATM    7  H   UNK N   1      36.052  18.800   8.973  0.00  0.00     0.220 HD
ENDBRANCH   4   6
BRANCH   4   8
HETATM    8  O   UNK N   1      32.506  18.592   8.215  0.00  0.00    -0.327 OA
HETATM    9  H   UNK N   1      31.619  18.979   8.148  0.00  0.00     0.220 HD
ENDBRANCH   4   8
ENDBRANCH   2   4
BRANCH   2  10
HETATM   10  P   UNK N   1      32.652  15.289   8.738  0.00  0.00     0.283 P 
HETATM   11  O   UNK N   1      31.552  16.074   7.977  0.00  0.00    -0.651 OA
BRANCH  10  12
HETATM   12  O   UNK N   1      32.044  15.192  10.360  0.00  0.00    -0.327 OA
HETATM   13  H   UNK N   1      32.340  14.490  10.961  0.00  0.00     0.220 HD
ENDBRANCH  10  12
BRANCH  10  14
HETATM   14  O   UNK N   1      32.573  13.686   8.077  0.00  0.00    -0.327 OA
HETATM   15  H   UNK N   1      32.898  13.468   7.190  0.00  0.00     0.220 HD
ENDBRANCH  10  14
ENDBRANCH   2  10
BRANCH   2  16
HETATM   16  C   UNK N   1      34.915  16.191  10.002  0.00  0.00     0.082 C 
BRANCH  16  17
HETATM   17  C   UNK N   1      36.025  15.168  10.177  0.00  0.00     0.115 C 
BRANCH  17  18
HETATM   18  N   UNK N   1      36.760  15.457  11.394  0.00  0.00    -0.430 N 
HETATM   19  H   UNK N   1      37.444  16.205  11.510  0.00  0.00     0.149 HD
HETATM   20  H   UNK N   1      36.576  14.863  12.201  0.00  0.00     0.149 HD
ENDBRANCH  17  18
ENDBRANCH  16  17
ENDBRANCH   2  16
TORSDOF 9
ENDMDL
MODEL 9
REMARK VINA RESULT:      -4.4     16.270     17.708
REMARK  9 active torsions:
REMARK  status: ('A' for Active; 'I' for Inactive)
REMARK    1  A    between atoms: P_1  and  O_4 
REMARK    2  A    between atoms: P_1  and  O_5 
REMARK    3  A    between atoms: P_1  and  C_11 
REMARK    4  A    between atoms: P_2  and  O_6 
REMARK    5  A    between atoms: P_2  and  O_7 
REMARK    6  A    between atoms: P_2  and  C_11 
REMARK    7  A    between atoms: N_10  and  C_13 
REMARK    8  A    between atoms: C_11  and  C_12 
REMARK    9  A    between atoms: C_12  and  C_13 
ROOT
HETATM    1  O   UNK N   1      22.575  17.884   3.139  0.00  0.00    -0.368 OA
HETATM    2  C   UNK N   1      21.408  18.624   3.329  0.00  0.00     0.253 C 
HETATM    3  H   UNK N   1      23.384  17.405   2.902  0.00  0.00     0.212 HD
ENDROOT
BRANCH   2   4
HETATM    4  P   UNK N   1      21.623  20.329   2.589  0.00  0.00     0.283 P 
HETATM    5  O   UNK N   1      23.031  20.899   2.913  0.00  0.00    -0.651 OA
BRANCH   4   6
HETATM    6  O   UNK N   1      20.536  21.530   3.213  0.00  0.00    -0.327 OA
HETATM    7  H   UNK N   1      20.819  22.390   3.564  0.00  0.00     0.220 HD
ENDBRANCH   4   6
BRANCH   4   8
HETATM    8  O   UNK N   1      21.518  20.413   0.859  0.00  0.00    -0.327 OA
HETATM    9  H   UNK N   1      21.518  20.672  -0.076  0.00  0.00     0.220 HD
ENDBRANCH   4   8
ENDBRANCH   2   4
BRANCH   2  10
HETATM   10  P   UNK N   1      19.992  17.737   2.502  0.00  0.00     0.283 P 
HETATM   11  O   UNK N   1      20.283  17.515   0.995  0.00  0.00    -0.651 OA
BRANCH  10  12
HETATM   12  O   UNK N   1      18.508  18.637   2.509  0.00  0.00    -0.327 OA
HETATM   13  H   UNK N   1      18.301  19.260   1.795  0.00  0.00     0.220 HD
ENDBRANCH  10  12
BRANCH  10  14
HETATM   14  O   UNK N   1      19.621  16.154   3.109  0.00  0.00    -0.327 OA
HETATM   15  H   UNK N   1      19.308  16.000   4.013  0.00  0.00     0.220 HD
ENDBRANCH  10  14
ENDBRANCH   2  10
BRANCH   2  16
HETATM   16  C   UNK N   1      21.089  18.720   4.818  0.00  0.00     0.082 C 
BRANCH  16  17
HETATM   17  C   UNK N   1      22.018  17.872   5.670  0.00  0.00     0.115 C 
BRANCH  17  18
HETATM   18  N   UNK N   1      21.573  16.493   5.643  0.00  0.00    -0.430 N 
HETATM   19  H   UNK N   1      20.726  16.134   6.084  0.00  0.00     0.149 HD
HETATM   20  H   UNK N   1      22.156  15.824   5.141  0.00  0.00     0.149 HD
ENDBRANCH  17  18
ENDBRANCH  16  17
ENDBRANCH   2  16
TORSDOF 9
ENDMDL
