MODEL 1
REMARK VINA RESULT:      -5.8      0.000      0.000
REMARK  6 active torsions:
REMARK  status: ('A' for Active; 'I' for Inactive)
REMARK    1  A    between atoms: O_1  and  C_4 
REMARK    2  A    between atoms: O_2  and  C_19 
REMARK    3  A    between atoms: N_3  and  C_11 
REMARK    4  A    between atoms: C_4  and  C_5 
REMARK    5  A    between atoms: C_5  and  C_11 
REMARK    6  A    between atoms: C_5  and  C_12 
ROOT
HETATM    1  C   UNK N   1      26.947  25.695  -4.306  0.00  0.00     0.081 C 
ENDROOT
BRANCH   1   2
HETATM    2  C   UNK N   1      26.174  25.129  -5.526  0.00  0.00     0.067 C 
HETATM    3  C   UNK N   1      27.118  24.248  -6.357  0.00  0.00     0.038 C 
HETATM    4  C   UNK N   1      26.429  23.736  -7.624  0.00  0.00     0.003 C 
HETATM    5  C   UNK N   1      25.773  24.854  -8.448  0.00  0.00     0.000 C 
HETATM    6  C   UNK N   1      25.966  26.244  -7.843  0.00  0.00     0.003 C 
HETATM    7  C   UNK N   1      25.547  26.265  -6.369  0.00  0.00     0.038 C 
BRANCH   2   8
HETATM    8  O   UNK N   1      25.135  24.316  -5.062  0.00  0.00    -0.389 OA
HETATM    9  H   UNK N   1      24.853  24.371  -4.135  0.00  0.00     0.210 HD
ENDBRANCH   2   8
ENDBRANCH   1   2
BRANCH   1  10
HETATM   10  C   UNK N   1      27.441  27.118  -4.571  0.00  0.00     0.283 C 
BRANCH  10  11
HETATM   11  N   UNK N   1      27.258  27.926  -3.374  0.00  0.00     0.080 N 
HETATM   12  C   UNK N   1      26.099  28.770  -3.595  0.00  0.00     0.309 C 
HETATM   13  C   UNK N   1      28.406  28.808  -3.252  0.00  0.00     0.309 C 
ENDBRANCH  10  11
ENDBRANCH   1  10
BRANCH   1  14
HETATM   14  C   UNK N   1      28.066  24.843  -3.730  0.00  0.00    -0.049 A 
HETATM   15  C   UNK N   1      27.746  23.810  -2.838  0.00  0.00     0.010 A 
HETATM   16  C   UNK N   1      28.750  23.016  -2.280  0.00  0.00     0.037 A 
HETATM   17  C   UNK N   1      30.097  23.239  -2.613  0.00  0.00     0.068 A 
HETATM   18  C   UNK N   1      30.419  24.260  -3.511  0.00  0.00     0.037 A 
HETATM   19  C   UNK N   1      29.413  25.056  -4.065  0.00  0.00     0.010 A 
BRANCH  17  20
HETATM   20  O   UNK N   1      31.093  22.492  -2.081  0.00  0.00    -0.356 OA
HETATM   21  C   UNK N   1      32.000  21.793  -2.844  0.00  0.00     0.210 C 
ENDBRANCH  17  20
ENDBRANCH   1  14
TORSDOF 6
ENDMDL
MODEL 2
REMARK VINA RESULT:      -5.8     12.849     15.270
REMARK  6 active torsions:
REMARK  status: ('A' for Active; 'I' for Inactive)
REMARK    1  A    between atoms: O_1  and  C_4 
REMARK    2  A    between atoms: O_2  and  C_19 
REMARK    3  A    between atoms: N_3  and  C_11 
REMARK    4  A    between atoms: C_4  and  C_5 
REMARK    5  A    between atoms: C_5  and  C_11 
REMARK    6  A    between atoms: C_5  and  C_12 
ROOT
HETATM    1  C   UNK N   1      30.841  16.432   7.149  0.00  0.00     0.081 C 
ENDROOT
BRANCH   1   2
HETATM    2  C   UNK N   1      30.943  16.229   5.615  0.00  0.00     0.067 C 
HETATM    3  C   UNK N   1      32.120  15.291   5.308  0.00  0.00     0.038 C 
HETATM    4  C   UNK N   1      32.321  15.128   3.799  0.00  0.00     0.003 C 
HETATM    5  C   UNK N   1      32.412  16.468   3.055  0.00  0.00     0.000 C 
HETATM    6  C   UNK N   1      32.307  17.682   3.977  0.00  0.00     0.003 C 
HETATM    7  C   UNK N   1      31.070  17.582   4.877  0.00  0.00     0.038 C 
BRANCH   2   8
HETATM    8  O   UNK N   1      29.775  15.604   5.166  0.00  0.00    -0.389 OA
HETATM    9  H   UNK N   1      29.684  15.361   4.232  0.00  0.00     0.210 HD
ENDBRANCH   2   8
ENDBRANCH   1   2
BRANCH   1  10
HETATM   10  C   UNK N   1      29.882  17.574   7.497  0.00  0.00     0.283 C 
BRANCH  10  11
HETATM   11  N   UNK N   1      29.423  17.420   8.869  0.00  0.00     0.080 N 
HETATM   12  C   UNK N   1      27.976  17.324   8.834  0.00  0.00     0.309 C 
HETATM   13  C   UNK N   1      29.748  18.640   9.587  0.00  0.00     0.309 C 
ENDBRANCH  10  11
ENDBRANCH   1  10
BRANCH   1  14
HETATM   14  C   UNK N   1      32.140  16.577   7.925  0.00  0.00    -0.049 A 
HETATM   15  C   UNK N   1      32.547  15.535   8.771  0.00  0.00     0.010 A 
HETATM   16  C   UNK N   1      33.728  15.640   9.509  0.00  0.00     0.037 A 
HETATM   17  C   UNK N   1      34.529  16.789   9.404  0.00  0.00     0.068 A 
HETATM   18  C   UNK N   1      34.134  17.823   8.553  0.00  0.00     0.037 A 
HETATM   19  C   UNK N   1      32.948  17.719   7.820  0.00  0.00     0.010 A 
BRANCH  17  20
HETATM   20  O   UNK N   1      35.675  16.922  10.114  0.00  0.00    -0.356 OA
HETATM   21  C   UNK N   1      36.074  16.024  11.077  0.00  0.00     0.210 C 
ENDBRANCH  17  20
ENDBRANCH   1  14
TORSDOF 6
ENDMDL
MODEL 3
REMARK VINA RESULT:      -5.7     11.452     13.574
REMARK  6 active torsions:
REMARK  status: ('A' for Active; 'I' for Inactive)
REMARK    1  A    between atoms: O_1  and  C_4 
REMARK    2  A    between atoms: O_2  and  C_19 
REMARK    3  A    between atoms: N_3  and  C_11 
REMARK    4  A    between atoms: C_4  and  C_5 
REMARK    5  A    between atoms: C_5  and  C_11 
REMARK    6  A    between atoms: C_5  and  C_12 
ROOT
HETATM    1  C   UNK N   1      29.280  16.769   4.864  0.00  0.00     0.081 C 
ENDROOT
BRANCH   1   2
HETATM    2  C   UNK N   1      28.169  17.808   5.164  0.00  0.00     0.067 C 
HETATM    3  C   UNK N   1      28.596  19.177   4.612  0.00  0.00     0.038 C 
HETATM    4  C   UNK N   1      27.572  20.260   4.960  0.00  0.00     0.003 C 
HETATM    5  C   UNK N   1      27.220  20.300   6.454  0.00  0.00     0.000 C 
HETATM    6  C   UNK N   1      27.983  19.266   7.283  0.00  0.00     0.003 C 
HETATM    7  C   UNK N   1      27.847  17.867   6.675  0.00  0.00     0.038 C 
BRANCH   2   8
HETATM    8  O   UNK N   1      27.003  17.426   4.492  0.00  0.00    -0.389 OA
HETATM    9  H   UNK N   1      26.927  17.566   3.535  0.00  0.00     0.210 HD
ENDBRANCH   2   8
ENDBRANCH   1   2
BRANCH   1  10
HETATM   10  C   UNK N   1      28.846  15.358   5.267  0.00  0.00     0.283 C 
BRANCH  10  11
HETATM   11  N   UNK N   1      29.357  14.399   4.299  0.00  0.00     0.080 N 
HETATM   12  C   UNK N   1      28.941  14.845   2.984  0.00  0.00     0.309 C 
HETATM   13  C   UNK N   1      28.697  13.127   4.542  0.00  0.00     0.309 C 
ENDBRANCH  10  11
ENDBRANCH   1  10
BRANCH   1  14
HETATM   14  C   UNK N   1      30.675  17.064   5.390  0.00  0.00    -0.049 A 
HETATM   15  C   UNK N   1      30.907  17.014   6.772  0.00  0.00     0.010 A 
HETATM   16  C   UNK N   1      32.173  17.293   7.291  0.00  0.00     0.037 A 
HETATM   17  C   UNK N   1      33.235  17.618   6.431  0.00  0.00     0.068 A 
HETATM   18  C   UNK N   1      33.012  17.656   5.052  0.00  0.00     0.037 A 
HETATM   19  C   UNK N   1      31.742  17.383   4.536  0.00  0.00     0.010 A 
BRANCH  17  20
HETATM   20  O   UNK N   1      34.472  17.901   6.905  0.00  0.00    -0.356 OA
HETATM   21  C   UNK N   1      34.703  18.354   8.184  0.00  0.00     0.210 C 
ENDBRANCH  17  20
ENDBRANCH   1  14
TORSDOF 6
ENDMDL
MODEL 4
REMARK VINA RESULT:      -5.6     12.917     15.152
REMARK  6 active torsions:
REMARK  status: ('A' for Active; 'I' for Inactive)
REMARK    1  A    between atoms: O_1  and  C_4 
REMARK    2  A    between atoms: O_2  and  C_19 
REMARK    3  A    between atoms: N_3  and  C_11 
REMARK    4  A    between atoms: C_4  and  C_5 
REMARK    5  A    between atoms: C_5  and  C_11 
REMARK    6  A    between atoms: C_5  and  C_12 
ROOT
HETATM    1  C   UNK N   1      31.940  16.654   5.823  0.00  0.00     0.081 C 
ENDROOT
BRANCH   1   2
HETATM    2  C   UNK N   1      30.422  16.649   6.140  0.00  0.00     0.067 C 
HETATM    3  C   UNK N   1      29.700  17.594   5.168  0.00  0.00     0.038 C 
HETATM    4  C   UNK N   1      28.208  17.695   5.496  0.00  0.00     0.003 C 
HETATM    5  C   UNK N   1      27.936  18.029   6.970  0.00  0.00     0.000 C 
HETATM    6  C   UNK N   1      29.210  18.214   7.794  0.00  0.00     0.003 C 
HETATM    7  C   UNK N   1      30.155  17.021   7.618  0.00  0.00     0.038 C 
BRANCH   2   8
HETATM    8  O   UNK N   1      29.923  15.360   5.927  0.00  0.00    -0.389 OA
HETATM    9  H   UNK N   1      29.413  15.163   5.125  0.00  0.00     0.210 HD
ENDBRANCH   2   8
ENDBRANCH   1   2
BRANCH   1  10
HETATM   10  C   UNK N   1      32.338  15.436   4.987  0.00  0.00     0.283 C 
BRANCH  10  11
HETATM   11  N   UNK N   1      33.371  15.818   4.035  0.00  0.00     0.080 N 
HETATM   12  C   UNK N   1      32.838  16.900   3.229  0.00  0.00     0.309 C 
HETATM   13  C   UNK N   1      33.590  14.694   3.142  0.00  0.00     0.309 C 
ENDBRANCH  10  11
ENDBRANCH   1  10
BRANCH   1  14
HETATM   14  C   UNK N   1      32.898  16.832   6.989  0.00  0.00    -0.049 A 
HETATM   15  C   UNK N   1      33.114  15.757   7.864  0.00  0.00     0.010 A 
HETATM   16  C   UNK N   1      33.978  15.889   8.953  0.00  0.00     0.037 A 
HETATM   17  C   UNK N   1      34.649  17.102   9.181  0.00  0.00     0.068 A 
HETATM   18  C   UNK N   1      34.447  18.171   8.305  0.00  0.00     0.037 A 
HETATM   19  C   UNK N   1      33.578  18.038   7.219  0.00  0.00     0.010 A 
BRANCH  17  20
HETATM   20  O   UNK N   1      35.486  17.263  10.234  0.00  0.00    -0.356 OA
HETATM   21  C   UNK N   1      35.966  16.213  10.982  0.00  0.00     0.210 C 
ENDBRANCH  17  20
ENDBRANCH   1  14
TORSDOF 6
ENDMDL
MODEL 5
REMARK VINA RESULT:      -5.6     13.170     16.426
REMARK  6 active torsions:
REMARK  status: ('A' for Active; 'I' for Inactive)
REMARK    1  A    between atoms: O_1  and  C_4 
REMARK    2  A    between atoms: O_2  and  C_19 
REMARK    3  A    between atoms: N_3  and  C_11 
REMARK    4  A    between atoms: C_4  and  C_5 
REMARK    5  A    between atoms: C_5  and  C_11 
REMARK    6  A    between atoms: C_5  and  C_12 
ROOT
HETATM    1  C   UNK N   1      32.543  16.725   7.719  0.00  0.00     0.081 C 
ENDROOT
BRANCH   1   2
HETATM    2  C   UNK N   1      33.188  16.874   6.317  0.00  0.00     0.067 C 
HETATM    3  C   UNK N   1      32.116  17.322   5.312  0.00  0.00     0.038 C 
HETATM    4  C   UNK N   1      32.682  17.397   3.893  0.00  0.00     0.003 C 
HETATM    5  C   UNK N   1      33.405  16.113   3.463  0.00  0.00     0.000 C 
HETATM    6  C   UNK N   1      33.389  15.022   4.533  0.00  0.00     0.003 C 
HETATM    7  C   UNK N   1      33.884  15.564   5.878  0.00  0.00     0.038 C 
BRANCH   2   8
HETATM    8  O   UNK N   1      34.161  17.877   6.374  0.00  0.00    -0.389 OA
HETATM    9  H   UNK N   1      33.906  18.788   6.588  0.00  0.00     0.210 HD
ENDBRANCH   2   8
ENDBRANCH   1   2
BRANCH   1  10
HETATM   10  C   UNK N   1      31.782  17.991   8.119  0.00  0.00     0.283 C 
BRANCH  10  11
HETATM   11  N   UNK N   1      30.567  17.622   8.831  0.00  0.00     0.080 N 
HETATM   12  C   UNK N   1      29.585  17.228   7.838  0.00  0.00     0.309 C 
HETATM   13  C   UNK N   1      30.054  18.815   9.483  0.00  0.00     0.309 C 
ENDBRANCH  10  11
ENDBRANCH   1  10
BRANCH   1  14
HETATM   14  C   UNK N   1      33.439  16.265   8.857  0.00  0.00    -0.049 A 
HETATM   15  C   UNK N   1      34.431  17.131   9.337  0.00  0.00     0.010 A 
HETATM   16  C   UNK N   1      35.280  16.736  10.373  0.00  0.00     0.037 A 
HETATM   17  C   UNK N   1      35.145  15.465  10.954  0.00  0.00     0.068 A 
HETATM   18  C   UNK N   1      34.149  14.602  10.487  0.00  0.00     0.037 A 
HETATM   19  C   UNK N   1      33.303  14.998   9.447  0.00  0.00     0.010 A 
BRANCH  17  20
HETATM   20  O   UNK N   1      35.959  15.050  11.953  0.00  0.00    -0.356 OA
HETATM   21  C   UNK N   1      36.538  13.802  11.984  0.00  0.00     0.210 C 
ENDBRANCH  17  20
ENDBRANCH   1  14
TORSDOF 6
ENDMDL
MODEL 6
REMARK VINA RESULT:      -5.4     10.037     13.355
REMARK  6 active torsions:
REMARK  status: ('A' for Active; 'I' for Inactive)
REMARK    1  A    between atoms: O_1  and  C_4 
REMARK    2  A    between atoms: O_2  and  C_19 
REMARK    3  A    between atoms: N_3  and  C_11 
REMARK    4  A    between atoms: C_4  and  C_5 
REMARK    5  A    between atoms: C_5  and  C_11 
REMARK    6  A    between atoms: C_5  and  C_12 
ROOT
HETATM    1  C   UNK N   1      27.542  17.347   4.875  0.00  0.00     0.081 C 
ENDROOT
BRANCH   1   2
HETATM    2  C   UNK N   1      27.856  17.370   6.394  0.00  0.00     0.067 C 
HETATM    3  C   UNK N   1      27.896  18.827   6.879  0.00  0.00     0.038 C 
HETATM    4  C   UNK N   1      28.291  18.910   8.355  0.00  0.00     0.003 C 
HETATM    5  C   UNK N   1      29.575  18.134   8.681  0.00  0.00     0.000 C 
HETATM    6  C   UNK N   1      30.202  17.462   7.460  0.00  0.00     0.003 C 
HETATM    7  C   UNK N   1      29.169  16.617   6.708  0.00  0.00     0.038 C 
BRANCH   2   8
HETATM    8  O   UNK N   1      26.819  16.725   7.076  0.00  0.00    -0.389 OA
HETATM    9  H   UNK N   1      27.016  15.985   7.671  0.00  0.00     0.210 HD
ENDBRANCH   2   8
ENDBRANCH   1   2
BRANCH   1  10
HETATM   10  C   UNK N   1      28.818  17.487   4.041  0.00  0.00     0.283 C 
BRANCH  10  11
HETATM   11  N   UNK N   1      28.816  16.489   2.981  0.00  0.00     0.080 N 
HETATM   12  C   UNK N   1      28.013  15.372   3.439  0.00  0.00     0.309 C 
HETATM   13  C   UNK N   1      30.175  15.999   2.829  0.00  0.00     0.309 C 
ENDBRANCH  10  11
ENDBRANCH   1  10
BRANCH   1  14
HETATM   14  C   UNK N   1      26.470  18.296   4.367  0.00  0.00    -0.049 A 
HETATM   15  C   UNK N   1      26.858  19.487   3.735  0.00  0.00     0.010 A 
HETATM   16  C   UNK N   1      25.900  20.388   3.267  0.00  0.00     0.037 A 
HETATM   17  C   UNK N   1      24.532  20.108   3.416  0.00  0.00     0.068 A 
HETATM   18  C   UNK N   1      24.140  18.918   4.034  0.00  0.00     0.037 A 
HETATM   19  C   UNK N   1      25.101  18.019   4.506  0.00  0.00     0.010 A 
BRANCH  17  20
HETATM   20  O   UNK N   1      23.579  20.967   2.980  0.00  0.00    -0.356 OA
HETATM   21  C   UNK N   1      22.289  20.581   2.696  0.00  0.00     0.210 C 
ENDBRANCH  17  20
ENDBRANCH   1  14
TORSDOF 6
ENDMDL
MODEL 7
REMARK VINA RESULT:      -5.3     13.097     15.211
REMARK  6 active torsions:
REMARK  status: ('A' for Active; 'I' for Inactive)
REMARK    1  A    between atoms: O_1  and  C_4 
REMARK    2  A    between atoms: O_2  and  C_19 
REMARK    3  A    between atoms: N_3  and  C_11 
REMARK    4  A    between atoms: C_4  and  C_5 
REMARK    5  A    between atoms: C_5  and  C_11 
REMARK    6  A    between atoms: C_5  and  C_12 
ROOT
HETATM    1  C   UNK N   1      31.342  17.235   6.648  0.00  0.00     0.081 C 
ENDROOT
BRANCH   1   2
HETATM    2  C   UNK N   1      32.279  17.363   7.877  0.00  0.00     0.067 C 
HETATM    3  C   UNK N   1      33.627  17.945   7.427  0.00  0.00     0.038 C 
HETATM    4  C   UNK N   1      34.621  18.008   8.589  0.00  0.00     0.003 C 
HETATM    5  C   UNK N   1      34.763  16.674   9.335  0.00  0.00     0.000 C 
HETATM    6  C   UNK N   1      33.902  15.557   8.746  0.00  0.00     0.003 C 
HETATM    7  C   UNK N   1      32.444  16.006   8.601  0.00  0.00     0.038 C 
BRANCH   2   8
HETATM    8  O   UNK N   1      31.710  18.265   8.783  0.00  0.00    -0.389 OA
HETATM    9  H   UNK N   1      32.279  18.848   9.309  0.00  0.00     0.210 HD
ENDBRANCH   2   8
ENDBRANCH   1   2
BRANCH   1  10
HETATM   10  C   UNK N   1      29.989  16.637   7.038  0.00  0.00     0.283 C 
BRANCH  10  11
HETATM   11  N   UNK N   1      28.965  17.669   6.972  0.00  0.00     0.080 N 
HETATM   12  C   UNK N   1      28.236  17.637   8.224  0.00  0.00     0.309 C 
HETATM   13  C   UNK N   1      28.027  17.298   5.927  0.00  0.00     0.309 C 
ENDBRANCH  10  11
ENDBRANCH   1  10
BRANCH   1  14
HETATM   14  C   UNK N   1      31.895  16.537   5.416  0.00  0.00    -0.049 A 
HETATM   15  C   UNK N   1      31.827  15.139   5.338  0.00  0.00     0.010 A 
HETATM   16  C   UNK N   1      32.337  14.463   4.227  0.00  0.00     0.037 A 
HETATM   17  C   UNK N   1      32.918  15.180   3.168  0.00  0.00     0.068 A 
HETATM   18  C   UNK N   1      32.976  16.574   3.236  0.00  0.00     0.037 A 
HETATM   19  C   UNK N   1      32.470  17.248   4.351  0.00  0.00     0.010 A 
BRANCH  17  20
HETATM   20  O   UNK N   1      33.428  14.552   2.082  0.00  0.00    -0.356 OA
HETATM   21  C   UNK N   1      34.740  14.146   1.994  0.00  0.00     0.210 C 
ENDBRANCH  17  20
ENDBRANCH   1  14
TORSDOF 6
ENDMDL
MODEL 8
REMARK VINA RESULT:      -5.2     17.394     21.264
REMARK  6 active torsions:
REMARK  status: ('A' for Active; 'I' for Inactive)
REMARK    1  A    between atoms: O_1  and  C_4 
REMARK    2  A    between atoms: O_2  and  C_19 
REMARK    3  A    between atoms: N_3  and  C_11 
REMARK    4  A    between atoms: C_4  and  C_5 
REMARK    5  A    between atoms: C_5  and  C_11 
REMARK    6  A    between atoms: C_5  and  C_12 
ROOT
HETATM    1  C   UNK N   1      35.610  14.139  10.910  0.00  0.00     0.081 C 
ENDROOT
BRANCH   1   2
HETATM    2  C   UNK N   1      34.467  15.078  10.444  0.00  0.00     0.067 C 
HETATM    3  C   UNK N   1      33.982  14.633   9.056  0.00  0.00     0.038 C 
HETATM    4  C   UNK N   1      32.913  15.583   8.511  0.00  0.00     0.003 C 
HETATM    5  C   UNK N   1      33.337  17.058   8.553  0.00  0.00     0.000 C 
HETATM    6  C   UNK N   1      34.746  17.266   9.108  0.00  0.00     0.003 C 
HETATM    7  C   UNK N   1      34.915  16.558  10.456  0.00  0.00     0.038 C 
BRANCH   2   8
HETATM    8  O   UNK N   1      33.392  14.949  11.330  0.00  0.00    -0.389 OA
HETATM    9  H   UNK N   1      32.878  14.126  11.353  0.00  0.00     0.210 HD
ENDBRANCH   2   8
ENDBRANCH   1   2
BRANCH   1  10
HETATM   10  C   UNK N   1      35.743  12.924   9.989  0.00  0.00     0.283 C 
BRANCH  10  11
HETATM   11  N   UNK N   1      37.093  12.871   9.448  0.00  0.00     0.080 N 
HETATM   12  C   UNK N   1      37.824  11.872  10.204  0.00  0.00     0.309 C 
HETATM   13  C   UNK N   1      37.729  14.150   9.712  0.00  0.00     0.309 C 
ENDBRANCH  10  11
ENDBRANCH   1  10
BRANCH   1  14
HETATM   14  C   UNK N   1      35.610  13.703  12.365  0.00  0.00    -0.049 A 
HETATM   15  C   UNK N   1      36.288  14.486  13.311  0.00  0.00     0.010 A 
HETATM   16  C   UNK N   1      36.320  14.109  14.655  0.00  0.00     0.037 A 
HETATM   17  C   UNK N   1      35.663  12.942  15.079  0.00  0.00     0.068 A 
HETATM   18  C   UNK N   1      34.975  12.166  14.142  0.00  0.00     0.037 A 
HETATM   19  C   UNK N   1      34.949  12.543  12.797  0.00  0.00     0.010 A 
BRANCH  17  20
HETATM   20  O   UNK N   1      35.683  12.546  16.374  0.00  0.00    -0.356 OA
HETATM   21  C   UNK N   1      35.047  13.234  17.382  0.00  0.00     0.210 C 
ENDBRANCH  17  20
ENDBRANCH   1  14
TORSDOF 6
ENDMDL
MODEL 9
REMARK VINA RESULT:      -5.2     17.496     22.030
REMARK  6 active torsions:
REMARK  status: ('A' for Active; 'I' for Inactive)
REMARK    1  A    between atoms: O_1  and  C_4 
REMARK    2  A    between atoms: O_2  and  C_19 
REMARK    3  A    between atoms: N_3  and  C_11 
REMARK    4  A    between atoms: C_4  and  C_5 
REMARK    5  A    between atoms: C_5  and  C_11 
REMARK    6  A    between atoms: C_5  and  C_12 
ROOT
HETATM    1  C   UNK N   1      36.072  12.991  11.527  0.00  0.00     0.081 C 
ENDROOT
BRANCH   1   2
HETATM    2  C   UNK N   1      35.700  12.676  12.999  0.00  0.00     0.067 C 
HETATM    3  C   UNK N   1      36.458  13.637  13.928  0.00  0.00     0.038 C 
HETATM    4  C   UNK N   1      36.196  13.310  15.399  0.00  0.00     0.003 C 
HETATM    5  C   UNK N   1      36.436  11.832  15.741  0.00  0.00     0.000 C 
HETATM    6  C   UNK N   1      36.909  11.004  14.547  0.00  0.00     0.003 C 
HETATM    7  C   UNK N   1      35.980  11.194  13.344  0.00  0.00     0.038 C 
BRANCH   2   8
HETATM    8  O   UNK N   1      34.332  12.907  13.176  0.00  0.00    -0.389 OA
HETATM    9  H   UNK N   1      33.721  12.793  12.432  0.00  0.00     0.210 HD
ENDBRANCH   2   8
ENDBRANCH   1   2
BRANCH   1  10
HETATM   10  C   UNK N   1      37.586  12.943  11.312  0.00  0.00     0.283 C 
BRANCH  10  11
HETATM   11  N   UNK N   1      37.869  12.666   9.911  0.00  0.00     0.080 N 
HETATM   12  C   UNK N   1      38.592  11.410   9.855  0.00  0.00     0.309 C 
HETATM   13  C   UNK N   1      38.772  13.696   9.428  0.00  0.00     0.309 C 
ENDBRANCH  10  11
ENDBRANCH   1  10
BRANCH   1  14
HETATM   14  C   UNK N   1      35.489  14.252  10.912  0.00  0.00    -0.049 A 
HETATM   15  C   UNK N   1      34.416  14.141  10.016  0.00  0.00     0.010 A 
HETATM   16  C   UNK N   1      33.865  15.277   9.421  0.00  0.00     0.037 A 
HETATM   17  C   UNK N   1      34.373  16.552   9.723  0.00  0.00     0.068 A 
HETATM   18  C   UNK N   1      35.434  16.669  10.625  0.00  0.00     0.037 A 
HETATM   19  C   UNK N   1      35.988  15.529  11.214  0.00  0.00     0.010 A 
BRANCH  17  20
HETATM   20  O   UNK N   1      33.865  17.672   9.156  0.00  0.00    -0.356 OA
HETATM   21  C   UNK N   1      34.536  18.406   8.205  0.00  0.00     0.210 C 
ENDBRANCH  17  20
ENDBRANCH   1  14
TORSDOF 6
ENDMDL
