MODEL 1
REMARK VINA RESULT:      -6.9      0.000      0.000
REMARK  17 active torsions:
REMARK  status: ('A' for Active; 'I' for Inactive)
REMARK    1  A    between atoms: C_12  and  O_4 
REMARK    2  A    between atoms: C_13  and  O_5 
REMARK    3  A    between atoms: C_19  and  O_6 
REMARK    4  A    between atoms: O_7  and  C_22 
REMARK    5  A    between atoms: O_7  and  C_25 
REMARK    6  A    between atoms: O_8  and  C_26 
REMARK    7  A    between atoms: O_8  and  C_29 
REMARK    8  A    between atoms: C_10  and  C_15 
REMARK    9  A    between atoms: C_11  and  C_16 
REMARK   10  A    between atoms: C_15  and  C_17 
REMARK   11  A    between atoms: C_18  and  C_19 
REMARK   12  A    between atoms: C_19  and  C_22 
REMARK   13  A    between atoms: C_20  and  C_21 
REMARK   14  A    between atoms: C_21  and  C_23 
REMARK   15  A    between atoms: C_23  and  C_24 
REMARK   16  A    between atoms: C_24  and  C_26 
REMARK   17  A    between atoms: C_30  and  C_35 
ROOT
HETATM    1  C   UNK N   1      28.050  22.746  -7.670  0.00  0.00     0.028 C 
HETATM    2  C   UNK N   1      26.587  22.396  -7.708  0.00  0.00     0.043 C 
HETATM    3  C   UNK N   1      28.626  21.386  -7.320  0.00  0.00     0.125 C 
HETATM    4  C   UNK N   1      26.587  21.179  -8.602  0.00  0.00     0.128 C 
HETATM    5  C   UNK N   1      27.809  20.393  -8.146  0.00  0.00     0.064 C 
ENDROOT
BRANCH   2   6
HETATM    6  C   UNK N   1      25.623  23.423  -8.179  0.00  0.00    -0.021 C 
HETATM    7  C   UNK N   1      25.843  23.948  -9.378  0.00  0.00     0.003 C 
BRANCH   7   8
HETATM    8  C   UNK N   1      25.188  25.218  -9.777  0.00  0.00     0.165 C 
BRANCH   8   9
HETATM    9  O   UNK N   1      24.414  25.045 -10.918  0.00  0.00    -0.390 OA
HETATM   10  H   UNK N   1      24.281  24.156 -11.284  0.00  0.00     0.210 HD
ENDBRANCH   8   9
BRANCH   8  11
HETATM   11  C   UNK N   1      26.319  26.158 -10.105  0.00  0.00     0.211 C 
BRANCH  11  12
HETATM   12  O   UNK N   1      27.288  26.065  -9.127  0.00  0.00    -0.348 OA
BRANCH  12  13
HETATM   13  C   UNK N   1      27.322  26.913  -8.082  0.00  0.00     0.069 A 
HETATM   14  C   UNK N   1      26.380  26.806  -7.053  0.00  0.00     0.052 A 
HETATM   15  C   UNK N   1      26.392  27.688  -5.978  0.00  0.00     0.050 A 
HETATM   16  C   UNK N   1      27.369  28.693  -5.924  0.00  0.00     0.016 A 
HETATM   17  C   UNK N   1      28.321  28.804  -6.946  0.00  0.00     0.004 A 
HETATM   18  C   UNK N   1      28.295  27.915  -8.026  0.00  0.00     0.037 A 
BRANCH  15  19
HETATM   19  C   UNK N   1      25.357  27.560  -4.904  0.00  0.00     0.417 C 
HETATM   20  F   UNK N   1      25.298  28.711  -4.133  0.00  0.00    -0.166 F 
HETATM   21  F   UNK N   1      25.677  26.495  -4.083  0.00  0.00    -0.166 F 
HETATM   22  F   UNK N   1      24.118  27.346  -5.476  0.00  0.00    -0.166 F 
ENDBRANCH  15  19
ENDBRANCH  12  13
ENDBRANCH  11  12
ENDBRANCH   8  11
ENDBRANCH   7   8
ENDBRANCH   2   6
BRANCH   1  23
HETATM   23  C   UNK N   1      28.456  23.849  -6.690  0.00  0.00     0.034 C 
BRANCH  23  24
HETATM   24  C   UNK N   1      27.798  23.725  -5.348  0.00  0.00    -0.030 C 
HETATM   25  C   UNK N   1      28.164  24.484  -4.312  0.00  0.00    -0.031 C 
BRANCH  25  26
HETATM   26  C   UNK N   1      29.309  25.460  -4.379  0.00  0.00     0.027 C 
BRANCH  26  27
HETATM   27  C   UNK N   1      30.425  25.128  -3.393  0.00  0.00     0.013 C 
BRANCH  27  28
HETATM   28  C   UNK N   1      31.102  23.796  -3.693  0.00  0.00     0.111 C 
BRANCH  28  29
HETATM   29  C   UNK N   1      30.952  22.786  -2.610  0.00  0.00     0.259 C 
HETATM   30  O   UNK N   1      30.475  23.124  -1.535  0.00  0.00    -0.265 OA
BRANCH  29  31
HETATM   31  O   UNK N   1      31.430  21.528  -2.816  0.00  0.00    -0.317 OA
BRANCH  31  32
HETATM   32  C   UNK N   1      32.372  21.091  -3.740  0.00  0.00     0.123 C 
HETATM   33  C   UNK N   1      31.972  19.886  -4.583  0.00  0.00     0.040 C 
HETATM   34  C   UNK N   1      33.684  20.815  -3.037  0.00  0.00     0.040 C 
ENDBRANCH  31  32
ENDBRANCH  29  31
ENDBRANCH  28  29
ENDBRANCH  27  28
ENDBRANCH  26  27
ENDBRANCH  25  26
ENDBRANCH  23  24
ENDBRANCH   1  23
BRANCH   4  35
HETATM   35  O   UNK N   1      25.417  20.436  -8.447  0.00  0.00    -0.395 OA
HETATM   36  H   UNK N   1      24.524  20.654  -8.136  0.00  0.00     0.210 HD
ENDBRANCH   4  35
BRANCH   3  37
HETATM   37  O   UNK N   1      29.980  21.308  -7.639  0.00  0.00    -0.395 OA
HETATM   38  H   UNK N   1      30.377  20.640  -8.220  0.00  0.00     0.210 HD
ENDBRANCH   3  37
TORSDOF 17
ENDMDL
MODEL 2
REMARK VINA RESULT:      -6.8     14.018     16.485
REMARK  17 active torsions:
REMARK  status: ('A' for Active; 'I' for Inactive)
REMARK    1  A    between atoms: C_12  and  O_4 
REMARK    2  A    between atoms: C_13  and  O_5 
REMARK    3  A    between atoms: C_19  and  O_6 
REMARK    4  A    between atoms: O_7  and  C_22 
REMARK    5  A    between atoms: O_7  and  C_25 
REMARK    6  A    between atoms: O_8  and  C_26 
REMARK    7  A    between atoms: O_8  and  C_29 
REMARK    8  A    between atoms: C_10  and  C_15 
REMARK    9  A    between atoms: C_11  and  C_16 
REMARK   10  A    between atoms: C_15  and  C_17 
REMARK   11  A    between atoms: C_18  and  C_19 
REMARK   12  A    between atoms: C_19  and  C_22 
REMARK   13  A    between atoms: C_20  and  C_21 
REMARK   14  A    between atoms: C_21  and  C_23 
REMARK   15  A    between atoms: C_23  and  C_24 
REMARK   16  A    between atoms: C_24  and  C_26 
REMARK   17  A    between atoms: C_30  and  C_35 
ROOT
HETATM    1  C   UNK N   1      21.815  19.241   3.522  0.00  0.00     0.028 C 
HETATM    2  C   UNK N   1      21.022  18.122   2.903  0.00  0.00     0.043 C 
HETATM    3  C   UNK N   1      21.662  20.289   2.435  0.00  0.00     0.125 C 
HETATM    4  C   UNK N   1      19.741  18.826   2.527  0.00  0.00     0.128 C 
HETATM    5  C   UNK N   1      20.210  20.165   1.974  0.00  0.00     0.064 C 
ENDROOT
BRANCH   2   6
HETATM    6  C   UNK N   1      20.762  16.904   3.713  0.00  0.00    -0.021 C 
HETATM    7  C   UNK N   1      19.608  16.853   4.366  0.00  0.00     0.003 C 
BRANCH   7   8
HETATM    8  C   UNK N   1      19.414  15.889   5.478  0.00  0.00     0.165 C 
BRANCH   8   9
HETATM    9  O   UNK N   1      18.102  15.912   5.935  0.00  0.00    -0.390 OA
HETATM   10  H   UNK N   1      17.399  15.492   5.416  0.00  0.00     0.210 HD
ENDBRANCH   8   9
BRANCH   8  11
HETATM   11  C   UNK N   1      20.314  16.376   6.584  0.00  0.00     0.211 C 
BRANCH  11  12
HETATM   12  O   UNK N   1      20.249  15.499   7.646  0.00  0.00    -0.348 OA
BRANCH  12  13
HETATM   13  C   UNK N   1      21.294  14.721   7.986  0.00  0.00     0.069 A 
HETATM   14  C   UNK N   1      21.214  13.875   9.097  0.00  0.00     0.052 A 
HETATM   15  C   UNK N   1      22.292  13.081   9.471  0.00  0.00     0.050 A 
HETATM   16  C   UNK N   1      23.473  13.126   8.716  0.00  0.00     0.016 A 
HETATM   17  C   UNK N   1      23.561  13.966   7.597  0.00  0.00     0.004 A 
HETATM   18  C   UNK N   1      22.471  14.765   7.235  0.00  0.00     0.037 A 
BRANCH  15  19
HETATM   19  C   UNK N   1      22.182  12.201  10.678  0.00  0.00     0.417 C 
HETATM   20  F   UNK N   1      22.861  12.751  11.755  0.00  0.00    -0.166 F 
HETATM   21  F   UNK N   1      22.729  10.964  10.395  0.00  0.00    -0.166 F 
HETATM   22  F   UNK N   1      20.853  12.051  11.022  0.00  0.00    -0.166 F 
ENDBRANCH  15  19
ENDBRANCH  12  13
ENDBRANCH  11  12
ENDBRANCH   8  11
ENDBRANCH   7   8
ENDBRANCH   2   6
BRANCH   1  23
HETATM   23  C   UNK N   1      23.273  18.929   3.865  0.00  0.00     0.034 C 
BRANCH  23  24
HETATM   24  C   UNK N   1      23.427  18.095   5.102  0.00  0.00    -0.030 C 
HETATM   25  C   UNK N   1      24.160  16.977   5.110  0.00  0.00    -0.031 C 
BRANCH  25  26
HETATM   26  C   UNK N   1      24.818  16.424   3.875  0.00  0.00     0.027 C 
BRANCH  26  27
HETATM   27  C   UNK N   1      26.307  16.749   3.804  0.00  0.00     0.013 C 
BRANCH  27  28
HETATM   28  C   UNK N   1      26.974  16.761   5.173  0.00  0.00     0.111 C 
BRANCH  28  29
HETATM   29  C   UNK N   1      27.575  18.072   5.539  0.00  0.00     0.259 C 
HETATM   30  O   UNK N   1      28.793  18.195   5.544  0.00  0.00    -0.265 OA
BRANCH  29  31
HETATM   31  O   UNK N   1      26.754  19.081   5.942  0.00  0.00    -0.317 OA
BRANCH  31  32
HETATM   32  C   UNK N   1      26.449  20.271   5.293  0.00  0.00     0.123 C 
HETATM   33  C   UNK N   1      26.721  20.305   3.794  0.00  0.00     0.040 C 
HETATM   34  C   UNK N   1      27.166  21.420   5.972  0.00  0.00     0.040 C 
ENDBRANCH  31  32
ENDBRANCH  29  31
ENDBRANCH  28  29
ENDBRANCH  27  28
ENDBRANCH  26  27
ENDBRANCH  25  26
ENDBRANCH  23  24
ENDBRANCH   1  23
BRANCH   4  35
HETATM   35  O   UNK N   1      19.027  18.103   1.570  0.00  0.00    -0.395 OA
HETATM   36  H   UNK N   1      19.288  17.601   0.782  0.00  0.00     0.210 HD
ENDBRANCH   4  35
BRANCH   3  37
HETATM   37  O   UNK N   1      21.927  21.569   2.918  0.00  0.00    -0.395 OA
HETATM   38  H   UNK N   1      21.988  21.807   3.857  0.00  0.00     0.210 HD
ENDBRANCH   3  37
TORSDOF 17
ENDMDL
MODEL 3
REMARK VINA RESULT:      -6.7     15.692     20.970
REMARK  17 active torsions:
REMARK  status: ('A' for Active; 'I' for Inactive)
REMARK    1  A    between atoms: C_12  and  O_4 
REMARK    2  A    between atoms: C_13  and  O_5 
REMARK    3  A    between atoms: C_19  and  O_6 
REMARK    4  A    between atoms: O_7  and  C_22 
REMARK    5  A    between atoms: O_7  and  C_25 
REMARK    6  A    between atoms: O_8  and  C_26 
REMARK    7  A    between atoms: O_8  and  C_29 
REMARK    8  A    between atoms: C_10  and  C_15 
REMARK    9  A    between atoms: C_11  and  C_16 
REMARK   10  A    between atoms: C_15  and  C_17 
REMARK   11  A    between atoms: C_18  and  C_19 
REMARK   12  A    between atoms: C_19  and  C_22 
REMARK   13  A    between atoms: C_20  and  C_21 
REMARK   14  A    between atoms: C_21  and  C_23 
REMARK   15  A    between atoms: C_23  and  C_24 
REMARK   16  A    between atoms: C_24  and  C_26 
REMARK   17  A    between atoms: C_30  and  C_35 
ROOT
HETATM    1  C   UNK N   1      32.500  15.628   7.834  0.00  0.00     0.028 C 
HETATM    2  C   UNK N   1      33.840  16.270   7.595  0.00  0.00     0.043 C 
HETATM    3  C   UNK N   1      32.062  15.418   6.396  0.00  0.00     0.125 C 
HETATM    4  C   UNK N   1      34.467  15.314   6.609  0.00  0.00     0.128 C 
HETATM    5  C   UNK N   1      33.324  14.964   5.665  0.00  0.00     0.064 C 
ENDROOT
BRANCH   2   6
HETATM    6  C   UNK N   1      34.727  16.517   8.761  0.00  0.00    -0.021 C 
HETATM    7  C   UNK N   1      35.020  15.472   9.523  0.00  0.00     0.003 C 
BRANCH   7   8
HETATM    8  C   UNK N   1      35.566  15.665  10.890  0.00  0.00     0.165 C 
BRANCH   8   9
HETATM    9  O   UNK N   1      36.925  15.948  10.850  0.00  0.00    -0.390 OA
HETATM   10  H   UNK N   1      37.485  15.756  11.618  0.00  0.00     0.210 HD
ENDBRANCH   8   9
BRANCH   8  11
HETATM   11  C   UNK N   1      35.373  14.340  11.582  0.00  0.00     0.211 C 
BRANCH  11  12
HETATM   12  O   UNK N   1      36.356  14.175  12.535  0.00  0.00    -0.348 OA
BRANCH  12  13
HETATM   13  C   UNK N   1      36.102  13.586  13.719  0.00  0.00     0.069 A 
HETATM   14  C   UNK N   1      35.318  12.429  13.780  0.00  0.00     0.052 A 
HETATM   15  C   UNK N   1      35.032  11.823  14.998  0.00  0.00     0.050 A 
HETATM   16  C   UNK N   1      35.544  12.379  16.180  0.00  0.00     0.016 A 
HETATM   17  C   UNK N   1      36.336  13.533  16.128  0.00  0.00     0.004 A 
HETATM   18  C   UNK N   1      36.612  14.138  14.897  0.00  0.00     0.037 A 
BRANCH  15  19
HETATM   19  C   UNK N   1      34.172  10.597  15.032  0.00  0.00     0.417 C 
HETATM   20  F   UNK N   1      32.867  10.898  14.673  0.00  0.00    -0.166 F 
HETATM   21  F   UNK N   1      34.169  10.073  16.311  0.00  0.00    -0.166 F 
HETATM   22  F   UNK N   1      34.669   9.658  14.149  0.00  0.00    -0.166 F 
ENDBRANCH  15  19
ENDBRANCH  12  13
ENDBRANCH  11  12
ENDBRANCH   8  11
ENDBRANCH   7   8
ENDBRANCH   2   6
BRANCH   1  23
HETATM   23  C   UNK N   1      31.500  16.435   8.664  0.00  0.00     0.034 C 
BRANCH  23  24
HETATM   24  C   UNK N   1      31.642  17.918   8.488  0.00  0.00    -0.030 C 
HETATM   25  C   UNK N   1      30.719  18.771   8.942  0.00  0.00    -0.031 C 
BRANCH  25  26
HETATM   26  C   UNK N   1      29.437  18.319   9.588  0.00  0.00     0.027 C 
BRANCH  26  27
HETATM   27  C   UNK N   1      28.218  18.533   8.695  0.00  0.00     0.013 C 
BRANCH  27  28
HETATM   28  C   UNK N   1      27.977  17.372   7.738  0.00  0.00     0.111 C 
BRANCH  28  29
HETATM   29  C   UNK N   1      28.534  17.588   6.375  0.00  0.00     0.259 C 
HETATM   30  O   UNK N   1      29.080  16.659   5.794  0.00  0.00    -0.265 OA
BRANCH  29  31
HETATM   31  O   UNK N   1      28.496  18.840   5.842  0.00  0.00    -0.317 OA
BRANCH  31  32
HETATM   32  C   UNK N   1      27.399  19.566   5.391  0.00  0.00     0.123 C 
HETATM   33  C   UNK N   1      27.237  19.664   3.880  0.00  0.00     0.040 C 
HETATM   34  C   UNK N   1      27.423  20.953   5.997  0.00  0.00     0.040 C 
ENDBRANCH  31  32
ENDBRANCH  29  31
ENDBRANCH  28  29
ENDBRANCH  27  28
ENDBRANCH  26  27
ENDBRANCH  25  26
ENDBRANCH  23  24
ENDBRANCH   1  23
BRANCH   4  35
HETATM   35  O   UNK N   1      35.526  15.912   5.927  0.00  0.00    -0.395 OA
HETATM   36  H   UNK N   1      36.312  15.563   5.478  0.00  0.00     0.210 HD
ENDBRANCH   4  35
BRANCH   3  37
HETATM   37  O   UNK N   1      31.057  14.456   6.304  0.00  0.00    -0.395 OA
HETATM   38  H   UNK N   1      30.152  14.565   6.635  0.00  0.00     0.210 HD
ENDBRANCH   3  37
TORSDOF 17
ENDMDL
MODEL 4
REMARK VINA RESULT:      -6.6     14.726     17.647
REMARK  17 active torsions:
REMARK  status: ('A' for Active; 'I' for Inactive)
REMARK    1  A    between atoms: C_12  and  O_4 
REMARK    2  A    between atoms: C_13  and  O_5 
REMARK    3  A    between atoms: C_19  and  O_6 
REMARK    4  A    between atoms: O_7  and  C_22 
REMARK    5  A    between atoms: O_7  and  C_25 
REMARK    6  A    between atoms: O_8  and  C_26 
REMARK    7  A    between atoms: O_8  and  C_29 
REMARK    8  A    between atoms: C_10  and  C_15 
REMARK    9  A    between atoms: C_11  and  C_16 
REMARK   10  A    between atoms: C_15  and  C_17 
REMARK   11  A    between atoms: C_18  and  C_19 
REMARK   12  A    between atoms: C_19  and  C_22 
REMARK   13  A    between atoms: C_20  and  C_21 
REMARK   14  A    between atoms: C_21  and  C_23 
REMARK   15  A    between atoms: C_23  and  C_24 
REMARK   16  A    between atoms: C_24  and  C_26 
REMARK   17  A    between atoms: C_30  and  C_35 
ROOT
HETATM    1  C   UNK N   1      29.925  16.700   7.728  0.00  0.00     0.028 C 
HETATM    2  C   UNK N   1      28.502  17.189   7.732  0.00  0.00     0.043 C 
HETATM    3  C   UNK N   1      30.604  17.894   8.373  0.00  0.00     0.125 C 
HETATM    4  C   UNK N   1      28.335  17.635   9.165  0.00  0.00     0.128 C 
HETATM    5  C   UNK N   1      29.651  18.332   9.485  0.00  0.00     0.064 C 
ENDROOT
BRANCH   2   6
HETATM    6  C   UNK N   1      27.427  16.250   7.321  0.00  0.00    -0.021 C 
HETATM    7  C   UNK N   1      26.823  16.499   6.165  0.00  0.00     0.003 C 
BRANCH   7   8
HETATM    8  C   UNK N   1      25.516  15.872   5.848  0.00  0.00     0.165 C 
BRANCH   8   9
HETATM    9  O   UNK N   1      24.504  16.823   5.802  0.00  0.00    -0.390 OA
HETATM   10  H   UNK N   1      24.454  17.513   6.482  0.00  0.00     0.210 HD
ENDBRANCH   8   9
BRANCH   8  11
HETATM   11  C   UNK N   1      25.240  14.934   6.995  0.00  0.00     0.211 C 
BRANCH  11  12
HETATM   12  O   UNK N   1      24.064  14.254   6.757  0.00  0.00    -0.348 OA
BRANCH  12  13
HETATM   13  C   UNK N   1      23.091  14.178   7.684  0.00  0.00     0.069 A 
HETATM   14  C   UNK N   1      23.185  13.258   8.734  0.00  0.00     0.052 A 
HETATM   15  C   UNK N   1      22.178  13.155   9.687  0.00  0.00     0.050 A 
HETATM   16  C   UNK N   1      21.057  13.992   9.596  0.00  0.00     0.016 A 
HETATM   17  C   UNK N   1      20.957  14.922   8.552  0.00  0.00     0.004 A 
HETATM   18  C   UNK N   1      21.973  15.012   7.595  0.00  0.00     0.037 A 
BRANCH  15  19
HETATM   19  C   UNK N   1      22.299  12.146  10.787  0.00  0.00     0.417 C 
HETATM   20  F   UNK N   1      22.779  10.939  10.300  0.00  0.00    -0.166 F 
HETATM   21  F   UNK N   1      21.056  11.931  11.352  0.00  0.00    -0.166 F 
HETATM   22  F   UNK N   1      23.171  12.613  11.751  0.00  0.00    -0.166 F 
ENDBRANCH  15  19
ENDBRANCH  12  13
ENDBRANCH  11  12
ENDBRANCH   8  11
ENDBRANCH   7   8
ENDBRANCH   2   6
BRANCH   1  23
HETATM   23  C   UNK N   1      30.510  16.331   6.363  0.00  0.00     0.034 C 
BRANCH  23  24
HETATM   24  C   UNK N   1      30.468  17.457   5.374  0.00  0.00    -0.030 C 
HETATM   25  C   UNK N   1      31.074  17.373   4.186  0.00  0.00    -0.031 C 
BRANCH  25  26
HETATM   26  C   UNK N   1      31.907  16.187   3.777  0.00  0.00     0.027 C 
BRANCH  26  27
HETATM   27  C   UNK N   1      33.404  16.437   3.930  0.00  0.00     0.013 C 
BRANCH  27  28
HETATM   28  C   UNK N   1      34.012  15.681   5.105  0.00  0.00     0.111 C 
BRANCH  28  29
HETATM   29  C   UNK N   1      34.100  16.480   6.357  0.00  0.00     0.259 C 
HETATM   30  O   UNK N   1      34.496  17.637   6.305  0.00  0.00    -0.265 OA
BRANCH  29  31
HETATM   31  O   UNK N   1      33.816  15.875   7.542  0.00  0.00    -0.317 OA
BRANCH  31  32
HETATM   32  C   UNK N   1      34.690  15.387   8.507  0.00  0.00     0.123 C 
HETATM   33  C   UNK N   1      35.771  14.436   8.010  0.00  0.00     0.040 C 
HETATM   34  C   UNK N   1      33.903  14.735   9.624  0.00  0.00     0.040 C 
ENDBRANCH  31  32
ENDBRANCH  29  31
ENDBRANCH  28  29
ENDBRANCH  27  28
ENDBRANCH  26  27
ENDBRANCH  25  26
ENDBRANCH  23  24
ENDBRANCH   1  23
BRANCH   4  35
HETATM   35  O   UNK N   1      27.252  18.503   9.304  0.00  0.00    -0.395 OA
HETATM   36  H   UNK N   1      26.612  18.662  10.015  0.00  0.00     0.210 HD
ENDBRANCH   4  35
BRANCH   3  37
HETATM   37  O   UNK N   1      31.853  17.554   8.889  0.00  0.00    -0.395 OA
HETATM   38  H   UNK N   1      32.596  17.215   8.367  0.00  0.00     0.210 HD
ENDBRANCH   3  37
TORSDOF 17
ENDMDL
MODEL 5
REMARK VINA RESULT:      -6.6     12.651     15.826
REMARK  17 active torsions:
REMARK  status: ('A' for Active; 'I' for Inactive)
REMARK    1  A    between atoms: C_12  and  O_4 
REMARK    2  A    between atoms: C_13  and  O_5 
REMARK    3  A    between atoms: C_19  and  O_6 
REMARK    4  A    between atoms: O_7  and  C_22 
REMARK    5  A    between atoms: O_7  and  C_25 
REMARK    6  A    between atoms: O_8  and  C_26 
REMARK    7  A    between atoms: O_8  and  C_29 
REMARK    8  A    between atoms: C_10  and  C_15 
REMARK    9  A    between atoms: C_11  and  C_16 
REMARK   10  A    between atoms: C_15  and  C_17 
REMARK   11  A    between atoms: C_18  and  C_19 
REMARK   12  A    between atoms: C_19  and  C_22 
REMARK   13  A    between atoms: C_20  and  C_21 
REMARK   14  A    between atoms: C_21  and  C_23 
REMARK   15  A    between atoms: C_23  and  C_24 
REMARK   16  A    between atoms: C_24  and  C_26 
REMARK   17  A    between atoms: C_30  and  C_35 
ROOT
HETATM    1  C   UNK N   1      33.301  16.347   7.061  0.00  0.00     0.028 C 
HETATM    2  C   UNK N   1      32.687  16.495   8.427  0.00  0.00     0.043 C 
HETATM    3  C   UNK N   1      34.623  15.709   7.447  0.00  0.00     0.125 C 
HETATM    4  C   UNK N   1      32.867  15.108   8.996  0.00  0.00     0.128 C 
HETATM    5  C   UNK N   1      34.268  14.711   8.548  0.00  0.00     0.064 C 
ENDROOT
BRANCH   2   6
HETATM    6  C   UNK N   1      31.276  16.950   8.525  0.00  0.00    -0.021 C 
HETATM    7  C   UNK N   1      31.077  18.239   8.768  0.00  0.00     0.003 C 
BRANCH   7   8
HETATM    8  C   UNK N   1      29.760  18.720   9.255  0.00  0.00     0.165 C 
BRANCH   8   9
HETATM    9  O   UNK N   1      29.444  18.153  10.483  0.00  0.00    -0.390 OA
HETATM   10  H   UNK N   1      28.821  17.410  10.530  0.00  0.00     0.210 HD
ENDBRANCH   8   9
BRANCH   8  11
HETATM   11  C   UNK N   1      28.763  18.236   8.233  0.00  0.00     0.211 C 
BRANCH  11  12
HETATM   12  O   UNK N   1      28.322  19.307   7.483  0.00  0.00    -0.348 OA
BRANCH  12  13
HETATM   13  C   UNK N   1      27.746  19.136   6.278  0.00  0.00     0.069 A 
HETATM   14  C   UNK N   1      26.978  17.996   6.016  0.00  0.00     0.052 A 
HETATM   15  C   UNK N   1      26.394  17.799   4.770  0.00  0.00     0.050 A 
HETATM   16  C   UNK N   1      26.573  18.762   3.766  0.00  0.00     0.016 A 
HETATM   17  C   UNK N   1      27.334  19.911   4.021  0.00  0.00     0.004 A 
HETATM   18  C   UNK N   1      27.923  20.095   5.277  0.00  0.00     0.037 A 
BRANCH  15  19
HETATM   19  C   UNK N   1      25.596  16.558   4.514  0.00  0.00     0.417 C 
HETATM   20  F   UNK N   1      25.065  16.566   3.232  0.00  0.00    -0.166 F 
HETATM   21  F   UNK N   1      24.556  16.486   5.422  0.00  0.00    -0.166 F 
HETATM   22  F   UNK N   1      26.407  15.448   4.651  0.00  0.00    -0.166 F 
ENDBRANCH  15  19
ENDBRANCH  12  13
ENDBRANCH  11  12
ENDBRANCH   8  11
ENDBRANCH   7   8
ENDBRANCH   2   6
BRANCH   1  23
HETATM   23  C   UNK N   1      33.461  17.634   6.248  0.00  0.00     0.034 C 
BRANCH  23  24
HETATM   24  C   UNK N   1      33.368  17.416   4.767  0.00  0.00    -0.030 C 
HETATM   25  C   UNK N   1      32.197  17.445   4.124  0.00  0.00    -0.031 C 
BRANCH  25  26
HETATM   26  C   UNK N   1      30.880  17.614   4.834  0.00  0.00     0.027 C 
BRANCH  26  27
HETATM   27  C   UNK N   1      29.862  16.543   4.452  0.00  0.00     0.013 C 
BRANCH  27  28
HETATM   28  C   UNK N   1      29.680  15.489   5.536  0.00  0.00     0.111 C 
BRANCH  28  29
HETATM   29  C   UNK N   1      29.805  14.090   5.045  0.00  0.00     0.259 C 
HETATM   30  O   UNK N   1      28.948  13.637   4.298  0.00  0.00    -0.265 OA
BRANCH  29  31
HETATM   31  O   UNK N   1      30.829  13.322   5.506  0.00  0.00    -0.317 OA
BRANCH  31  32
HETATM   32  C   UNK N   1      32.199  13.515   5.367  0.00  0.00     0.123 C 
HETATM   33  C   UNK N   1      32.696  13.782   3.952  0.00  0.00     0.040 C 
HETATM   34  C   UNK N   1      32.941  12.336   5.960  0.00  0.00     0.040 C 
ENDBRANCH  31  32
ENDBRANCH  29  31
ENDBRANCH  28  29
ENDBRANCH  27  28
ENDBRANCH  26  27
ENDBRANCH  25  26
ENDBRANCH  23  24
ENDBRANCH   1  23
BRANCH   4  35
HETATM   35  O   UNK N   1      32.759  15.112  10.386  0.00  0.00    -0.395 OA
HETATM   36  H   UNK N   1      33.205  14.617  11.091  0.00  0.00     0.210 HD
ENDBRANCH   4  35
BRANCH   3  37
HETATM   37  O   UNK N   1      35.217  15.067   6.362  0.00  0.00    -0.395 OA
HETATM   38  H   UNK N   1      34.761  14.459   5.759  0.00  0.00     0.210 HD
ENDBRANCH   3  37
TORSDOF 17
ENDMDL
MODEL 6
REMARK VINA RESULT:      -6.6     14.358     17.056
REMARK  17 active torsions:
REMARK  status: ('A' for Active; 'I' for Inactive)
REMARK    1  A    between atoms: C_12  and  O_4 
REMARK    2  A    between atoms: C_13  and  O_5 
REMARK    3  A    between atoms: C_19  and  O_6 
REMARK    4  A    between atoms: O_7  and  C_22 
REMARK    5  A    between atoms: O_7  and  C_25 
REMARK    6  A    between atoms: O_8  and  C_26 
REMARK    7  A    between atoms: O_8  and  C_29 
REMARK    8  A    between atoms: C_10  and  C_15 
REMARK    9  A    between atoms: C_11  and  C_16 
REMARK   10  A    between atoms: C_15  and  C_17 
REMARK   11  A    between atoms: C_18  and  C_19 
REMARK   12  A    between atoms: C_19  and  C_22 
REMARK   13  A    between atoms: C_20  and  C_21 
REMARK   14  A    between atoms: C_21  and  C_23 
REMARK   15  A    between atoms: C_23  and  C_24 
REMARK   16  A    between atoms: C_24  and  C_26 
REMARK   17  A    between atoms: C_30  and  C_35 
ROOT
HETATM    1  C   UNK N   1      22.242  19.020   4.256  0.00  0.00     0.028 C 
HETATM    2  C   UNK N   1      21.258  17.904   4.036  0.00  0.00     0.043 C 
HETATM    3  C   UNK N   1      22.244  19.633   2.868  0.00  0.00     0.125 C 
HETATM    4  C   UNK N   1      20.105  18.634   3.389  0.00  0.00     0.128 C 
HETATM    5  C   UNK N   1      20.782  19.599   2.425  0.00  0.00     0.064 C 
ENDROOT
BRANCH   2   6
HETATM    6  C   UNK N   1      20.814  17.106   5.207  0.00  0.00    -0.021 C 
HETATM    7  C   UNK N   1      21.144  15.820   5.217  0.00  0.00     0.003 C 
BRANCH   7   8
HETATM    8  C   UNK N   1      20.447  14.870   6.120  0.00  0.00     0.165 C 
BRANCH   8   9
HETATM    9  O   UNK N   1      19.072  14.914   5.925  0.00  0.00    -0.390 OA
HETATM   10  H   UNK N   1      18.525  15.518   6.451  0.00  0.00     0.210 HD
ENDBRANCH   8   9
BRANCH   8  11
HETATM   11  C   UNK N   1      20.748  15.359   7.514  0.00  0.00     0.211 C 
BRANCH  11  12
HETATM   12  O   UNK N   1      20.186  14.496   8.431  0.00  0.00    -0.348 OA
BRANCH  12  13
HETATM   13  C   UNK N   1      20.943  13.767   9.274  0.00  0.00     0.069 A 
HETATM   14  C   UNK N   1      22.319  13.638   9.055  0.00  0.00     0.052 A 
HETATM   15  C   UNK N   1      23.109  12.872   9.906  0.00  0.00     0.050 A 
HETATM   16  C   UNK N   1      22.515  12.229  11.002  0.00  0.00     0.016 A 
HETATM   17  C   UNK N   1      21.140  12.359  11.233  0.00  0.00     0.004 A 
HETATM   18  C   UNK N   1      20.354  13.126  10.366  0.00  0.00     0.037 A 
BRANCH  15  19
HETATM   19  C   UNK N   1      24.575  12.736   9.633  0.00  0.00     0.417 C 
HETATM   20  F   UNK N   1      25.230  13.942   9.836  0.00  0.00    -0.166 F 
HETATM   21  F   UNK N   1      24.763  12.347   8.320  0.00  0.00    -0.166 F 
HETATM   22  F   UNK N   1      25.118  11.789  10.478  0.00  0.00    -0.166 F 
ENDBRANCH  15  19
ENDBRANCH  12  13
ENDBRANCH  11  12
ENDBRANCH   8  11
ENDBRANCH   7   8
ENDBRANCH   2   6
BRANCH   1  23
HETATM   23  C   UNK N   1      23.633  18.609   4.742  0.00  0.00     0.034 C 
BRANCH  23  24
HETATM   24  C   UNK N   1      24.303  17.607   3.850  0.00  0.00    -0.030 C 
HETATM   25  C   UNK N   1      24.766  16.445   4.321  0.00  0.00    -0.031 C 
BRANCH  25  26
HETATM   26  C   UNK N   1      24.728  16.083   5.782  0.00  0.00     0.027 C 
BRANCH  26  27
HETATM   27  C   UNK N   1      26.115  15.823   6.361  0.00  0.00     0.013 C 
BRANCH  27  28
HETATM   28  C   UNK N   1      27.237  16.254   5.424  0.00  0.00     0.111 C 
BRANCH  28  29
HETATM   29  C   UNK N   1      27.922  17.507   5.840  0.00  0.00     0.259 C 
HETATM   30  O   UNK N   1      29.109  17.474   6.135  0.00  0.00    -0.265 OA
BRANCH  29  31
HETATM   31  O   UNK N   1      27.188  18.647   5.962  0.00  0.00    -0.317 OA
BRANCH  31  32
HETATM   32  C   UNK N   1      27.442  19.911   5.442  0.00  0.00     0.123 C 
HETATM   33  C   UNK N   1      26.617  21.052   6.023  0.00  0.00     0.040 C 
HETATM   34  C   UNK N   1      27.288  19.880   3.935  0.00  0.00     0.040 C 
ENDBRANCH  31  32
ENDBRANCH  29  31
ENDBRANCH  28  29
ENDBRANCH  27  28
ENDBRANCH  26  27
ENDBRANCH  25  26
ENDBRANCH  23  24
ENDBRANCH   1  23
BRANCH   4  35
HETATM   35  O   UNK N   1      19.258  17.753   2.717  0.00  0.00    -0.395 OA
HETATM   36  H   UNK N   1      19.107  17.558   1.779  0.00  0.00     0.210 HD
ENDBRANCH   4  35
BRANCH   3  37
HETATM   37  O   UNK N   1      22.731  20.939   2.887  0.00  0.00    -0.395 OA
HETATM   38  H   UNK N   1      22.185  21.735   2.975  0.00  0.00     0.210 HD
ENDBRANCH   3  37
TORSDOF 17
ENDMDL
MODEL 7
REMARK VINA RESULT:      -6.6     13.431     15.243
REMARK  17 active torsions:
REMARK  status: ('A' for Active; 'I' for Inactive)
REMARK    1  A    between atoms: C_12  and  O_4 
REMARK    2  A    between atoms: C_13  and  O_5 
REMARK    3  A    between atoms: C_19  and  O_6 
REMARK    4  A    between atoms: O_7  and  C_22 
REMARK    5  A    between atoms: O_7  and  C_25 
REMARK    6  A    between atoms: O_8  and  C_26 
REMARK    7  A    between atoms: O_8  and  C_29 
REMARK    8  A    between atoms: C_10  and  C_15 
REMARK    9  A    between atoms: C_11  and  C_16 
REMARK   10  A    between atoms: C_15  and  C_17 
REMARK   11  A    between atoms: C_18  and  C_19 
REMARK   12  A    between atoms: C_19  and  C_22 
REMARK   13  A    between atoms: C_20  and  C_21 
REMARK   14  A    between atoms: C_21  and  C_23 
REMARK   15  A    between atoms: C_23  and  C_24 
REMARK   16  A    between atoms: C_24  and  C_26 
REMARK   17  A    between atoms: C_30  and  C_35 
ROOT
HETATM    1  C   UNK N   1      20.948  16.150   3.094  0.00  0.00     0.028 C 
HETATM    2  C   UNK N   1      19.898  17.042   2.489  0.00  0.00     0.043 C 
HETATM    3  C   UNK N   1      20.538  14.824   2.478  0.00  0.00     0.125 C 
HETATM    4  C   UNK N   1      19.992  16.678   1.027  0.00  0.00     0.128 C 
HETATM    5  C   UNK N   1      20.157  15.164   1.038  0.00  0.00     0.064 C 
ENDROOT
BRANCH   2   6
HETATM    6  C   UNK N   1      20.006  18.509   2.698  0.00  0.00    -0.021 C 
HETATM    7  C   UNK N   1      21.139  19.087   2.322  0.00  0.00     0.003 C 
BRANCH   7   8
HETATM    8  C   UNK N   1      21.498  20.438   2.820  0.00  0.00     0.165 C 
BRANCH   8   9
HETATM    9  O   UNK N   1      21.095  21.423   1.928  0.00  0.00    -0.390 OA
HETATM   10  H   UNK N   1      20.160  21.674   1.871  0.00  0.00     0.210 HD
ENDBRANCH   8   9
BRANCH   8  11
HETATM   11  C   UNK N   1      23.004  20.444   2.891  0.00  0.00     0.211 C 
BRANCH  11  12
HETATM   12  O   UNK N   1      23.436  19.302   3.534  0.00  0.00    -0.348 OA
BRANCH  12  13
HETATM   13  C   UNK N   1      24.698  19.180   3.987  0.00  0.00     0.069 A 
HETATM   14  C   UNK N   1      25.199  20.077   4.935  0.00  0.00     0.052 A 
HETATM   15  C   UNK N   1      26.507  19.974   5.396  0.00  0.00     0.050 A 
HETATM   16  C   UNK N   1      27.329  18.949   4.907  0.00  0.00     0.016 A 
HETATM   17  C   UNK N   1      26.834  18.040   3.962  0.00  0.00     0.004 A 
HETATM   18  C   UNK N   1      25.518  18.158   3.501  0.00  0.00     0.037 A 
BRANCH  15  19
HETATM   19  C   UNK N   1      27.020  20.964   6.396  0.00  0.00     0.417 C 
HETATM   20  F   UNK N   1      28.270  21.437   6.027  0.00  0.00    -0.166 F 
HETATM   21  F   UNK N   1      27.127  20.354   7.632  0.00  0.00    -0.166 F 
HETATM   22  F   UNK N   1      26.149  22.032   6.481  0.00  0.00    -0.166 F 
ENDBRANCH  15  19
ENDBRANCH  12  13
ENDBRANCH  11  12
ENDBRANCH   8  11
ENDBRANCH   7   8
ENDBRANCH   2   6
BRANCH   1  23
HETATM   23  C   UNK N   1      21.010  16.118   4.622  0.00  0.00     0.034 C 
BRANCH  23  24
HETATM   24  C   UNK N   1      22.313  16.612   5.175  0.00  0.00    -0.030 C 
HETATM   25  C   UNK N   1      22.904  16.021   6.218  0.00  0.00    -0.031 C 
BRANCH  25  26
HETATM   26  C   UNK N   1      22.280  14.874   6.967  0.00  0.00     0.027 C 
BRANCH  26  27
HETATM   27  C   UNK N   1      21.501  15.328   8.198  0.00  0.00     0.013 C 
BRANCH  27  28
HETATM   28  C   UNK N   1      20.464  14.308   8.651  0.00  0.00     0.111 C 
BRANCH  28  29
HETATM   29  C   UNK N   1      20.885  13.502   9.829  0.00  0.00     0.259 C 
HETATM   30  O   UNK N   1      20.057  12.819  10.417  0.00  0.00    -0.265 OA
BRANCH  29  31
HETATM   31  O   UNK N   1      22.166  13.612  10.275  0.00  0.00    -0.317 OA
BRANCH  31  32
HETATM   32  C   UNK N   1      23.175  12.655  10.278  0.00  0.00     0.123 C 
HETATM   33  C   UNK N   1      23.127  11.629   9.153  0.00  0.00     0.040 C 
HETATM   34  C   UNK N   1      23.204  11.950  11.617  0.00  0.00     0.040 C 
ENDBRANCH  31  32
ENDBRANCH  29  31
ENDBRANCH  28  29
ENDBRANCH  27  28
ENDBRANCH  26  27
ENDBRANCH  25  26
ENDBRANCH  23  24
ENDBRANCH   1  23
BRANCH   4  35
HETATM   35  O   UNK N   1      18.844  17.061   0.333  0.00  0.00    -0.395 OA
HETATM   36  H   UNK N   1      18.032  17.525   0.592  0.00  0.00     0.210 HD
ENDBRANCH   4  35
BRANCH   3  37
HETATM   37  O   UNK N   1      21.580  13.900   2.516  0.00  0.00    -0.395 OA
HETATM   38  H   UNK N   1      21.707  13.234   3.210  0.00  0.00     0.210 HD
ENDBRANCH   3  37
TORSDOF 17
ENDMDL
MODEL 8
REMARK VINA RESULT:      -6.6      2.945      6.162
REMARK  17 active torsions:
REMARK  status: ('A' for Active; 'I' for Inactive)
REMARK    1  A    between atoms: C_12  and  O_4 
REMARK    2  A    between atoms: C_13  and  O_5 
REMARK    3  A    between atoms: C_19  and  O_6 
REMARK    4  A    between atoms: O_7  and  C_22 
REMARK    5  A    between atoms: O_7  and  C_25 
REMARK    6  A    between atoms: O_8  and  C_26 
REMARK    7  A    between atoms: O_8  and  C_29 
REMARK    8  A    between atoms: C_10  and  C_15 
REMARK    9  A    between atoms: C_11  and  C_16 
REMARK   10  A    between atoms: C_15  and  C_17 
REMARK   11  A    between atoms: C_18  and  C_19 
REMARK   12  A    between atoms: C_19  and  C_22 
REMARK   13  A    between atoms: C_20  and  C_21 
REMARK   14  A    between atoms: C_21  and  C_23 
REMARK   15  A    between atoms: C_23  and  C_24 
REMARK   16  A    between atoms: C_24  and  C_26 
REMARK   17  A    between atoms: C_30  and  C_35 
ROOT
HETATM    1  C   UNK N   1      26.202  27.740  -6.170  0.00  0.00     0.028 C 
HETATM    2  C   UNK N   1      26.817  26.680  -7.043  0.00  0.00     0.043 C 
HETATM    3  C   UNK N   1      27.463  28.429  -5.682  0.00  0.00     0.125 C 
HETATM    4  C   UNK N   1      27.765  27.493  -7.890  0.00  0.00     0.128 C 
HETATM    5  C   UNK N   1      28.377  28.481  -6.906  0.00  0.00     0.064 C 
ENDROOT
BRANCH   2   6
HETATM    6  C   UNK N   1      25.920  25.837  -7.875  0.00  0.00    -0.021 C 
HETATM    7  C   UNK N   1      25.989  24.525  -7.691  0.00  0.00     0.003 C 
BRANCH   7   8
HETATM    8  C   UNK N   1      25.437  23.592  -8.705  0.00  0.00     0.165 C 
BRANCH   8   9
HETATM    9  O   UNK N   1      24.344  22.897  -8.202  0.00  0.00    -0.390 OA
HETATM   10  H   UNK N   1      23.444  23.211  -8.382  0.00  0.00     0.210 HD
ENDBRANCH   8   9
BRANCH   8  11
HETATM   11  C   UNK N   1      26.545  22.607  -8.977  0.00  0.00     0.211 C 
BRANCH  11  12
HETATM   12  O   UNK N   1      27.542  22.770  -8.038  0.00  0.00    -0.348 OA
BRANCH  12  13
HETATM   13  C   UNK N   1      28.343  21.751  -7.672  0.00  0.00     0.069 A 
HETATM   14  C   UNK N   1      29.154  21.860  -6.538  0.00  0.00     0.052 A 
HETATM   15  C   UNK N   1      29.999  20.822  -6.161  0.00  0.00     0.050 A 
HETATM   16  C   UNK N   1      30.031  19.648  -6.927  0.00  0.00     0.016 A 
HETATM   17  C   UNK N   1      29.217  19.527  -8.061  0.00  0.00     0.004 A 
HETATM   18  C   UNK N   1      28.375  20.580  -8.435  0.00  0.00     0.037 A 
BRANCH  15  19
HETATM   19  C   UNK N   1      30.870  20.978  -4.953  0.00  0.00     0.417 C 
HETATM   20  F   UNK N   1      31.828  19.976  -4.900  0.00  0.00    -0.166 F 
HETATM   21  F   UNK N   1      30.092  20.906  -3.813  0.00  0.00    -0.166 F 
HETATM   22  F   UNK N   1      31.511  22.201  -4.998  0.00  0.00    -0.166 F 
ENDBRANCH  15  19
ENDBRANCH  12  13
ENDBRANCH  11  12
ENDBRANCH   8  11
ENDBRANCH   7   8
ENDBRANCH   2   6
BRANCH   1  23
HETATM   23  C   UNK N   1      25.301  27.245  -5.036  0.00  0.00     0.034 C 
BRANCH  23  24
HETATM   24  C   UNK N   1      25.992  27.197  -3.706  0.00  0.00    -0.030 C 
HETATM   25  C   UNK N   1      26.547  26.074  -3.241  0.00  0.00    -0.031 C 
BRANCH  25  26
HETATM   26  C   UNK N   1      26.456  24.758  -3.967  0.00  0.00     0.027 C 
BRANCH  26  27
HETATM   27  C   UNK N   1      27.820  24.106  -4.178  0.00  0.00     0.013 C 
BRANCH  27  28
HETATM   28  C   UNK N   1      28.951  25.122  -4.278  0.00  0.00     0.111 C 
BRANCH  28  29
HETATM   29  C   UNK N   1      30.051  24.896  -3.302  0.00  0.00     0.259 C 
HETATM   30  O   UNK N   1      30.107  23.836  -2.693  0.00  0.00    -0.265 OA
BRANCH  29  31
HETATM   31  O   UNK N   1      30.922  25.911  -3.049  0.00  0.00    -0.317 OA
BRANCH  31  32
HETATM   32  C   UNK N   1      31.052  27.134  -3.698  0.00  0.00     0.123 C 
HETATM   33  C   UNK N   1      32.177  27.231  -4.721  0.00  0.00     0.040 C 
HETATM   34  C   UNK N   1      31.190  28.241  -2.675  0.00  0.00     0.040 C 
ENDBRANCH  31  32
ENDBRANCH  29  31
ENDBRANCH  28  29
ENDBRANCH  27  28
ENDBRANCH  26  27
ENDBRANCH  25  26
ENDBRANCH  23  24
ENDBRANCH   1  23
BRANCH   4  35
HETATM   35  O   UNK N   1      28.741  26.687  -8.475  0.00  0.00    -0.395 OA
HETATM   36  H   UNK N   1      29.299  26.780  -9.264  0.00  0.00     0.210 HD
ENDBRANCH   4  35
BRANCH   3  37
HETATM   37  O   UNK N   1      27.193  29.709  -5.203  0.00  0.00    -0.395 OA
HETATM   38  H   UNK N   1      26.901  29.915  -4.302  0.00  0.00     0.210 HD
ENDBRANCH   3  37
TORSDOF 17
ENDMDL
MODEL 9
REMARK VINA RESULT:      -6.5     14.473     17.162
REMARK  17 active torsions:
REMARK  status: ('A' for Active; 'I' for Inactive)
REMARK    1  A    between atoms: C_12  and  O_4 
REMARK    2  A    between atoms: C_13  and  O_5 
REMARK    3  A    between atoms: C_19  and  O_6 
REMARK    4  A    between atoms: O_7  and  C_22 
REMARK    5  A    between atoms: O_7  and  C_25 
REMARK    6  A    between atoms: O_8  and  C_26 
REMARK    7  A    between atoms: O_8  and  C_29 
REMARK    8  A    between atoms: C_10  and  C_15 
REMARK    9  A    between atoms: C_11  and  C_16 
REMARK   10  A    between atoms: C_15  and  C_17 
REMARK   11  A    between atoms: C_18  and  C_19 
REMARK   12  A    between atoms: C_19  and  C_22 
REMARK   13  A    between atoms: C_20  and  C_21 
REMARK   14  A    between atoms: C_21  and  C_23 
REMARK   15  A    between atoms: C_23  and  C_24 
REMARK   16  A    between atoms: C_24  and  C_26 
REMARK   17  A    between atoms: C_30  and  C_35 
ROOT
HETATM    1  C   UNK N   1      20.903  17.165   2.208  0.00  0.00     0.028 C 
HETATM    2  C   UNK N   1      20.748  17.824   3.551  0.00  0.00     0.043 C 
HETATM    3  C   UNK N   1      20.081  18.120   1.362  0.00  0.00     0.125 C 
HETATM    4  C   UNK N   1      21.106  19.256   3.233  0.00  0.00     0.128 C 
HETATM    5  C   UNK N   1      20.430  19.510   1.892  0.00  0.00     0.064 C 
ENDROOT
BRANCH   2   6
HETATM    6  C   UNK N   1      21.540  17.301   4.694  0.00  0.00    -0.021 C 
HETATM    7  C   UNK N   1      20.922  16.468   5.521  0.00  0.00     0.003 C 
BRANCH   7   8
HETATM    8  C   UNK N   1      21.477  16.194   6.870  0.00  0.00     0.165 C 
BRANCH   8   9
HETATM    9  O   UNK N   1      22.813  15.821   6.793  0.00  0.00    -0.390 OA
HETATM   10  H   UNK N   1      23.296  15.910   5.956  0.00  0.00     0.210 HD
ENDBRANCH   8   9
BRANCH   8  11
HETATM   11  C   UNK N   1      20.684  15.023   7.392  0.00  0.00     0.211 C 
BRANCH  11  12
HETATM   12  O   UNK N   1      20.609  15.099   8.767  0.00  0.00    -0.348 OA
BRANCH  12  13
HETATM   13  C   UNK N   1      21.063  14.106   9.556  0.00  0.00     0.069 A 
HETATM   14  C   UNK N   1      22.420  13.765   9.553  0.00  0.00     0.052 A 
HETATM   15  C   UNK N   1      22.897  12.729  10.348  0.00  0.00     0.050 A 
HETATM   16  C   UNK N   1      22.005  12.024  11.168  0.00  0.00     0.016 A 
HETATM   17  C   UNK N   1      20.646  12.363  11.183  0.00  0.00     0.004 A 
HETATM   18  C   UNK N   1      20.175  13.403  10.374  0.00  0.00     0.037 A 
BRANCH  15  19
HETATM   19  C   UNK N   1      24.352  12.374  10.306  0.00  0.00     0.417 C 
HETATM   20  F   UNK N   1      24.599  11.408   9.342  0.00  0.00    -0.166 F 
HETATM   21  F   UNK N   1      24.739  11.879  11.537  0.00  0.00    -0.166 F 
HETATM   22  F   UNK N   1      25.096  13.499  10.007  0.00  0.00    -0.166 F 
ENDBRANCH  15  19
ENDBRANCH  12  13
ENDBRANCH  11  12
ENDBRANCH   8  11
ENDBRANCH   7   8
ENDBRANCH   2   6
BRANCH   1  23
HETATM   23  C   UNK N   1      20.438  15.710   2.109  0.00  0.00     0.034 C 
BRANCH  23  24
HETATM   24  C   UNK N   1      21.125  14.938   1.024  0.00  0.00    -0.030 C 
HETATM   25  C   UNK N   1      22.235  14.231   1.258  0.00  0.00    -0.031 C 
BRANCH  25  26
HETATM   26  C   UNK N   1      22.925  14.216   2.596  0.00  0.00     0.027 C 
BRANCH  26  27
HETATM   27  C   UNK N   1      24.290  14.897   2.563  0.00  0.00     0.013 C 
BRANCH  27  28
HETATM   28  C   UNK N   1      24.483  15.889   3.704  0.00  0.00     0.111 C 
BRANCH  28  29
HETATM   29  C   UNK N   1      25.474  16.959   3.411  0.00  0.00     0.259 C 
HETATM   30  O   UNK N   1      26.548  16.662   2.905  0.00  0.00    -0.265 OA
BRANCH  29  31
HETATM   31  O   UNK N   1      25.193  18.235   3.792  0.00  0.00    -0.317 OA
BRANCH  31  32
HETATM   32  C   UNK N   1      25.592  19.431   3.205  0.00  0.00     0.123 C 
HETATM   33  C   UNK N   1      26.830  20.089   3.802  0.00  0.00     0.040 C 
HETATM   34  C   UNK N   1      24.437  20.410   3.208  0.00  0.00     0.040 C 
ENDBRANCH  31  32
ENDBRANCH  29  31
ENDBRANCH  28  29
ENDBRANCH  27  28
ENDBRANCH  26  27
ENDBRANCH  25  26
ENDBRANCH  23  24
ENDBRANCH   1  23
BRANCH   4  35
HETATM   35  O   UNK N   1      20.633  20.127   4.215  0.00  0.00    -0.395 OA
HETATM   36  H   UNK N   1      19.744  20.387   4.503  0.00  0.00     0.210 HD
ENDBRANCH   4  35
BRANCH   3  37
HETATM   37  O   UNK N   1      20.397  18.006   0.009  0.00  0.00    -0.395 OA
HETATM   38  H   UNK N   1      20.045  18.575  -0.693  0.00  0.00     0.210 HD
ENDBRANCH   3  37
TORSDOF 17
ENDMDL
