MODEL 1
REMARK VINA RESULT:      -8.5      0.000      0.000
REMARK  5 active torsions:
REMARK  status: ('A' for Active; 'I' for Inactive)
REMARK    1  A    between atoms: C_17  and  O_4 
REMARK    2  A    between atoms: O_6  and  C_31 
REMARK    3  A    between atoms: O_6  and  C_35 
REMARK    4  A    between atoms: C_11  and  C_22 
REMARK    5  A    between atoms: C_22  and  C_31 
ROOT
HETATM    1  F   UNK N   1      32.629  15.057   8.906  0.00  0.00    -0.238 F 
HETATM    2  O   UNK N   1      34.439  12.183  13.251  0.00  0.00    -0.333 OA
HETATM    3  O   UNK N   1      36.010  13.636  14.085  0.00  0.00    -0.346 OA
HETATM    4  O   UNK N   1      32.996  17.192   3.716  0.00  0.00    -0.289 OA
HETATM    5  C   UNK N   1      35.501  13.250  10.706  0.00  0.00     0.004 C 
HETATM    6  C   UNK N   1      34.962  14.683  10.831  0.00  0.00     0.007 C 
HETATM    7  C   UNK N   1      35.236  12.557  12.140  0.00  0.00     0.160 C 
HETATM    8  C   UNK N   1      34.958  15.424   9.488  0.00  0.00     0.035 C 
HETATM    9  C   UNK N   1      35.356  13.938  12.908  0.00  0.00     0.168 C 
HETATM   10  C   UNK N   1      33.919  14.705   8.528  0.00  0.00     0.147 C 
HETATM   11  C   UNK N   1      35.776  15.120  12.040  0.00  0.00     0.041 C 
HETATM   12  C   UNK N   1      35.149  12.597   9.342  0.00  0.00     0.048 C 
HETATM   13  C   UNK N   1      33.921  13.158   8.715  0.00  0.00     0.160 C 
HETATM   14  C   UNK N   1      34.150  15.238   7.087  0.00  0.00     0.036 C 
HETATM   15  C   UNK N   1      34.533  16.889   9.604  0.00  0.00     0.013 C 
HETATM   16  C   UNK N   1      37.044  13.250  10.539  0.00  0.00     0.019 C 
HETATM   17  C   UNK N   1      35.275  12.467  14.378  0.00  0.00     0.166 C 
HETATM   18  C   UNK N   1      34.534  17.598   8.239  0.00  0.00     0.036 C 
HETATM   19  C   UNK N   1      34.003  16.767   7.089  0.00  0.00    -0.061 C 
HETATM   20  C   UNK N   1      34.449  12.675  15.626  0.00  0.00     0.068 C 
HETATM   21  C   UNK N   1      36.182  11.304  14.736  0.00  0.00     0.068 C 
HETATM   22  C   UNK N   1      35.563  14.905   6.614  0.00  0.00     0.028 C 
HETATM   23  C   UNK N   1      33.217  14.590   6.073  0.00  0.00    -0.006 C 
HETATM   24  C   UNK N   1      35.413  12.409  16.767  0.00  0.00     0.006 C 
HETATM   25  C   UNK N   1      36.473  11.463  16.218  0.00  0.00     0.006 C 
HETATM   26  C   UNK N   1      33.641  17.406   5.962  0.00  0.00     0.058 C 
HETATM   27  C   UNK N   1      32.842  15.220   4.956  0.00  0.00     0.052 C 
HETATM   28  C   UNK N   1      33.175  16.640   4.789  0.00  0.00     0.172 C 
ENDROOT
BRANCH   7  29
HETATM   29  C   UNK N   1      35.018  11.143  11.575  0.00  0.00     0.188 C 
HETATM   30  O   UNK N   1      35.995  10.469  11.253  0.00  0.00    -0.292 OA
BRANCH  29  31
HETATM   31  C   UNK N   1      33.684  10.494  11.544  0.00  0.00     0.260 C 
BRANCH  31  32
HETATM   32  O   UNK N   1      33.571   9.719  10.422  0.00  0.00    -0.314 OA
BRANCH  32  33
HETATM   33  C   UNK N   1      32.382   9.504   9.816  0.00  0.00     0.255 C 
HETATM   34  O   UNK N   1      31.857  10.413   9.197  0.00  0.00    -0.266 OA
HETATM   35  C   UNK N   1      31.687   8.179   9.900  0.00  0.00     0.126 C 
ENDBRANCH  32  33
ENDBRANCH  31  32
ENDBRANCH  29  31
ENDBRANCH   7  29
BRANCH  13  36
HETATM   36  O   UNK N   1      33.552  12.413   7.596  0.00  0.00    -0.392 OA
HETATM   37  H   UNK N   1      34.001  12.523   6.743  0.00  0.00     0.210 HD
ENDBRANCH  13  36
TORSDOF 5
ENDMDL
MODEL 2
REMARK VINA RESULT:      -8.5      2.411      8.488
REMARK  5 active torsions:
REMARK  status: ('A' for Active; 'I' for Inactive)
REMARK    1  A    between atoms: C_17  and  O_4 
REMARK    2  A    between atoms: O_6  and  C_31 
REMARK    3  A    between atoms: O_6  and  C_35 
REMARK    4  A    between atoms: C_11  and  C_22 
REMARK    5  A    between atoms: C_22  and  C_31 
ROOT
HETATM    1  F   UNK N   1      33.891  12.005  13.841  0.00  0.00    -0.238 F 
HETATM    2  O   UNK N   1      34.405  14.505   8.952  0.00  0.00    -0.333 OA
HETATM    3  O   UNK N   1      35.035  12.728   7.641  0.00  0.00    -0.346 OA
HETATM    4  O   UNK N   1      35.816   9.587  18.539  0.00  0.00    -0.289 OA
HETATM    5  C   UNK N   1      36.110  13.063  10.890  0.00  0.00     0.004 C 
HETATM    6  C   UNK N   1      35.210  11.836  11.099  0.00  0.00     0.007 C 
HETATM    7  C   UNK N   1      35.464  13.874   9.654  0.00  0.00     0.160 C 
HETATM    8  C   UNK N   1      35.572  11.056  12.369  0.00  0.00     0.035 C 
HETATM    9  C   UNK N   1      34.880  12.553   9.001  0.00  0.00     0.168 C 
HETATM   10  C   UNK N   1      35.262  11.978  13.622  0.00  0.00     0.147 C 
HETATM   11  C   UNK N   1      35.294  11.258   9.694  0.00  0.00     0.041 C 
HETATM   12  C   UNK N   1      36.549  13.716  12.229  0.00  0.00     0.048 C 
HETATM   13  C   UNK N   1      35.597  13.474  13.347  0.00  0.00     0.160 C 
HETATM   14  C   UNK N   1      35.925  11.329  14.870  0.00  0.00     0.036 C 
HETATM   15  C   UNK N   1      34.766   9.767  12.540  0.00  0.00     0.013 C 
HETATM   16  C   UNK N   1      37.520  12.639  10.399  0.00  0.00     0.019 C 
HETATM   17  C   UNK N   1      34.584  14.065   7.602  0.00  0.00     0.166 C 
HETATM   18  C   UNK N   1      35.150   9.015  13.826  0.00  0.00     0.036 C 
HETATM   19  C   UNK N   1      35.391   9.898  15.033  0.00  0.00    -0.061 C 
HETATM   20  C   UNK N   1      33.289  14.151   6.828  0.00  0.00     0.068 C 
HETATM   21  C   UNK N   1      35.531  14.957   6.820  0.00  0.00     0.068 C 
HETATM   22  C   UNK N   1      37.439  11.245  14.687  0.00  0.00     0.028 C 
HETATM   23  C   UNK N   1      35.711  12.151  16.133  0.00  0.00    -0.006 C 
HETATM   24  C   UNK N   1      33.719  14.206   5.374  0.00  0.00     0.006 C 
HETATM   25  C   UNK N   1      35.120  14.802   5.366  0.00  0.00     0.006 C 
HETATM   26  C   UNK N   1      35.378   9.323  16.249  0.00  0.00     0.058 C 
HETATM   27  C   UNK N   1      35.686  11.588  17.345  0.00  0.00     0.052 C 
HETATM   28  C   UNK N   1      35.669  10.125  17.455  0.00  0.00     0.172 C 
ENDROOT
BRANCH   7  29
HETATM   29  C   UNK N   1      35.886  15.263  10.159  0.00  0.00     0.188 C 
HETATM   30  O   UNK N   1      37.081  15.549  10.201  0.00  0.00    -0.292 OA
BRANCH  29  31
HETATM   31  C   UNK N   1      34.904  16.336  10.457  0.00  0.00     0.260 C 
BRANCH  31  32
HETATM   32  O   UNK N   1      35.351  17.527   9.954  0.00  0.00    -0.314 OA
BRANCH  32  33
HETATM   33  C   UNK N   1      34.754  18.130   8.902  0.00  0.00     0.255 C 
HETATM   34  O   UNK N   1      35.296  19.090   8.381  0.00  0.00    -0.266 OA
HETATM   35  C   UNK N   1      33.435  17.657   8.371  0.00  0.00     0.126 C 
ENDBRANCH  32  33
ENDBRANCH  31  32
ENDBRANCH  29  31
ENDBRANCH   7  29
BRANCH  13  36
HETATM   36  O   UNK N   1      35.942  14.232  14.464  0.00  0.00    -0.392 OA
HETATM   37  H   UNK N   1      36.869  14.383  14.707  0.00  0.00     0.210 HD
ENDBRANCH  13  36
TORSDOF 5
ENDMDL
MODEL 3
REMARK VINA RESULT:      -7.7      2.800      5.324
REMARK  5 active torsions:
REMARK  status: ('A' for Active; 'I' for Inactive)
REMARK    1  A    between atoms: C_17  and  O_4 
REMARK    2  A    between atoms: O_6  and  C_31 
REMARK    3  A    between atoms: O_6  and  C_35 
REMARK    4  A    between atoms: C_11  and  C_22 
REMARK    5  A    between atoms: C_22  and  C_31 
ROOT
HETATM    1  F   UNK N   1      32.588  17.781   7.349  0.00  0.00    -0.238 F 
HETATM    2  O   UNK N   1      36.364  14.262   9.290  0.00  0.00    -0.333 OA
HETATM    3  O   UNK N   1      37.069  13.288   7.333  0.00  0.00    -0.346 OA
HETATM    4  O   UNK N   1      27.593  19.188   5.182  0.00  0.00    -0.289 OA
HETATM    5  C   UNK N   1      33.785  14.166   7.848  0.00  0.00     0.004 C 
HETATM    6  C   UNK N   1      34.105  15.204   6.763  0.00  0.00     0.007 C 
HETATM    7  C   UNK N   1      35.180  13.883   8.609  0.00  0.00     0.160 C 
HETATM    8  C   UNK N   1      32.843  15.733   6.071  0.00  0.00     0.035 C 
HETATM    9  C   UNK N   1      36.032  14.198   7.310  0.00  0.00     0.168 C 
HETATM   10  C   UNK N   1      31.994  16.543   7.139  0.00  0.00     0.147 C 
HETATM   11  C   UNK N   1      35.210  14.442   6.047  0.00  0.00     0.041 C 
HETATM   12  C   UNK N   1      32.440  14.452   8.570  0.00  0.00     0.048 C 
HETATM   13  C   UNK N   1      32.051  15.889   8.552  0.00  0.00     0.160 C 
HETATM   14  C   UNK N   1      30.582  16.794   6.539  0.00  0.00     0.036 C 
HETATM   15  C   UNK N   1      33.140  16.683   4.909  0.00  0.00     0.013 C 
HETATM   16  C   UNK N   1      33.389  12.805   7.215  0.00  0.00     0.019 C 
HETATM   17  C   UNK N   1      37.372  13.431   8.705  0.00  0.00     0.166 C 
HETATM   18  C   UNK N   1      31.852  17.199   4.243  0.00  0.00     0.036 C 
HETATM   19  C   UNK N   1      30.731  17.539   5.204  0.00  0.00    -0.061 C 
HETATM   20  C   UNK N   1      38.743  14.047   8.869  0.00  0.00     0.068 C 
HETATM   21  C   UNK N   1      37.495  12.087   9.399  0.00  0.00     0.068 C 
HETATM   22  C   UNK N   1      29.878  15.468   6.258  0.00  0.00     0.028 C 
HETATM   23  C   UNK N   1      29.670  17.546   7.497  0.00  0.00    -0.006 C 
HETATM   24  C   UNK N   1      39.702  12.878   8.733  0.00  0.00     0.006 C 
HETATM   25  C   UNK N   1      38.925  11.638   9.155  0.00  0.00     0.006 C 
HETATM   26  C   UNK N   1      29.727  18.313   4.753  0.00  0.00     0.058 C 
HETATM   27  C   UNK N   1      28.677  18.326   7.061  0.00  0.00     0.052 C 
HETATM   28  C   UNK N   1      28.578  18.624   5.628  0.00  0.00     0.172 C 
ENDROOT
BRANCH   7  29
HETATM   29  C   UNK N   1      34.541  13.608   9.980  0.00  0.00     0.188 C 
HETATM   30  O   UNK N   1      34.180  12.465  10.255  0.00  0.00    -0.292 OA
BRANCH  29  31
HETATM   31  C   UNK N   1      34.480  14.634  11.050  0.00  0.00     0.260 C 
BRANCH  31  32
HETATM   32  O   UNK N   1      34.639  14.039  12.273  0.00  0.00    -0.314 OA
BRANCH  32  33
HETATM   33  C   UNK N   1      35.827  14.035  12.918  0.00  0.00     0.255 C 
HETATM   34  O   UNK N   1      36.284  15.088  13.328  0.00  0.00    -0.266 OA
HETATM   35  C   UNK N   1      36.601  12.769  13.128  0.00  0.00     0.126 C 
ENDBRANCH  32  33
ENDBRANCH  31  32
ENDBRANCH  29  31
ENDBRANCH   7  29
BRANCH  13  36
HETATM   36  O   UNK N   1      30.943  16.113   9.367  0.00  0.00    -0.392 OA
HETATM   37  H   UNK N   1      30.539  16.991   9.444  0.00  0.00     0.210 HD
ENDBRANCH  13  36
TORSDOF 5
ENDMDL
MODEL 4
REMARK VINA RESULT:      -7.7      7.327     11.405
REMARK  5 active torsions:
REMARK  status: ('A' for Active; 'I' for Inactive)
REMARK    1  A    between atoms: C_17  and  O_4 
REMARK    2  A    between atoms: O_6  and  C_31 
REMARK    3  A    between atoms: O_6  and  C_35 
REMARK    4  A    between atoms: C_11  and  C_22 
REMARK    5  A    between atoms: C_22  and  C_31 
ROOT
HETATM    1  F   UNK N   1      29.089  18.316   5.306  0.00  0.00    -0.238 F 
HETATM    2  O   UNK N   1      24.064  16.490   3.956  0.00  0.00    -0.333 OA
HETATM    3  O   UNK N   1      23.469  15.430   5.905  0.00  0.00    -0.346 OA
HETATM    4  O   UNK N   1      34.587  17.760   6.347  0.00  0.00    -0.289 OA
HETATM    5  C   UNK N   1      26.694  15.372   4.714  0.00  0.00     0.004 C 
HETATM    6  C   UNK N   1      26.950  16.244   5.952  0.00  0.00     0.007 C 
HETATM    7  C   UNK N   1      25.164  15.659   4.286  0.00  0.00     0.160 C 
HETATM    8  C   UNK N   1      28.424  16.240   6.374  0.00  0.00     0.035 C 
HETATM    9  C   UNK N   1      24.731  15.971   5.778  0.00  0.00     0.168 C 
HETATM   10  C   UNK N   1      29.270  16.941   5.229  0.00  0.00     0.147 C 
HETATM   11  C   UNK N   1      25.816  15.727   6.824  0.00  0.00     0.041 C 
HETATM   12  C   UNK N   1      27.892  15.373   3.725  0.00  0.00     0.048 C 
HETATM   13  C   UNK N   1      28.728  16.601   3.808  0.00  0.00     0.160 C 
HETATM   14  C   UNK N   1      30.773  16.648   5.495  0.00  0.00     0.036 C 
HETATM   15  C   UNK N   1      28.688  17.007   7.670  0.00  0.00     0.013 C 
HETATM   16  C   UNK N   1      26.733  13.864   5.079  0.00  0.00     0.019 C 
HETATM   17  C   UNK N   1      22.971  15.904   4.671  0.00  0.00     0.166 C 
HETATM   18  C   UNK N   1      30.176  16.988   8.059  0.00  0.00     0.036 C 
HETATM   19  C   UNK N   1      31.139  17.148   6.900  0.00  0.00    -0.061 C 
HETATM   20  C   UNK N   1      21.875  16.917   4.911  0.00  0.00     0.068 C 
HETATM   21  C   UNK N   1      22.280  14.806   3.883  0.00  0.00     0.068 C 
HETATM   22  C   UNK N   1      31.041  15.145   5.449  0.00  0.00     0.028 C 
HETATM   23  C   UNK N   1      31.679  17.256   4.434  0.00  0.00    -0.006 C 
HETATM   24  C   UNK N   1      20.630  16.081   5.145  0.00  0.00     0.006 C 
HETATM   25  C   UNK N   1      20.858  14.764   4.413  0.00  0.00     0.006 C 
HETATM   26  C   UNK N   1      32.409  17.494   7.178  0.00  0.00     0.058 C 
HETATM   27  C   UNK N   1      32.938  17.614   4.701  0.00  0.00     0.052 C 
HETATM   28  C   UNK N   1      33.405  17.603   6.092  0.00  0.00     0.172 C 
ENDROOT
BRANCH   7  29
HETATM   29  C   UNK N   1      25.399  15.461   2.779  0.00  0.00     0.188 C 
HETATM   30  O   UNK N   1      25.872  16.383   2.119  0.00  0.00    -0.292 OA
BRANCH  29  31
HETATM   31  C   UNK N   1      25.221  14.147   2.111  0.00  0.00     0.260 C 
BRANCH  31  32
HETATM   32  O   UNK N   1      24.747  14.332   0.841  0.00  0.00    -0.314 OA
BRANCH  32  33
HETATM   33  C   UNK N   1      23.563  13.821   0.436  0.00  0.00     0.255 C 
HETATM   34  O   UNK N   1      22.555  14.497   0.548  0.00  0.00    -0.266 OA
HETATM   35  C   UNK N   1      23.459  12.439  -0.132  0.00  0.00     0.126 C 
ENDBRANCH  32  33
ENDBRANCH  31  32
ENDBRANCH  29  31
ENDBRANCH   7  29
BRANCH  13  36
HETATM   36  O   UNK N   1      29.668  16.630   2.779  0.00  0.00    -0.392 OA
HETATM   37  H   UNK N   1      29.437  16.372   1.874  0.00  0.00     0.210 HD
ENDBRANCH  13  36
TORSDOF 5
ENDMDL
MODEL 5
REMARK VINA RESULT:      -7.5      5.639      9.410
REMARK  5 active torsions:
REMARK  status: ('A' for Active; 'I' for Inactive)
REMARK    1  A    between atoms: C_17  and  O_4 
REMARK    2  A    between atoms: O_6  and  C_31 
REMARK    3  A    between atoms: O_6  and  C_35 
REMARK    4  A    between atoms: C_11  and  C_22 
REMARK    5  A    between atoms: C_22  and  C_31 
ROOT
HETATM    1  F   UNK N   1      27.045  13.962   4.636  0.00  0.00    -0.238 F 
HETATM    2  O   UNK N   1      31.965  15.991   6.081  0.00  0.00    -0.333 OA
HETATM    3  O   UNK N   1      31.357  17.347   7.833  0.00  0.00    -0.346 OA
HETATM    4  O   UNK N   1      21.935  14.207   2.301  0.00  0.00    -0.289 OA
HETATM    5  C   UNK N   1      29.381  16.984   5.042  0.00  0.00     0.004 C 
HETATM    6  C   UNK N   1      28.458  16.269   6.040  0.00  0.00     0.007 C 
HETATM    7  C   UNK N   1      30.880  16.766   5.600  0.00  0.00     0.160 C 
HETATM    8  C   UNK N   1      27.005  16.210   5.552  0.00  0.00     0.035 C 
HETATM    9  C   UNK N   1      30.385  16.694   7.104  0.00  0.00     0.168 C 
HETATM   10  C   UNK N   1      26.953  15.296   4.256  0.00  0.00     0.147 C 
HETATM   11  C   UNK N   1      28.901  16.988   7.305  0.00  0.00     0.041 C 
HETATM   12  C   UNK N   1      28.957  16.754   3.566  0.00  0.00     0.048 C 
HETATM   13  C   UNK N   1      28.210  15.484   3.355  0.00  0.00     0.160 C 
HETATM   14  C   UNK N   1      25.568  15.499   3.581  0.00  0.00     0.036 C 
HETATM   15  C   UNK N   1      26.044  15.605   6.576  0.00  0.00     0.013 C 
HETATM   16  C   UNK N   1      29.156  18.519   5.080  0.00  0.00     0.019 C 
HETATM   17  C   UNK N   1      32.463  16.754   7.185  0.00  0.00     0.166 C 
HETATM   18  C   UNK N   1      24.599  15.556   6.051  0.00  0.00     0.036 C 
HETATM   19  C   UNK N   1      24.463  15.164   4.594  0.00  0.00    -0.061 C 
HETATM   20  C   UNK N   1      33.218  15.874   8.155  0.00  0.00     0.068 C 
HETATM   21  C   UNK N   1      33.490  17.788   6.762  0.00  0.00     0.068 C 
HETATM   22  C   UNK N   1      25.389  16.956   3.158  0.00  0.00     0.028 C 
HETATM   23  C   UNK N   1      25.420  14.682   2.305  0.00  0.00    -0.006 C 
HETATM   24  C   UNK N   1      34.118  16.831   8.914  0.00  0.00     0.006 C 
HETATM   25  C   UNK N   1      34.360  18.015   7.986  0.00  0.00     0.006 C 
HETATM   26  C   UNK N   1      23.257  14.757   4.159  0.00  0.00     0.058 C 
HETATM   27  C   UNK N   1      24.228  14.263   1.870  0.00  0.00     0.052 C 
HETATM   28  C   UNK N   1      23.054  14.423   2.735  0.00  0.00     0.172 C 
ENDROOT
BRANCH   7  29
HETATM   29  C   UNK N   1      31.545  16.741   4.214  0.00  0.00     0.188 C 
HETATM   30  O   UNK N   1      31.980  17.788   3.738  0.00  0.00    -0.292 OA
BRANCH  29  31
HETATM   31  C   UNK N   1      31.825  15.478   3.487  0.00  0.00     0.260 C 
BRANCH  31  32
HETATM   32  O   UNK N   1      32.914  15.641   2.675  0.00  0.00    -0.314 OA
BRANCH  32  33
HETATM   33  C   UNK N   1      33.957  14.782   2.695  0.00  0.00     0.255 C 
HETATM   34  O   UNK N   1      34.414  14.378   1.640  0.00  0.00    -0.266 OA
HETATM   35  C   UNK N   1      34.557  14.305   3.983  0.00  0.00     0.126 C 
ENDBRANCH  32  33
ENDBRANCH  31  32
ENDBRANCH  29  31
ENDBRANCH   7  29
BRANCH  13  36
HETATM   36  O   UNK N   1      28.020  15.241   1.995  0.00  0.00    -0.392 OA
HETATM   37  H   UNK N   1      28.581  15.659   1.323  0.00  0.00     0.210 HD
ENDBRANCH  13  36
TORSDOF 5
ENDMDL
MODEL 6
REMARK VINA RESULT:      -7.4      4.393      6.941
REMARK  5 active torsions:
REMARK  status: ('A' for Active; 'I' for Inactive)
REMARK    1  A    between atoms: C_17  and  O_4 
REMARK    2  A    between atoms: O_6  and  C_31 
REMARK    3  A    between atoms: O_6  and  C_35 
REMARK    4  A    between atoms: C_11  and  C_22 
REMARK    5  A    between atoms: C_22  and  C_31 
ROOT
HETATM    1  F   UNK N   1      27.799  16.284   7.107  0.00  0.00    -0.238 F 
HETATM    2  O   UNK N   1      32.829  14.633   8.652  0.00  0.00    -0.333 OA
HETATM    3  O   UNK N   1      33.755  16.642   9.270  0.00  0.00    -0.346 OA
HETATM    4  O   UNK N   1      24.090  18.729   3.660  0.00  0.00    -0.289 OA
HETATM    5  C   UNK N   1      31.605  16.374   6.600  0.00  0.00     0.004 C 
HETATM    6  C   UNK N   1      30.682  17.181   7.524  0.00  0.00     0.007 C 
HETATM    7  C   UNK N   1      32.563  15.518   7.577  0.00  0.00     0.160 C 
HETATM    8  C   UNK N   1      29.571  17.905   6.752  0.00  0.00     0.035 C 
HETATM    9  C   UNK N   1      32.489  16.612   8.722  0.00  0.00     0.168 C 
HETATM   10  C   UNK N   1      28.616  16.810   6.115  0.00  0.00     0.147 C 
HETATM   11  C   UNK N   1      31.752  17.892   8.339  0.00  0.00     0.041 C 
HETATM   12  C   UNK N   1      30.855  15.782   5.375  0.00  0.00     0.048 C 
HETATM   13  C   UNK N   1      29.404  15.561   5.619  0.00  0.00     0.160 C 
HETATM   14  C   UNK N   1      27.700  17.519   5.078  0.00  0.00     0.036 C 
HETATM   15  C   UNK N   1      28.707  18.806   7.635  0.00  0.00     0.013 C 
HETATM   16  C   UNK N   1      32.563  17.311   5.817  0.00  0.00     0.019 C 
HETATM   17  C   UNK N   1      33.934  15.243   9.327  0.00  0.00     0.166 C 
HETATM   18  C   UNK N   1      27.601  19.511   6.829  0.00  0.00     0.036 C 
HETATM   19  C   UNK N   1      26.931  18.648   5.778  0.00  0.00    -0.061 C 
HETATM   20  C   UNK N   1      34.005  14.789  10.768  0.00  0.00     0.068 C 
HETATM   21  C   UNK N   1      35.273  14.822   8.750  0.00  0.00     0.068 C 
HETATM   22  C   UNK N   1      28.538  18.144   3.964  0.00  0.00     0.028 C 
HETATM   23  C   UNK N   1      26.755  16.550   4.382  0.00  0.00    -0.006 C 
HETATM   24  C   UNK N   1      35.447  15.037  11.172  0.00  0.00     0.006 C 
HETATM   25  C   UNK N   1      36.267  14.971   9.890  0.00  0.00     0.006 C 
HETATM   26  C   UNK N   1      25.746  19.056   5.289  0.00  0.00     0.058 C 
HETATM   27  C   UNK N   1      25.571  16.941   3.902  0.00  0.00     0.052 C 
HETATM   28  C   UNK N   1      25.079  18.287   4.219  0.00  0.00     0.172 C 
ENDROOT
BRANCH   7  29
HETATM   29  C   UNK N   1      32.705  14.320   6.624  0.00  0.00     0.188 C 
HETATM   30  O   UNK N   1      31.855  13.432   6.647  0.00  0.00    -0.292 OA
BRANCH  29  31
HETATM   31  C   UNK N   1      33.743  14.262   5.566  0.00  0.00     0.260 C 
BRANCH  31  32
HETATM   32  O   UNK N   1      33.321  13.456   4.544  0.00  0.00    -0.314 OA
BRANCH  32  33
HETATM   33  C   UNK N   1      33.095  13.934   3.301  0.00  0.00     0.255 C 
HETATM   34  O   UNK N   1      32.435  13.270   2.520  0.00  0.00    -0.266 OA
HETATM   35  C   UNK N   1      33.648  15.253   2.854  0.00  0.00     0.126 C 
ENDBRANCH  32  33
ENDBRANCH  31  32
ENDBRANCH  29  31
ENDBRANCH   7  29
BRANCH  13  36
HETATM   36  O   UNK N   1      28.825  14.861   4.561  0.00  0.00    -0.392 OA
HETATM   37  H   UNK N   1      29.195  14.022   4.246  0.00  0.00     0.210 HD
ENDBRANCH  13  36
TORSDOF 5
ENDMDL
MODEL 7
REMARK VINA RESULT:      -7.1      7.624     11.977
REMARK  5 active torsions:
REMARK  status: ('A' for Active; 'I' for Inactive)
REMARK    1  A    between atoms: C_17  and  O_4 
REMARK    2  A    between atoms: O_6  and  C_31 
REMARK    3  A    between atoms: O_6  and  C_35 
REMARK    4  A    between atoms: C_11  and  C_22 
REMARK    5  A    between atoms: C_22  and  C_31 
ROOT
HETATM    1  F   UNK N   1      25.389  15.253   1.049  0.00  0.00    -0.238 F 
HETATM    2  O   UNK N   1      29.589  17.244   4.017  0.00  0.00    -0.333 OA
HETATM    3  O   UNK N   1      30.725  15.303   4.485  0.00  0.00    -0.346 OA
HETATM    4  O   UNK N   1      20.508  12.557   0.325  0.00  0.00    -0.289 OA
HETATM    5  C   UNK N   1      27.290  15.422   4.383  0.00  0.00     0.004 C 
HETATM    6  C   UNK N   1      27.501  14.555   3.133  0.00  0.00     0.007 C 
HETATM    7  C   UNK N   1      28.611  16.342   4.505  0.00  0.00     0.160 C 
HETATM    8  C   UNK N   1      26.246  13.756   2.758  0.00  0.00     0.035 C 
HETATM    9  C   UNK N   1      29.523  15.247   3.811  0.00  0.00     0.168 C 
HETATM   10  C   UNK N   1      25.115  14.782   2.327  0.00  0.00     0.147 C 
HETATM   11  C   UNK N   1      28.826  13.919   3.526  0.00  0.00     0.041 C 
HETATM   12  C   UNK N   1      25.837  15.960   4.498  0.00  0.00     0.048 C 
HETATM   13  C   UNK N   1      25.145  16.082   3.186  0.00  0.00     0.160 C 
HETATM   14  C   UNK N   1      23.767  14.012   2.267  0.00  0.00     0.036 C 
HETATM   15  C   UNK N   1      26.464  12.799   1.585  0.00  0.00     0.013 C 
HETATM   16  C   UNK N   1      27.286  14.551   5.668  0.00  0.00     0.019 C 
HETATM   17  C   UNK N   1      30.820  16.712   4.518  0.00  0.00     0.166 C 
HETATM   18  C   UNK N   1      25.184  12.020   1.233  0.00  0.00     0.036 C 
HETATM   19  C   UNK N   1      23.907  12.833   1.292  0.00  0.00    -0.061 C 
HETATM   20  C   UNK N   1      31.989  17.171   3.678  0.00  0.00     0.068 C 
HETATM   21  C   UNK N   1      31.153  17.222   5.908  0.00  0.00     0.068 C 
HETATM   22  C   UNK N   1      23.414  13.444   3.639  0.00  0.00     0.028 C 
HETATM   23  C   UNK N   1      22.601  14.914   1.886  0.00  0.00    -0.006 C 
HETATM   24  C   UNK N   1      33.193  17.022   4.590  0.00  0.00     0.006 C 
HETATM   25  C   UNK N   1      32.666  17.142   6.014  0.00  0.00     0.006 C 
HETATM   26  C   UNK N   1      22.819  12.346   0.670  0.00  0.00     0.058 C 
HETATM   27  C   UNK N   1      21.520  14.442   1.258  0.00  0.00     0.052 C 
HETATM   28  C   UNK N   1      21.532  13.066   0.748  0.00  0.00     0.172 C 
ENDROOT
BRANCH   7  29
HETATM   29  C   UNK N   1      27.887  17.545   5.131  0.00  0.00     0.188 C 
HETATM   30  O   UNK N   1      27.693  17.564   6.345  0.00  0.00    -0.292 OA
BRANCH  29  31
HETATM   31  C   UNK N   1      27.547  18.763   4.353  0.00  0.00     0.260 C 
BRANCH  31  32
HETATM   32  O   UNK N   1      27.631  19.866   5.158  0.00  0.00    -0.314 OA
BRANCH  32  33
HETATM   33  C   UNK N   1      26.563  20.656   5.406  0.00  0.00     0.255 C 
HETATM   34  O   UNK N   1      25.580  20.568   4.690  0.00  0.00    -0.266 OA
HETATM   35  C   UNK N   1      26.562  21.646   6.531  0.00  0.00     0.126 C 
ENDBRANCH  32  33
ENDBRANCH  31  32
ENDBRANCH  29  31
ENDBRANCH   7  29
BRANCH  13  36
HETATM   36  O   UNK N   1      23.924  16.739   3.330  0.00  0.00    -0.392 OA
HETATM   37  H   UNK N   1      23.817  17.670   3.080  0.00  0.00     0.210 HD
ENDBRANCH  13  36
TORSDOF 5
ENDMDL
MODEL 8
REMARK VINA RESULT:      -7.1      1.518      2.022
REMARK  5 active torsions:
REMARK  status: ('A' for Active; 'I' for Inactive)
REMARK    1  A    between atoms: C_17  and  O_4 
REMARK    2  A    between atoms: O_6  and  C_31 
REMARK    3  A    between atoms: O_6  and  C_35 
REMARK    4  A    between atoms: C_11  and  C_22 
REMARK    5  A    between atoms: C_22  and  C_31 
ROOT
HETATM    1  F   UNK N   1      32.409  15.132   8.224  0.00  0.00    -0.238 F 
HETATM    2  O   UNK N   1      34.752  12.596  12.525  0.00  0.00    -0.333 OA
HETATM    3  O   UNK N   1      36.129  14.266  13.293  0.00  0.00    -0.346 OA
HETATM    4  O   UNK N   1      32.296  17.232   3.009  0.00  0.00    -0.289 OA
HETATM    5  C   UNK N   1      35.566  13.770   9.937  0.00  0.00     0.004 C 
HETATM    6  C   UNK N   1      34.835  15.114  10.070  0.00  0.00     0.007 C 
HETATM    7  C   UNK N   1      35.450  13.065  11.384  0.00  0.00     0.160 C 
HETATM    8  C   UNK N   1      34.680  15.830   8.722  0.00  0.00     0.035 C 
HETATM    9  C   UNK N   1      35.399  14.458  12.137  0.00  0.00     0.168 C 
HETATM   10  C   UNK N   1      33.722  14.960   7.804  0.00  0.00     0.147 C 
HETATM   11  C   UNK N   1      35.618  15.677  11.246  0.00  0.00     0.041 C 
HETATM   12  C   UNK N   1      35.265  13.057   8.591  0.00  0.00     0.048 C 
HETATM   13  C   UNK N   1      33.950  13.431   8.003  0.00  0.00     0.160 C 
HETATM   14  C   UNK N   1      33.827  15.502   6.351  0.00  0.00     0.036 C 
HETATM   15  C   UNK N   1      34.057  17.222   8.841  0.00  0.00     0.013 C 
HETATM   16  C   UNK N   1      37.087  13.986   9.716  0.00  0.00     0.019 C 
HETATM   17  C   UNK N   1      35.577  13.009  13.620  0.00  0.00     0.166 C 
HETATM   18  C   UNK N   1      33.912  17.907   7.471  0.00  0.00     0.036 C 
HETATM   19  C   UNK N   1      33.465  16.995   6.347  0.00  0.00    -0.061 C 
HETATM   20  C   UNK N   1      34.771  13.114  14.895  0.00  0.00     0.068 C 
HETATM   21  C   UNK N   1      36.651  11.990  13.955  0.00  0.00     0.068 C 
HETATM   22  C   UNK N   1      35.257  15.366   5.832  0.00  0.00     0.028 C 
HETATM   23  C   UNK N   1      32.962  14.717   5.376  0.00  0.00    -0.006 C 
HETATM   24  C   UNK N   1      35.801  13.001  16.004  0.00  0.00     0.006 C 
HETATM   25  C   UNK N   1      36.966  12.207  15.425  0.00  0.00     0.006 C 
HETATM   26  C   UNK N   1      32.979  17.562   5.229  0.00  0.00     0.058 C 
HETATM   27  C   UNK N   1      32.464  15.273   4.268  0.00  0.00     0.052 C 
HETATM   28  C   UNK N   1      32.587  16.723   4.078  0.00  0.00     0.172 C 
ENDROOT
BRANCH   7  29
HETATM   29  C   UNK N   1      35.416  11.628  10.838  0.00  0.00     0.188 C 
HETATM   30  O   UNK N   1      34.345  11.152  10.467  0.00  0.00    -0.292 OA
BRANCH  29  31
HETATM   31  C   UNK N   1      36.649  10.838  10.596  0.00  0.00     0.260 C 
BRANCH  31  32
HETATM   32  O   UNK N   1      36.338   9.509  10.498  0.00  0.00    -0.314 OA
BRANCH  32  33
HETATM   33  C   UNK N   1      36.898   8.580  11.305  0.00  0.00     0.255 C 
HETATM   34  O   UNK N   1      37.611   7.721  10.816  0.00  0.00    -0.266 OA
HETATM   35  C   UNK N   1      36.651   8.573  12.783  0.00  0.00     0.126 C 
ENDBRANCH  32  33
ENDBRANCH  31  32
ENDBRANCH  29  31
ENDBRANCH   7  29
BRANCH  13  36
HETATM   36  O   UNK N   1      33.653  12.628   6.903  0.00  0.00    -0.392 OA
HETATM   37  H   UNK N   1      34.283  11.970   6.571  0.00  0.00     0.210 HD
ENDBRANCH  13  36
TORSDOF 5
ENDMDL
MODEL 9
REMARK VINA RESULT:      -7.1     17.554     21.813
REMARK  5 active torsions:
REMARK  status: ('A' for Active; 'I' for Inactive)
REMARK    1  A    between atoms: C_17  and  O_4 
REMARK    2  A    between atoms: O_6  and  C_31 
REMARK    3  A    between atoms: O_6  and  C_35 
REMARK    4  A    between atoms: C_11  and  C_22 
REMARK    5  A    between atoms: C_22  and  C_31 
ROOT
HETATM    1  F   UNK N   1      28.730  25.461  -6.891  0.00  0.00    -0.238 F 
HETATM    2  O   UNK N   1      30.285  20.984  -9.711  0.00  0.00    -0.333 OA
HETATM    3  O   UNK N   1      28.677  20.946 -11.351  0.00  0.00    -0.346 OA
HETATM    4  O   UNK N   1      25.455  28.350  -3.348  0.00  0.00    -0.289 OA
HETATM    5  C   UNK N   1      27.966  21.905  -8.126  0.00  0.00     0.004 C 
HETATM    6  C   UNK N   1      27.780  23.276  -8.792  0.00  0.00     0.007 C 
HETATM    7  C   UNK N   1      29.049  21.122  -9.031  0.00  0.00     0.160 C 
HETATM    8  C   UNK N   1      26.924  24.226  -7.944  0.00  0.00     0.035 C 
HETATM    9  C   UNK N   1      28.608  21.889 -10.346  0.00  0.00     0.168 C 
HETATM   10  C   UNK N   1      27.719  24.551  -6.609  0.00  0.00     0.147 C 
HETATM   11  C   UNK N   1      27.391  22.796 -10.182  0.00  0.00     0.041 C 
HETATM   12  C   UNK N   1      28.026  21.997  -6.577  0.00  0.00     0.048 C 
HETATM   13  C   UNK N   1      28.505  23.315  -6.079  0.00  0.00     0.160 C 
HETATM   14  C   UNK N   1      26.734  25.233  -5.619  0.00  0.00     0.036 C 
HETATM   15  C   UNK N   1      26.629  25.558  -8.635  0.00  0.00     0.013 C 
HETATM   16  C   UNK N   1      26.669  21.058  -8.228  0.00  0.00     0.019 C 
HETATM   17  C   UNK N   1      29.918  20.396 -10.964  0.00  0.00     0.166 C 
HETATM   18  C   UNK N   1      25.775  26.486  -7.753  0.00  0.00     0.036 C 
HETATM   19  C   UNK N   1      26.143  26.485  -6.283  0.00  0.00    -0.061 C 
HETATM   20  C   UNK N   1      30.961  20.680 -12.021  0.00  0.00     0.068 C 
HETATM   21  C   UNK N   1      29.870  18.880 -10.903  0.00  0.00     0.068 C 
HETATM   22  C   UNK N   1      25.578  24.293  -5.283  0.00  0.00     0.028 C 
HETATM   23  C   UNK N   1      27.390  25.566  -4.287  0.00  0.00    -0.006 C 
HETATM   24  C   UNK N   1      30.752  19.595 -13.060  0.00  0.00     0.006 C 
HETATM   25  C   UNK N   1      30.133  18.413 -12.324  0.00  0.00     0.006 C 
HETATM   26  C   UNK N   1      25.704  27.503  -5.522  0.00  0.00     0.058 C 
HETATM   27  C   UNK N   1      26.968  26.582  -3.527  0.00  0.00     0.052 C 
HETATM   28  C   UNK N   1      25.980  27.520  -4.071  0.00  0.00     0.172 C 
ENDROOT
BRANCH   7  29
HETATM   29  C   UNK N   1      29.661  20.329  -7.866  0.00  0.00     0.188 C 
HETATM   30  O   UNK N   1      29.171  19.245  -7.554  0.00  0.00    -0.292 OA
BRANCH  29  31
HETATM   31  C   UNK N   1      30.919  20.741  -7.194  0.00  0.00     0.260 C 
BRANCH  31  32
HETATM   32  O   UNK N   1      30.967  20.212  -5.933  0.00  0.00    -0.314 OA
BRANCH  32  33
HETATM   33  C   UNK N   1      31.278  20.961  -4.853  0.00  0.00     0.255 C 
HETATM   34  O   UNK N   1      30.506  20.994  -3.910  0.00  0.00    -0.266 OA
HETATM   35  C   UNK N   1      32.542  21.764  -4.791  0.00  0.00     0.126 C 
ENDBRANCH  32  33
ENDBRANCH  31  32
ENDBRANCH  29  31
ENDBRANCH   7  29
BRANCH  13  36
HETATM   36  O   UNK N   1      28.716  23.277  -4.702  0.00  0.00    -0.392 OA
HETATM   37  H   UNK N   1      29.274  22.598  -4.292  0.00  0.00     0.210 HD
ENDBRANCH  13  36
TORSDOF 5
ENDMDL
