MODEL 1
REMARK VINA RESULT:      -5.3      0.000      0.000
REMARK  10 active torsions:
REMARK  status: ('A' for Active; 'I' for Inactive)
REMARK    1  A    between atoms: O_3  and  C_19 
REMARK    2  A    between atoms: N_5  and  C_6 
REMARK    3  A    between atoms: N_5  and  C_10 
REMARK    4  A    between atoms: N_5  and  C_11 
REMARK    5  A    between atoms: C_7  and  C_8 
REMARK    6  A    between atoms: C_7  and  C_9 
REMARK    7  A    between atoms: C_9  and  C_16 
REMARK    8  A    between atoms: C_10  and  C_17 
REMARK    9  A    between atoms: C_11  and  C_18 
REMARK   10  A    between atoms: C_16  and  C_19 
ROOT
HETATM    1  C   UNK N   1      26.577  18.496   4.245  0.00  0.00     0.030 A 
HETATM    2  C   UNK N   1      24.355  19.943   3.270  0.00  0.00    -0.058 A 
HETATM    3  C   UNK N   1      25.269  18.074   4.517  0.00  0.00     0.030 A 
HETATM    4  C   UNK N   1      26.763  19.662   3.470  0.00  0.00     0.030 A 
HETATM    5  C   UNK N   1      24.179  18.784   4.038  0.00  0.00     0.009 A 
HETATM    6  C   UNK N   1      25.656  20.379   2.986  0.00  0.00     0.009 A 
ENDROOT
BRANCH   1   7
HETATM    7  N   UNK N   1      27.686  17.746   4.754  0.00  0.00    -0.379 N 
BRANCH   7   8
HETATM    8  C   UNK N   1      27.797  16.354   4.290  0.00  0.00     0.138 C 
BRANCH   8   9
HETATM    9  C   UNK N   1      28.322  16.059   2.899  0.00  0.00     0.134 C 
HETATM   10 Cl   UNK N   1      30.071  16.376   2.874  0.00  0.00    -0.129 Cl
ENDBRANCH   8   9
ENDBRANCH   7   8
BRANCH   7  11
HETATM   11  C   UNK N   1      28.600  18.423   5.680  0.00  0.00     0.138 C 
BRANCH  11  12
HETATM   12  C   UNK N   1      28.014  19.044   6.936  0.00  0.00     0.134 C 
HETATM   13 Cl   UNK N   1      27.675  20.765   6.657  0.00  0.00    -0.129 Cl
ENDBRANCH  11  12
ENDBRANCH   7  11
ENDBRANCH   1   7
BRANCH   2  14
HETATM   14  C   UNK N   1      23.164  20.709   2.755  0.00  0.00     0.039 C 
BRANCH  14  15
HETATM   15  C   UNK N   1      21.900  19.859   2.855  0.00  0.00     0.015 C 
BRANCH  15  16
HETATM   16  C   UNK N   1      20.626  20.580   2.467  0.00  0.00     0.110 C 
BRANCH  16  17
HETATM   17  C   UNK N   1      20.707  21.057   1.040  0.00  0.00     0.139 C 
HETATM   18  O   UNK N   1      20.968  20.283   0.130  0.00  0.00    -0.650 OA
BRANCH  17  19
HETATM   19  O   UNK N   1      20.488  22.354   0.761  0.00  0.00    -0.776 OA
HETATM   20  H   UNK N   1      20.574  23.000   1.433  0.00  0.00     0.167 HD
ENDBRANCH  17  19
ENDBRANCH  16  17
ENDBRANCH  15  16
ENDBRANCH  14  15
ENDBRANCH   2  14
TORSDOF 10
ENDMDL
MODEL 2
REMARK VINA RESULT:      -5.3     11.952     14.585
REMARK  10 active torsions:
REMARK  status: ('A' for Active; 'I' for Inactive)
REMARK    1  A    between atoms: O_3  and  C_19 
REMARK    2  A    between atoms: N_5  and  C_6 
REMARK    3  A    between atoms: N_5  and  C_10 
REMARK    4  A    between atoms: N_5  and  C_11 
REMARK    5  A    between atoms: C_7  and  C_8 
REMARK    6  A    between atoms: C_7  and  C_9 
REMARK    7  A    between atoms: C_9  and  C_16 
REMARK    8  A    between atoms: C_10  and  C_17 
REMARK    9  A    between atoms: C_11  and  C_18 
REMARK   10  A    between atoms: C_16  and  C_19 
ROOT
HETATM    1  C   UNK N   1      35.883  13.039  13.099  0.00  0.00     0.030 A 
HETATM    2  C   UNK N   1      35.542  14.641  10.798  0.00  0.00    -0.058 A 
HETATM    3  C   UNK N   1      36.083  14.424  13.151  0.00  0.00     0.030 A 
HETATM    4  C   UNK N   1      35.503  12.458  11.869  0.00  0.00     0.030 A 
HETATM    5  C   UNK N   1      35.917  15.210  12.022  0.00  0.00     0.009 A 
HETATM    6  C   UNK N   1      35.334  13.257  10.726  0.00  0.00     0.009 A 
ENDROOT
BRANCH   1   7
HETATM    7  N   UNK N   1      36.064  12.248  14.280  0.00  0.00    -0.379 N 
BRANCH   7   8
HETATM    8  C   UNK N   1      36.140  10.792  14.082  0.00  0.00     0.138 C 
BRANCH   8   9
HETATM    9  C   UNK N   1      35.064   9.893  14.656  0.00  0.00     0.134 C 
HETATM   10 Cl   UNK N   1      33.481  10.649  14.369  0.00  0.00    -0.129 Cl
ENDBRANCH   8   9
ENDBRANCH   7   8
BRANCH   7  11
HETATM   11  C   UNK N   1      36.156  12.952  15.563  0.00  0.00     0.138 C 
BRANCH  11  12
HETATM   12  C   UNK N   1      34.873  13.198  16.337  0.00  0.00     0.134 C 
HETATM   13 Cl   UNK N   1      35.105  12.769  18.045  0.00  0.00    -0.129 Cl
ENDBRANCH  11  12
ENDBRANCH   7  11
ENDBRANCH   1   7
BRANCH   2  14
HETATM   14  C   UNK N   1      35.364  15.504   9.575  0.00  0.00     0.039 C 
BRANCH  14  15
HETATM   15  C   UNK N   1      34.574  16.763   9.921  0.00  0.00     0.015 C 
BRANCH  15  16
HETATM   16  C   UNK N   1      33.692  17.278   8.803  0.00  0.00     0.110 C 
BRANCH  16  17
HETATM   17  C   UNK N   1      34.462  18.227   7.922  0.00  0.00     0.139 C 
HETATM   18  O   UNK N   1      35.052  19.189   8.394  0.00  0.00    -0.650 OA
BRANCH  17  19
HETATM   19  O   UNK N   1      34.503  18.015   6.595  0.00  0.00    -0.776 OA
HETATM   20  H   UNK N   1      34.152  18.653   6.007  0.00  0.00     0.167 HD
ENDBRANCH  17  19
ENDBRANCH  16  17
ENDBRANCH  15  16
ENDBRANCH  14  15
ENDBRANCH   2  14
TORSDOF 10
ENDMDL
MODEL 3
REMARK VINA RESULT:      -5.3      5.919      8.761
REMARK  10 active torsions:
REMARK  status: ('A' for Active; 'I' for Inactive)
REMARK    1  A    between atoms: O_3  and  C_19 
REMARK    2  A    between atoms: N_5  and  C_6 
REMARK    3  A    between atoms: N_5  and  C_10 
REMARK    4  A    between atoms: N_5  and  C_11 
REMARK    5  A    between atoms: C_7  and  C_8 
REMARK    6  A    between atoms: C_7  and  C_9 
REMARK    7  A    between atoms: C_9  and  C_16 
REMARK    8  A    between atoms: C_10  and  C_17 
REMARK    9  A    between atoms: C_11  and  C_18 
REMARK   10  A    between atoms: C_16  and  C_19 
ROOT
HETATM    1  C   UNK N   1      27.885  17.787   5.751  0.00  0.00     0.030 A 
HETATM    2  C   UNK N   1      30.095  17.004   7.327  0.00  0.00    -0.058 A 
HETATM    3  C   UNK N   1      27.805  17.782   7.150  0.00  0.00     0.030 A 
HETATM    4  C   UNK N   1      29.097  17.394   5.143  0.00  0.00     0.030 A 
HETATM    5  C   UNK N   1      28.890  17.397   7.923  0.00  0.00     0.009 A 
HETATM    6  C   UNK N   1      30.195  17.005   5.929  0.00  0.00     0.009 A 
ENDROOT
BRANCH   1   7
HETATM    7  N   UNK N   1      26.749  18.186   4.975  0.00  0.00    -0.379 N 
BRANCH   7   8
HETATM    8  C   UNK N   1      25.632  17.229   4.917  0.00  0.00     0.138 C 
BRANCH   8   9
HETATM    9  C   UNK N   1      25.845  15.854   4.317  0.00  0.00     0.134 C 
HETATM   10 Cl   UNK N   1      26.413  16.047   2.644  0.00  0.00    -0.129 Cl
ENDBRANCH   8   9
ENDBRANCH   7   8
BRANCH   7  11
HETATM   11  C   UNK N   1      26.800  19.495   4.316  0.00  0.00     0.138 C 
BRANCH  11  12
HETATM   12  C   UNK N   1      26.188  20.683   5.037  0.00  0.00     0.134 C 
HETATM   13 Cl   UNK N   1      27.396  21.426   6.108  0.00  0.00    -0.129 Cl
ENDBRANCH  11  12
ENDBRANCH   7  11
ENDBRANCH   1   7
BRANCH   2  14
HETATM   14  C   UNK N   1      31.269  16.587   8.176  0.00  0.00     0.039 C 
BRANCH  14  15
HETATM   15  C   UNK N   1      32.141  17.793   8.509  0.00  0.00     0.015 C 
BRANCH  15  16
HETATM   16  C   UNK N   1      33.582  17.456   8.833  0.00  0.00     0.110 C 
BRANCH  16  17
HETATM   17  C   UNK N   1      34.517  18.270   7.977  0.00  0.00     0.139 C 
HETATM   18  O   UNK N   1      35.246  19.119   8.470  0.00  0.00    -0.650 OA
BRANCH  17  19
HETATM   19  O   UNK N   1      34.552  18.060   6.649  0.00  0.00    -0.776 OA
HETATM   20  H   UNK N   1      34.263  18.729   6.061  0.00  0.00     0.167 HD
ENDBRANCH  17  19
ENDBRANCH  16  17
ENDBRANCH  15  16
ENDBRANCH  14  15
ENDBRANCH   2  14
TORSDOF 10
ENDMDL
MODEL 4
REMARK VINA RESULT:      -5.2     11.872     14.570
REMARK  10 active torsions:
REMARK  status: ('A' for Active; 'I' for Inactive)
REMARK    1  A    between atoms: O_3  and  C_19 
REMARK    2  A    between atoms: N_5  and  C_6 
REMARK    3  A    between atoms: N_5  and  C_10 
REMARK    4  A    between atoms: N_5  and  C_11 
REMARK    5  A    between atoms: C_7  and  C_8 
REMARK    6  A    between atoms: C_7  and  C_9 
REMARK    7  A    between atoms: C_9  and  C_16 
REMARK    8  A    between atoms: C_10  and  C_17 
REMARK    9  A    between atoms: C_11  and  C_18 
REMARK   10  A    between atoms: C_16  and  C_19 
ROOT
HETATM    1  C   UNK N   1      36.179  12.799  12.508  0.00  0.00     0.030 A 
HETATM    2  C   UNK N   1      35.815  14.827  10.575  0.00  0.00    -0.058 A 
HETATM    3  C   UNK N   1      34.984  13.530  12.448  0.00  0.00     0.030 A 
HETATM    4  C   UNK N   1      37.199  13.096  11.578  0.00  0.00     0.030 A 
HETATM    5  C   UNK N   1      34.806  14.525  11.500  0.00  0.00     0.009 A 
HETATM    6  C   UNK N   1      37.015  14.105  10.618  0.00  0.00     0.009 A 
ENDROOT
BRANCH   1   7
HETATM    7  N   UNK N   1      36.339  11.777  13.499  0.00  0.00    -0.379 N 
BRANCH   7   8
HETATM    8  C   UNK N   1      37.000  12.183  14.750  0.00  0.00     0.138 C 
BRANCH   8   9
HETATM    9  C   UNK N   1      36.327  13.178  15.674  0.00  0.00     0.134 C 
HETATM   10 Cl   UNK N   1      37.161  14.741  15.528  0.00  0.00    -0.129 Cl
ENDBRANCH   8   9
ENDBRANCH   7   8
BRANCH   7  11
HETATM   11  C   UNK N   1      35.837  10.436  13.183  0.00  0.00     0.138 C 
BRANCH  11  12
HETATM   12  C   UNK N   1      34.949   9.746  14.204  0.00  0.00     0.134 C 
HETATM   13 Cl   UNK N   1      33.579  10.798  14.621  0.00  0.00    -0.129 Cl
ENDBRANCH  11  12
ENDBRANCH   7  11
ENDBRANCH   1   7
BRANCH   2  14
HETATM   14  C   UNK N   1      35.612  15.912   9.549  0.00  0.00     0.039 C 
BRANCH  14  15
HETATM   15  C   UNK N   1      34.158  15.944   9.087  0.00  0.00     0.015 C 
BRANCH  15  16
HETATM   16  C   UNK N   1      33.592  17.335   8.891  0.00  0.00     0.110 C 
BRANCH  16  17
HETATM   17  C   UNK N   1      34.481  18.139   7.979  0.00  0.00     0.139 C 
HETATM   18  O   UNK N   1      34.563  17.880   6.787  0.00  0.00    -0.650 OA
BRANCH  17  19
HETATM   19  O   UNK N   1      35.198  19.160   8.483  0.00  0.00    -0.776 OA
HETATM   20  H   UNK N   1      35.132  20.012   8.102  0.00  0.00     0.167 HD
ENDBRANCH  17  19
ENDBRANCH  16  17
ENDBRANCH  15  16
ENDBRANCH  14  15
ENDBRANCH   2  14
TORSDOF 10
ENDMDL
MODEL 5
REMARK VINA RESULT:      -5.2      6.002      9.158
REMARK  10 active torsions:
REMARK  status: ('A' for Active; 'I' for Inactive)
REMARK    1  A    between atoms: O_3  and  C_19 
REMARK    2  A    between atoms: N_5  and  C_6 
REMARK    3  A    between atoms: N_5  and  C_10 
REMARK    4  A    between atoms: N_5  and  C_11 
REMARK    5  A    between atoms: C_7  and  C_8 
REMARK    6  A    between atoms: C_7  and  C_9 
REMARK    7  A    between atoms: C_9  and  C_16 
REMARK    8  A    between atoms: C_10  and  C_17 
REMARK    9  A    between atoms: C_11  and  C_18 
REMARK   10  A    between atoms: C_16  and  C_19 
ROOT
HETATM    1  C   UNK N   1      28.639  17.999   5.575  0.00  0.00     0.030 A 
HETATM    2  C   UNK N   1      30.479  17.553   7.671  0.00  0.00    -0.058 A 
HETATM    3  C   UNK N   1      29.886  17.412   5.324  0.00  0.00     0.030 A 
HETATM    4  C   UNK N   1      28.318  18.362   6.901  0.00  0.00     0.030 A 
HETATM    5  C   UNK N   1      30.789  17.194   6.353  0.00  0.00     0.009 A 
HETATM    6  C   UNK N   1      29.235  18.138   7.942  0.00  0.00     0.009 A 
ENDROOT
BRANCH   1   7
HETATM    7  N   UNK N   1      27.725  18.217   4.493  0.00  0.00    -0.379 N 
BRANCH   7   8
HETATM    8  C   UNK N   1      27.420  19.620   4.172  0.00  0.00     0.138 C 
BRANCH   8   9
HETATM    9  C   UNK N   1      25.993  20.123   4.255  0.00  0.00     0.134 C 
HETATM   10 Cl   UNK N   1      25.380  20.365   2.604  0.00  0.00    -0.129 Cl
ENDBRANCH   8   9
ENDBRANCH   7   8
BRANCH   7  11
HETATM   11  C   UNK N   1      27.181  17.037   3.812  0.00  0.00     0.138 C 
BRANCH  11  12
HETATM   12  C   UNK N   1      26.392  16.036   4.638  0.00  0.00     0.134 C 
HETATM   13 Cl   UNK N   1      27.459  14.722   5.175  0.00  0.00    -0.129 Cl
ENDBRANCH  11  12
ENDBRANCH   7  11
ENDBRANCH   1   7
BRANCH   2  14
HETATM   14  C   UNK N   1      31.467  17.312   8.783  0.00  0.00     0.039 C 
BRANCH  14  15
HETATM   15  C   UNK N   1      32.641  16.475   8.281  0.00  0.00     0.015 C 
BRANCH  15  16
HETATM   16  C   UNK N   1      34.000  16.961   8.740  0.00  0.00     0.110 C 
BRANCH  16  17
HETATM   17  C   UNK N   1      34.468  18.102   7.875  0.00  0.00     0.139 C 
HETATM   18  O   UNK N   1      34.316  18.078   6.661  0.00  0.00    -0.650 OA
BRANCH  17  19
HETATM   19  O   UNK N   1      35.063  19.166   8.444  0.00  0.00    -0.776 OA
HETATM   20  H   UNK N   1      35.900  19.453   8.140  0.00  0.00     0.167 HD
ENDBRANCH  17  19
ENDBRANCH  16  17
ENDBRANCH  15  16
ENDBRANCH  14  15
ENDBRANCH   2  14
TORSDOF 10
ENDMDL
MODEL 6
REMARK VINA RESULT:      -5.2     12.208     15.106
REMARK  10 active torsions:
REMARK  status: ('A' for Active; 'I' for Inactive)
REMARK    1  A    between atoms: O_3  and  C_19 
REMARK    2  A    between atoms: N_5  and  C_6 
REMARK    3  A    between atoms: N_5  and  C_10 
REMARK    4  A    between atoms: N_5  and  C_11 
REMARK    5  A    between atoms: C_7  and  C_8 
REMARK    6  A    between atoms: C_7  and  C_9 
REMARK    7  A    between atoms: C_9  and  C_16 
REMARK    8  A    between atoms: C_10  and  C_17 
REMARK    9  A    between atoms: C_11  and  C_18 
REMARK   10  A    between atoms: C_16  and  C_19 
ROOT
HETATM    1  C   UNK N   1      35.685  13.236  13.673  0.00  0.00     0.030 A 
HETATM    2  C   UNK N   1      35.561  14.634  11.222  0.00  0.00    -0.058 A 
HETATM    3  C   UNK N   1      36.269  14.502  13.537  0.00  0.00     0.030 A 
HETATM    4  C   UNK N   1      35.029  12.672  12.557  0.00  0.00     0.030 A 
HETATM    5  C   UNK N   1      36.208  15.188  12.334  0.00  0.00     0.009 A 
HETATM    6  C   UNK N   1      34.968  13.370  11.339  0.00  0.00     0.009 A 
ENDROOT
BRANCH   1   7
HETATM    7  N   UNK N   1      35.764  12.547  14.927  0.00  0.00    -0.379 N 
BRANCH   7   8
HETATM    8  C   UNK N   1      34.740  12.895  15.926  0.00  0.00     0.138 C 
BRANCH   8   9
HETATM    9  C   UNK N   1      35.027  12.704  17.401  0.00  0.00     0.134 C 
HETATM   10 Cl   UNK N   1      35.257  14.302  18.146  0.00  0.00    -0.129 Cl
ENDBRANCH   8   9
ENDBRANCH   7   8
BRANCH   7  11
HETATM   11  C   UNK N   1      36.843  11.569  15.101  0.00  0.00     0.138 C 
BRANCH  11  12
HETATM   12  C   UNK N   1      36.564  10.123  14.730  0.00  0.00     0.134 C 
HETATM   13 Cl   UNK N   1      37.400   9.715  13.217  0.00  0.00    -0.129 Cl
ENDBRANCH  11  12
ENDBRANCH   7  11
ENDBRANCH   1   7
BRANCH   2  14
HETATM   14  C   UNK N   1      35.501  15.387   9.918  0.00  0.00     0.039 C 
BRANCH  14  15
HETATM   15  C   UNK N   1      34.892  16.771  10.128  0.00  0.00     0.015 C 
BRANCH  15  16
HETATM   16  C   UNK N   1      33.936  17.208   9.038  0.00  0.00     0.110 C 
BRANCH  16  17
HETATM   17  C   UNK N   1      34.598  18.213   8.132  0.00  0.00     0.139 C 
HETATM   18  O   UNK N   1      35.268  19.129   8.588  0.00  0.00    -0.650 OA
BRANCH  17  19
HETATM   19  O   UNK N   1      34.452  18.103   6.799  0.00  0.00    -0.776 OA
HETATM   20  H   UNK N   1      33.612  18.236   6.407  0.00  0.00     0.167 HD
ENDBRANCH  17  19
ENDBRANCH  16  17
ENDBRANCH  15  16
ENDBRANCH  14  15
ENDBRANCH   2  14
TORSDOF 10
ENDMDL
MODEL 7
REMARK VINA RESULT:      -5.1      1.415      3.031
REMARK  10 active torsions:
REMARK  status: ('A' for Active; 'I' for Inactive)
REMARK    1  A    between atoms: O_3  and  C_19 
REMARK    2  A    between atoms: N_5  and  C_6 
REMARK    3  A    between atoms: N_5  and  C_10 
REMARK    4  A    between atoms: N_5  and  C_11 
REMARK    5  A    between atoms: C_7  and  C_8 
REMARK    6  A    between atoms: C_7  and  C_9 
REMARK    7  A    between atoms: C_9  and  C_16 
REMARK    8  A    between atoms: C_10  and  C_17 
REMARK    9  A    between atoms: C_11  and  C_18 
REMARK   10  A    between atoms: C_16  and  C_19 
ROOT
HETATM    1  C   UNK N   1      27.099  18.273   4.762  0.00  0.00     0.030 A 
HETATM    2  C   UNK N   1      25.093  19.910   3.634  0.00  0.00    -0.058 A 
HETATM    3  C   UNK N   1      25.744  17.939   4.888  0.00  0.00     0.030 A 
HETATM    4  C   UNK N   1      27.444  19.446   4.056  0.00  0.00     0.030 A 
HETATM    5  C   UNK N   1      24.760  18.744   4.335  0.00  0.00     0.009 A 
HETATM    6  C   UNK N   1      26.444  20.259   3.496  0.00  0.00     0.009 A 
ENDROOT
BRANCH   1   7
HETATM    7  N   UNK N   1      28.098  17.426   5.346  0.00  0.00    -0.379 N 
BRANCH   7   8
HETATM    8  C   UNK N   1      28.755  17.937   6.559  0.00  0.00     0.138 C 
BRANCH   8   9
HETATM    9  C   UNK N   1      28.273  17.493   7.925  0.00  0.00     0.134 C 
HETATM   10 Cl   UNK N   1      28.928  18.605   9.148  0.00  0.00    -0.129 Cl
ENDBRANCH   8   9
ENDBRANCH   7   8
BRANCH   7  11
HETATM   11  C   UNK N   1      28.372  16.144   4.689  0.00  0.00     0.138 C 
BRANCH  11  12
HETATM   12  C   UNK N   1      28.554  16.137   3.182  0.00  0.00     0.134 C 
HETATM   13 Cl   UNK N   1      27.070  15.554   2.397  0.00  0.00    -0.129 Cl
ENDBRANCH  11  12
ENDBRANCH   7  11
ENDBRANCH   1   7
BRANCH   2  14
HETATM   14  C   UNK N   1      24.016  20.779   3.037  0.00  0.00     0.039 C 
BRANCH  14  15
HETATM   15  C   UNK N   1      22.736  19.974   2.831  0.00  0.00     0.015 C 
BRANCH  15  16
HETATM   16  C   UNK N   1      21.528  20.803   2.446  0.00  0.00     0.110 C 
BRANCH  16  17
HETATM   17  C   UNK N   1      20.906  20.269   1.182  0.00  0.00     0.139 C 
HETATM   18  O   UNK N   1      21.106  20.809   0.104  0.00  0.00    -0.650 OA
BRANCH  17  19
HETATM   19  O   UNK N   1      20.117  19.181   1.239  0.00  0.00    -0.776 OA
HETATM   20  H   UNK N   1      20.290  18.509   1.867  0.00  0.00     0.167 HD
ENDBRANCH  17  19
ENDBRANCH  16  17
ENDBRANCH  15  16
ENDBRANCH  14  15
ENDBRANCH   2  14
TORSDOF 10
ENDMDL
MODEL 8
REMARK VINA RESULT:      -4.9      6.584      9.995
REMARK  10 active torsions:
REMARK  status: ('A' for Active; 'I' for Inactive)
REMARK    1  A    between atoms: O_3  and  C_19 
REMARK    2  A    between atoms: N_5  and  C_6 
REMARK    3  A    between atoms: N_5  and  C_10 
REMARK    4  A    between atoms: N_5  and  C_11 
REMARK    5  A    between atoms: C_7  and  C_8 
REMARK    6  A    between atoms: C_7  and  C_9 
REMARK    7  A    between atoms: C_9  and  C_16 
REMARK    8  A    between atoms: C_10  and  C_17 
REMARK    9  A    between atoms: C_11  and  C_18 
REMARK   10  A    between atoms: C_16  and  C_19 
ROOT
HETATM    1  C   UNK N   1      30.551  17.296   4.973  0.00  0.00     0.030 A 
HETATM    2  C   UNK N   1      32.957  17.444   6.446  0.00  0.00    -0.058 A 
HETATM    3  C   UNK N   1      30.548  17.174   6.368  0.00  0.00     0.030 A 
HETATM    4  C   UNK N   1      31.784  17.497   4.315  0.00  0.00     0.030 A 
HETATM    5  C   UNK N   1      31.729  17.247   7.091  0.00  0.00     0.009 A 
HETATM    6  C   UNK N   1      32.980  17.570   5.050  0.00  0.00     0.009 A 
ENDROOT
BRANCH   1   7
HETATM    7  N   UNK N   1      29.317  17.215   4.249  0.00  0.00    -0.379 N 
BRANCH   7   8
HETATM    8  C   UNK N   1      28.167  17.913   4.844  0.00  0.00     0.138 C 
BRANCH   8   9
HETATM    9  C   UNK N   1      28.042  19.417   4.709  0.00  0.00     0.134 C 
HETATM   10 Cl   UNK N   1      27.834  20.117   6.330  0.00  0.00    -0.129 Cl
ENDBRANCH   8   9
ENDBRANCH   7   8
BRANCH   7  11
HETATM   11  C   UNK N   1      29.311  16.452   2.996  0.00  0.00     0.138 C 
BRANCH  11  12
HETATM   12  C   UNK N   1      28.630  15.094   2.989  0.00  0.00     0.134 C 
HETATM   13 Cl   UNK N   1      27.198  15.143   1.940  0.00  0.00    -0.129 Cl
ENDBRANCH  11  12
ENDBRANCH   7  11
ENDBRANCH   1   7
BRANCH   2  14
HETATM   14  C   UNK N   1      34.235  17.520   7.240  0.00  0.00     0.039 C 
BRANCH  14  15
HETATM   15  C   UNK N   1      33.959  17.272   8.720  0.00  0.00     0.015 C 
BRANCH  15  16
HETATM   16  C   UNK N   1      34.534  15.978   9.257  0.00  0.00     0.110 C 
BRANCH  16  17
HETATM   17  C   UNK N   1      33.429  15.062   9.714  0.00  0.00     0.139 C 
HETATM   18  O   UNK N   1      32.829  14.351   8.920  0.00  0.00    -0.650 OA
BRANCH  17  19
HETATM   19  O   UNK N   1      33.094  15.025  11.017  0.00  0.00    -0.776 OA
HETATM   20  H   UNK N   1      33.726  15.247  11.670  0.00  0.00     0.167 HD
ENDBRANCH  17  19
ENDBRANCH  16  17
ENDBRANCH  15  16
ENDBRANCH  14  15
ENDBRANCH   2  14
TORSDOF 10
ENDMDL
MODEL 9
REMARK VINA RESULT:      -4.9      1.316      3.096
REMARK  10 active torsions:
REMARK  status: ('A' for Active; 'I' for Inactive)
REMARK    1  A    between atoms: O_3  and  C_19 
REMARK    2  A    between atoms: N_5  and  C_6 
REMARK    3  A    between atoms: N_5  and  C_10 
REMARK    4  A    between atoms: N_5  and  C_11 
REMARK    5  A    between atoms: C_7  and  C_8 
REMARK    6  A    between atoms: C_7  and  C_9 
REMARK    7  A    between atoms: C_9  and  C_16 
REMARK    8  A    between atoms: C_10  and  C_17 
REMARK    9  A    between atoms: C_11  and  C_18 
REMARK   10  A    between atoms: C_16  and  C_19 
ROOT
HETATM    1  C   UNK N   1      25.667  18.109   4.436  0.00  0.00     0.030 A 
HETATM    2  C   UNK N   1      22.931  18.775   4.206  0.00  0.00    -0.058 A 
HETATM    3  C   UNK N   1      24.684  17.343   5.076  0.00  0.00     0.030 A 
HETATM    4  C   UNK N   1      25.261  19.223   3.669  0.00  0.00     0.030 A 
HETATM    5  C   UNK N   1      23.342  17.670   4.964  0.00  0.00     0.009 A 
HETATM    6  C   UNK N   1      23.900  19.552   3.556  0.00  0.00     0.009 A 
ENDROOT
BRANCH   1   7
HETATM    7  N   UNK N   1      27.048  17.751   4.571  0.00  0.00    -0.379 N 
BRANCH   7   8
HETATM    8  C   UNK N   1      27.963  18.831   4.975  0.00  0.00     0.138 C 
BRANCH   8   9
HETATM    9  C   UNK N   1      27.737  19.565   6.281  0.00  0.00     0.134 C 
HETATM   10 Cl   UNK N   1      27.320  21.254   5.918  0.00  0.00    -0.129 Cl
ENDBRANCH   8   9
ENDBRANCH   7   8
BRANCH   7  11
HETATM   11  C   UNK N   1      27.421  16.360   4.297  0.00  0.00     0.138 C 
BRANCH  11  12
HETATM   12  C   UNK N   1      27.720  15.970   2.860  0.00  0.00     0.134 C 
HETATM   13 Cl   UNK N   1      26.209  15.574   2.015  0.00  0.00    -0.129 Cl
ENDBRANCH  11  12
ENDBRANCH   7  11
ENDBRANCH   1   7
BRANCH   2  14
HETATM   14  C   UNK N   1      21.470  19.123   4.090  0.00  0.00     0.039 C 
BRANCH  14  15
HETATM   15  C   UNK N   1      21.005  18.996   2.642  0.00  0.00     0.015 C 
BRANCH  15  16
HETATM   16  C   UNK N   1      20.100  20.116   2.172  0.00  0.00     0.110 C 
BRANCH  16  17
HETATM   17  C   UNK N   1      20.803  20.961   1.143  0.00  0.00     0.139 C 
HETATM   18  O   UNK N   1      21.720  20.507   0.473  0.00  0.00    -0.650 OA
BRANCH  17  19
HETATM   19  O   UNK N   1      20.418  22.237   0.956  0.00  0.00    -0.776 OA
HETATM   20  H   UNK N   1      19.614  22.424   0.515  0.00  0.00     0.167 HD
ENDBRANCH  17  19
ENDBRANCH  16  17
ENDBRANCH  15  16
ENDBRANCH  14  15
ENDBRANCH   2  14
TORSDOF 10
ENDMDL
