MODEL 1
REMARK VINA RESULT:      -8.2      0.000      0.000
REMARK  11 active torsions:
REMARK  status: ('A' for Active; 'I' for Inactive)
REMARK    1  A    between atoms: O_2  and  C_29 
REMARK    2  A    between atoms: O_6  and  C_32 
REMARK    3  A    between atoms: N_8  and  C_13 
REMARK    4  A    between atoms: N_8  and  C_17 
REMARK    5  A    between atoms: C_14  and  N_9 
REMARK       I    between atoms: N_9  and  C_25 
REMARK    6  A    between atoms: C_13  and  C_15 
REMARK    7  A    between atoms: C_14  and  C_16 
REMARK    8  A    between atoms: C_14  and  C_29 
REMARK    9  A    between atoms: C_16  and  C_21 
REMARK   10  A    between atoms: C_21  and  C_32 
REMARK   11  A    between atoms: C_23  and  C_25 
ROOT
HETATM    1  S   UNK N   1      24.666  18.435   4.011  0.00  0.00    -0.067 SA
HETATM    2  C   UNK N   1      26.310  18.582   4.159  0.00  0.00     0.072 A 
HETATM    3  C   UNK N   1      24.370  19.841   3.188  0.00  0.00     0.074 A 
HETATM    4  C   UNK N   1      26.699  19.760   3.514  0.00  0.00     0.038 A 
HETATM    5  C   UNK N   1      25.599  20.476   2.970  0.00  0.00     0.027 A 
ENDROOT
BRANCH   2   6
HETATM    6  N   UNK N   1      27.137  17.803   5.004  0.00  0.00    -0.375 N 
HETATM    7  C   UNK N   1      26.894  16.388   5.147  0.00  0.00     0.150 C 
BRANCH   6   8
HETATM    8  C   UNK N   1      27.982  18.471   5.970  0.00  0.00     0.161 C 
BRANCH   8   9
HETATM    9  C   UNK N   1      29.310  17.822   6.062  0.00  0.00    -0.039 A 
HETATM   10  C   UNK N   1      30.089  17.633   4.918  0.00  0.00     0.028 A 
HETATM   11  C   UNK N   1      31.327  16.988   5.021  0.00  0.00     0.059 A 
HETATM   12  C   UNK N   1      31.774  16.529   6.277  0.00  0.00     0.049 A 
HETATM   13  C   UNK N   1      32.144  16.773   3.906  0.00  0.00     0.259 A 
HETATM   14  N   UNK N   1      32.963  15.884   6.378  0.00  0.00    -0.345 N 
HETATM   15  C   UNK N   1      30.993  16.734   7.417  0.00  0.00     0.031 A 
HETATM   16  C   UNK N   1      33.739  15.674   5.283  0.00  0.00     0.080 A 
HETATM   17  H   UNK N   1      33.268  15.564   7.258  0.00  0.00     0.167 HD
HETATM   18  N   UNK N   1      33.337  16.118   4.061  0.00  0.00    -0.313 N 
HETATM   19  C   UNK N   1      35.030  14.953   5.421  0.00  0.00     0.089 C 
ATOM     20  HN  UNK N   1      33.931  15.959   3.248  1.00  0.00     0.170 HD
HETATM   21  C   UNK N   1      29.764  17.383   7.309  0.00  0.00     0.011 A 
HETATM   22  O   UNK N   1      31.805  17.161   2.800  0.00  0.00    -0.267 OA
ENDBRANCH   8   9
ENDBRANCH   6   8
ENDBRANCH   2   6
BRANCH   3  23
HETATM   23  C   UNK N   1      23.059  20.473   3.030  0.00  0.00     0.259 C 
HETATM   24  O   UNK N   1      22.975  21.685   2.891  0.00  0.00    -0.267 OA
HETATM   25  N   UNK N   1      21.979  19.670   2.843  0.00  0.00    -0.342 N 
HETATM   26  H   UNK N   1      22.088  18.708   3.021  0.00  0.00     0.163 HD
BRANCH  25  27
HETATM   27  C   UNK N   1      20.674  20.127   2.396  0.00  0.00     0.183 C 
BRANCH  27  28
HETATM   28  C   UNK N   1      19.662  18.977   2.375  0.00  0.00     0.046 C 
BRANCH  28  29
HETATM   29  C   UNK N   1      20.368  17.630   2.311  0.00  0.00     0.112 C 
BRANCH  29  30
HETATM   30  C   UNK N   1      20.077  16.952   1.013  0.00  0.00     0.139 C 
HETATM   31  O   UNK N   1      19.630  15.816   1.004  0.00  0.00    -0.650 OA
BRANCH  30  32
HETATM   32  O   UNK N   1      20.279  17.602  -0.148  0.00  0.00    -0.776 OA
HETATM   33  H   UNK N   1      21.111  17.993  -0.330  0.00  0.00     0.167 HD
ENDBRANCH  30  32
ENDBRANCH  29  30
ENDBRANCH  28  29
ENDBRANCH  27  28
BRANCH  27  34
HETATM   34  C   UNK N   1      20.719  20.858   1.088  0.00  0.00     0.163 C 
HETATM   35  O   UNK N   1      20.940  20.266   0.045  0.00  0.00    -0.648 OA
BRANCH  34  36
HETATM   36  O   UNK N   1      20.562  22.195   1.074  0.00  0.00    -0.775 OA
HETATM   37  H   UNK N   1      20.763  22.683   0.299  0.00  0.00     0.167 HD
ENDBRANCH  34  36
ENDBRANCH  27  34
ENDBRANCH  25  27
ENDBRANCH   3  23
TORSDOF 11
ENDMDL
MODEL 2
REMARK VINA RESULT:      -7.7      1.666      2.243
REMARK  11 active torsions:
REMARK  status: ('A' for Active; 'I' for Inactive)
REMARK    1  A    between atoms: O_2  and  C_29 
REMARK    2  A    between atoms: O_6  and  C_32 
REMARK    3  A    between atoms: N_8  and  C_13 
REMARK    4  A    between atoms: N_8  and  C_17 
REMARK    5  A    between atoms: C_14  and  N_9 
REMARK       I    between atoms: N_9  and  C_25 
REMARK    6  A    between atoms: C_13  and  C_15 
REMARK    7  A    between atoms: C_14  and  C_16 
REMARK    8  A    between atoms: C_14  and  C_29 
REMARK    9  A    between atoms: C_16  and  C_21 
REMARK   10  A    between atoms: C_21  and  C_32 
REMARK   11  A    between atoms: C_23  and  C_25 
ROOT
HETATM    1  S   UNK N   1      24.483  18.319   4.344  0.00  0.00    -0.067 SA
HETATM    2  C   UNK N   1      26.134  18.366   4.483  0.00  0.00     0.072 A 
HETATM    3  C   UNK N   1      24.284  19.652   3.381  0.00  0.00     0.074 A 
HETATM    4  C   UNK N   1      26.603  19.443   3.724  0.00  0.00     0.038 A 
HETATM    5  C   UNK N   1      25.553  20.174   3.105  0.00  0.00     0.027 A 
ENDROOT
BRANCH   2   6
HETATM    6  N   UNK N   1      26.908  17.621   5.406  0.00  0.00    -0.375 N 
HETATM    7  C   UNK N   1      26.500  16.288   5.780  0.00  0.00     0.150 C 
BRANCH   6   8
HETATM    8  C   UNK N   1      27.886  18.309   6.219  0.00  0.00     0.161 C 
BRANCH   8   9
HETATM    9  C   UNK N   1      29.241  17.744   6.026  0.00  0.00    -0.039 A 
HETATM   10  C   UNK N   1      29.936  17.184   7.100  0.00  0.00     0.028 A 
HETATM   11  C   UNK N   1      31.229  16.685   6.904  0.00  0.00     0.059 A 
HETATM   12  C   UNK N   1      31.821  16.758   5.626  0.00  0.00     0.049 A 
HETATM   13  C   UNK N   1      31.968  16.116   7.946  0.00  0.00     0.259 A 
HETATM   14  N   UNK N   1      33.082  16.295   5.436  0.00  0.00    -0.345 N 
HETATM   15  C   UNK N   1      31.112  17.308   4.556  0.00  0.00     0.031 A 
HETATM   16  C   UNK N   1      33.790  15.755   6.463  0.00  0.00     0.080 A 
HETATM   17  H   UNK N   1      33.489  16.350   4.542  0.00  0.00     0.167 HD
HETATM   18  N   UNK N   1      33.238  15.662   7.703  0.00  0.00    -0.313 N 
HETATM   19  C   UNK N   1      35.173  15.269   6.230  0.00  0.00     0.089 C 
ATOM     20  HN  UNK N   1      33.777  15.249   8.463  1.00  0.00     0.170 HD
HETATM   21  C   UNK N   1      29.822  17.797   4.756  0.00  0.00     0.011 A 
HETATM   22  O   UNK N   1      31.496  16.021   9.067  0.00  0.00    -0.267 OA
ENDBRANCH   8   9
ENDBRANCH   6   8
ENDBRANCH   2   6
BRANCH   3  23
HETATM   23  C   UNK N   1      23.020  20.354   3.155  0.00  0.00     0.259 C 
HETATM   24  O   UNK N   1      23.014  21.561   2.958  0.00  0.00    -0.267 OA
HETATM   25  N   UNK N   1      21.897  19.610   2.972  0.00  0.00    -0.342 N 
HETATM   26  H   UNK N   1      21.941  18.653   3.197  0.00  0.00     0.163 HD
BRANCH  25  27
HETATM   27  C   UNK N   1      20.636  20.124   2.465  0.00  0.00     0.183 C 
BRANCH  27  28
HETATM   28  C   UNK N   1      19.501  19.119   2.685  0.00  0.00     0.046 C 
BRANCH  28  29
HETATM   29  C   UNK N   1      20.037  17.696   2.749  0.00  0.00     0.112 C 
BRANCH  29  30
HETATM   30  C   UNK N   1      19.928  17.163   4.140  0.00  0.00     0.139 C 
HETATM   31  O   UNK N   1      18.945  16.521   4.474  0.00  0.00    -0.650 OA
BRANCH  30  32
HETATM   32  O   UNK N   1      20.928  17.364   5.019  0.00  0.00    -0.776 OA
HETATM   33  H   UNK N   1      21.675  16.798   5.021  0.00  0.00     0.167 HD
ENDBRANCH  30  32
ENDBRANCH  29  30
ENDBRANCH  28  29
ENDBRANCH  27  28
BRANCH  27  34
HETATM   34  C   UNK N   1      20.713  20.581   1.039  0.00  0.00     0.163 C 
HETATM   35  O   UNK N   1      20.802  21.766   0.764  0.00  0.00    -0.648 OA
BRANCH  34  36
HETATM   36  O   UNK N   1      20.632  19.671   0.050  0.00  0.00    -0.775 OA
HETATM   37  H   UNK N   1      20.017  19.789  -0.647  0.00  0.00     0.167 HD
ENDBRANCH  34  36
ENDBRANCH  27  34
ENDBRANCH  25  27
ENDBRANCH   3  23
TORSDOF 11
ENDMDL
MODEL 3
REMARK VINA RESULT:      -7.7      2.143      2.862
REMARK  11 active torsions:
REMARK  status: ('A' for Active; 'I' for Inactive)
REMARK    1  A    between atoms: O_2  and  C_29 
REMARK    2  A    between atoms: O_6  and  C_32 
REMARK    3  A    between atoms: N_8  and  C_13 
REMARK    4  A    between atoms: N_8  and  C_17 
REMARK    5  A    between atoms: C_14  and  N_9 
REMARK       I    between atoms: N_9  and  C_25 
REMARK    6  A    between atoms: C_13  and  C_15 
REMARK    7  A    between atoms: C_14  and  C_16 
REMARK    8  A    between atoms: C_14  and  C_29 
REMARK    9  A    between atoms: C_16  and  C_21 
REMARK   10  A    between atoms: C_21  and  C_32 
REMARK   11  A    between atoms: C_23  and  C_25 
ROOT
HETATM    1  S   UNK N   1      24.977  19.030   4.961  0.00  0.00    -0.067 SA
HETATM    2  C   UNK N   1      26.200  17.912   4.912  0.00  0.00     0.072 A 
HETATM    3  C   UNK N   1      23.698  17.985   5.076  0.00  0.00     0.074 A 
HETATM    4  C   UNK N   1      25.628  16.641   5.025  0.00  0.00     0.038 A 
HETATM    5  C   UNK N   1      24.211  16.683   5.112  0.00  0.00     0.027 A 
ENDROOT
BRANCH   2   6
HETATM    6  N   UNK N   1      27.546  18.173   4.557  0.00  0.00    -0.375 N 
HETATM    7  C   UNK N   1      27.957  19.516   4.225  0.00  0.00     0.150 C 
BRANCH   6   8
HETATM    8  C   UNK N   1      28.404  17.067   4.195  0.00  0.00     0.161 C 
BRANCH   8   9
HETATM    9  C   UNK N   1      29.688  17.118   4.931  0.00  0.00    -0.039 A 
HETATM   10  C   UNK N   1      29.706  17.096   6.328  0.00  0.00     0.028 A 
HETATM   11  C   UNK N   1      30.928  17.180   7.006  0.00  0.00     0.059 A 
HETATM   12  C   UNK N   1      32.128  17.292   6.275  0.00  0.00     0.049 A 
HETATM   13  C   UNK N   1      31.001  17.163   8.403  0.00  0.00     0.259 A 
HETATM   14  N   UNK N   1      33.312  17.395   6.928  0.00  0.00    -0.345 N 
HETATM   15  C   UNK N   1      32.100  17.301   4.878  0.00  0.00     0.031 A 
HETATM   16  C   UNK N   1      33.364  17.388   8.286  0.00  0.00     0.080 A 
HETATM   17  H   UNK N   1      34.146  17.474   6.411  0.00  0.00     0.167 HD
HETATM   18  N   UNK N   1      32.222  17.269   9.016  0.00  0.00    -0.313 N 
HETATM   19  C   UNK N   1      34.673  17.516   8.975  0.00  0.00     0.089 C 
ATOM     20  HN  UNK N   1      32.274  17.259  10.034  1.00  0.00     0.170 HD
HETATM   21  C   UNK N   1      30.880  17.210   4.209  0.00  0.00     0.011 A 
HETATM   22  O   UNK N   1      29.991  17.058   9.080  0.00  0.00    -0.267 OA
ENDBRANCH   8   9
ENDBRANCH   6   8
ENDBRANCH   2   6
BRANCH   3  23
HETATM   23  C   UNK N   1      22.297  18.329   4.832  0.00  0.00     0.259 C 
HETATM   24  O   UNK N   1      21.525  18.465   5.771  0.00  0.00    -0.267 OA
HETATM   25  N   UNK N   1      21.934  18.685   3.571  0.00  0.00    -0.342 N 
HETATM   26  H   UNK N   1      22.572  18.504   2.844  0.00  0.00     0.163 HD
BRANCH  25  27
HETATM   27  C   UNK N   1      20.673  19.316   3.218  0.00  0.00     0.183 C 
BRANCH  27  28
HETATM   28  C   UNK N   1      19.672  18.288   2.681  0.00  0.00     0.046 C 
BRANCH  28  29
HETATM   29  C   UNK N   1      20.390  17.128   2.007  0.00  0.00     0.112 C 
BRANCH  29  30
HETATM   30  C   UNK N   1      20.005  17.045   0.567  0.00  0.00     0.139 C 
HETATM   31  O   UNK N   1      19.335  16.107   0.165  0.00  0.00    -0.650 OA
BRANCH  30  32
HETATM   32  O   UNK N   1      20.373  18.020  -0.287  0.00  0.00    -0.776 OA
HETATM   33  H   UNK N   1      21.214  18.423  -0.207  0.00  0.00     0.167 HD
ENDBRANCH  30  32
ENDBRANCH  29  30
ENDBRANCH  28  29
ENDBRANCH  27  28
BRANCH  27  34
HETATM   34  C   UNK N   1      20.834  20.481   2.289  0.00  0.00     0.163 C 
HETATM   35  O   UNK N   1      21.592  21.399   2.559  0.00  0.00    -0.648 OA
BRANCH  34  36
HETATM   36  O   UNK N   1      20.093  20.537   1.167  0.00  0.00    -0.775 OA
HETATM   37  H   UNK N   1      20.389  21.041   0.434  0.00  0.00     0.167 HD
ENDBRANCH  34  36
ENDBRANCH  27  34
ENDBRANCH  25  27
ENDBRANCH   3  23
TORSDOF 11
ENDMDL
MODEL 4
REMARK VINA RESULT:      -7.7     10.056     14.128
REMARK  11 active torsions:
REMARK  status: ('A' for Active; 'I' for Inactive)
REMARK    1  A    between atoms: O_2  and  C_29 
REMARK    2  A    between atoms: O_6  and  C_32 
REMARK    3  A    between atoms: N_8  and  C_13 
REMARK    4  A    between atoms: N_8  and  C_17 
REMARK    5  A    between atoms: C_14  and  N_9 
REMARK       I    between atoms: N_9  and  C_25 
REMARK    6  A    between atoms: C_13  and  C_15 
REMARK    7  A    between atoms: C_14  and  C_16 
REMARK    8  A    between atoms: C_14  and  C_29 
REMARK    9  A    between atoms: C_16  and  C_21 
REMARK   10  A    between atoms: C_21  and  C_32 
REMARK   11  A    between atoms: C_23  and  C_25 
ROOT
HETATM    1  S   UNK N   1      29.172  22.429  -7.676  0.00  0.00    -0.067 SA
HETATM    2  C   UNK N   1      28.116  21.255  -8.180  0.00  0.00     0.072 A 
HETATM    3  C   UNK N   1      30.268  21.455  -6.906  0.00  0.00     0.074 A 
HETATM    4  C   UNK N   1      28.624  20.015  -7.779  0.00  0.00     0.038 A 
HETATM    5  C   UNK N   1      29.839  20.131  -7.052  0.00  0.00     0.027 A 
ENDROOT
BRANCH   2   6
HETATM    6  N   UNK N   1      26.813  21.477  -8.688  0.00  0.00    -0.375 N 
HETATM    7  C   UNK N   1      26.626  21.791 -10.084  0.00  0.00     0.150 C 
BRANCH   6   8
HETATM    8  C   UNK N   1      25.732  21.730  -7.761  0.00  0.00     0.161 C 
BRANCH   8   9
HETATM    9  C   UNK N   1      25.802  23.105  -7.215  0.00  0.00    -0.039 A 
HETATM   10  C   UNK N   1      25.999  23.317  -5.848  0.00  0.00     0.028 A 
HETATM   11  C   UNK N   1      26.028  24.623  -5.347  0.00  0.00     0.059 A 
HETATM   12  C   UNK N   1      25.852  25.713  -6.224  0.00  0.00     0.049 A 
HETATM   13  C   UNK N   1      26.221  24.889  -3.988  0.00  0.00     0.259 A 
HETATM   14  N   UNK N   1      25.859  26.980  -5.739  0.00  0.00    -0.345 N 
HETATM   15  C   UNK N   1      25.668  25.491  -7.590  0.00  0.00     0.031 A 
HETATM   16  C   UNK N   1      26.036  27.220  -4.413  0.00  0.00     0.080 A 
HETATM   17  H   UNK N   1      25.733  27.736  -6.356  0.00  0.00     0.167 HD
HETATM   18  N   UNK N   1      26.220  26.186  -3.547  0.00  0.00    -0.313 N 
HETATM   19  C   UNK N   1      26.024  28.616  -3.908  0.00  0.00     0.089 C 
ATOM     20  HN  UNK N   1      26.358  26.380  -2.556  1.00  0.00     0.170 HD
HETATM   21  C   UNK N   1      25.647  24.188  -8.085  0.00  0.00     0.011 A 
HETATM   22  O   UNK N   1      26.387  23.980  -3.191  0.00  0.00    -0.267 OA
ENDBRANCH   8   9
ENDBRANCH   6   8
ENDBRANCH   2   6
BRANCH   3  23
HETATM   23  C   UNK N   1      31.288  21.908  -5.960  0.00  0.00     0.259 C 
HETATM   24  O   UNK N   1      32.234  22.577  -6.351  0.00  0.00    -0.267 OA
HETATM   25  N   UNK N   1      31.050  21.741  -4.632  0.00  0.00    -0.342 N 
HETATM   26  H   UNK N   1      30.309  21.149  -4.372  0.00  0.00     0.163 HD
BRANCH  25  27
HETATM   27  C   UNK N   1      31.810  22.374  -3.568  0.00  0.00     0.183 C 
BRANCH  27  28
HETATM   28  C   UNK N   1      32.564  21.334  -2.732  0.00  0.00     0.046 C 
BRANCH  28  29
HETATM   29  C   UNK N   1      33.882  20.955  -3.392  0.00  0.00     0.112 C 
BRANCH  29  30
HETATM   30  C   UNK N   1      33.817  19.560  -3.919  0.00  0.00     0.139 C 
HETATM   31  O   UNK N   1      34.846  18.950  -4.164  0.00  0.00    -0.650 OA
BRANCH  30  32
HETATM   32  O   UNK N   1      32.624  18.962  -4.099  0.00  0.00    -0.776 OA
HETATM   33  H   UNK N   1      31.911  19.151  -3.522  0.00  0.00     0.167 HD
ENDBRANCH  30  32
ENDBRANCH  29  30
ENDBRANCH  28  29
ENDBRANCH  27  28
BRANCH  27  34
HETATM   34  C   UNK N   1      30.985  23.289  -2.714  0.00  0.00     0.163 C 
HETATM   35  O   UNK N   1      30.737  24.428  -3.072  0.00  0.00    -0.648 OA
BRANCH  34  36
HETATM   36  O   UNK N   1      30.554  22.859  -1.513  0.00  0.00    -0.775 OA
HETATM   37  H   UNK N   1      29.702  23.104  -1.205  0.00  0.00     0.167 HD
ENDBRANCH  34  36
ENDBRANCH  27  34
ENDBRANCH  25  27
ENDBRANCH   3  23
TORSDOF 11
ENDMDL
MODEL 5
REMARK VINA RESULT:      -7.7      9.544     14.157
REMARK  11 active torsions:
REMARK  status: ('A' for Active; 'I' for Inactive)
REMARK    1  A    between atoms: O_2  and  C_29 
REMARK    2  A    between atoms: O_6  and  C_32 
REMARK    3  A    between atoms: N_8  and  C_13 
REMARK    4  A    between atoms: N_8  and  C_17 
REMARK    5  A    between atoms: C_14  and  N_9 
REMARK       I    between atoms: N_9  and  C_25 
REMARK    6  A    between atoms: C_13  and  C_15 
REMARK    7  A    between atoms: C_14  and  C_16 
REMARK    8  A    between atoms: C_14  and  C_29 
REMARK    9  A    between atoms: C_16  and  C_21 
REMARK   10  A    between atoms: C_21  and  C_32 
REMARK   11  A    between atoms: C_23  and  C_25 
ROOT
HETATM    1  S   UNK N   1      34.627  14.106  11.642  0.00  0.00    -0.067 SA
HETATM    2  C   UNK N   1      35.895  13.085  11.952  0.00  0.00     0.072 A 
HETATM    3  C   UNK N   1      35.404  15.155  10.624  0.00  0.00     0.074 A 
HETATM    4  C   UNK N   1      36.997  13.527  11.213  0.00  0.00     0.038 A 
HETATM    5  C   UNK N   1      36.719  14.703  10.466  0.00  0.00     0.027 A 
ENDROOT
BRANCH   2   6
HETATM    6  N   UNK N   1      35.937  12.105  12.974  0.00  0.00    -0.375 N 
HETATM    7  C   UNK N   1      37.156  11.374  13.222  0.00  0.00     0.150 C 
BRANCH   6   8
HETATM    8  C   UNK N   1      34.695  11.604  13.518  0.00  0.00     0.161 C 
BRANCH   8   9
HETATM    9  C   UNK N   1      34.863  11.156  14.919  0.00  0.00    -0.039 A 
HETATM   10  C   UNK N   1      34.963  12.088  15.955  0.00  0.00     0.028 A 
HETATM   11  C   UNK N   1      35.155  11.645  17.269  0.00  0.00     0.059 A 
HETATM   12  C   UNK N   1      35.253  10.264  17.535  0.00  0.00     0.049 A 
HETATM   13  C   UNK N   1      35.262  12.537  18.341  0.00  0.00     0.259 A 
HETATM   14  N   UNK N   1      35.460   9.831  18.803  0.00  0.00    -0.345 N 
HETATM   15  C   UNK N   1      35.139   9.340  16.493  0.00  0.00     0.031 A 
HETATM   16  C   UNK N   1      35.573  10.712  19.832  0.00  0.00     0.080 A 
HETATM   17  H   UNK N   1      35.529   8.865  18.982  0.00  0.00     0.167 HD
HETATM   18  N   UNK N   1      35.471  12.050  19.605  0.00  0.00    -0.313 N 
HETATM   19  C   UNK N   1      35.815  10.211  21.209  0.00  0.00     0.089 C 
ATOM     20  HN  UNK N   1      35.552  12.700  20.386  1.00  0.00     0.170 HD
HETATM   21  C   UNK N   1      34.941   9.787  15.188  0.00  0.00     0.011 A 
HETATM   22  O   UNK N   1      35.175  13.740  18.163  0.00  0.00    -0.267 OA
ENDBRANCH   8   9
ENDBRANCH   6   8
ENDBRANCH   2   6
BRANCH   3  23
HETATM   23  C   UNK N   1      34.922  16.484  10.245  0.00  0.00     0.259 C 
HETATM   24  O   UNK N   1      35.594  17.475  10.494  0.00  0.00    -0.267 OA
HETATM   25  N   UNK N   1      33.826  16.565   9.443  0.00  0.00    -0.342 N 
HETATM   26  H   UNK N   1      33.290  15.749   9.320  0.00  0.00     0.163 HD
BRANCH  25  27
HETATM   27  C   UNK N   1      33.390  17.768   8.755  0.00  0.00     0.183 C 
BRANCH  27  28
HETATM   28  C   UNK N   1      32.075  17.530   8.007  0.00  0.00     0.046 C 
BRANCH  28  29
HETATM   29  C   UNK N   1      31.112  16.702   8.845  0.00  0.00     0.112 C 
BRANCH  29  30
HETATM   30  C   UNK N   1      29.876  17.485   9.142  0.00  0.00     0.139 C 
HETATM   31  O   UNK N   1      28.872  17.323   8.466  0.00  0.00    -0.650 OA
BRANCH  30  32
HETATM   32  O   UNK N   1      29.857  18.351  10.172  0.00  0.00    -0.776 OA
HETATM   33  H   UNK N   1      29.108  18.897  10.316  0.00  0.00     0.167 HD
ENDBRANCH  30  32
ENDBRANCH  29  30
ENDBRANCH  28  29
ENDBRANCH  27  28
BRANCH  27  34
HETATM   34  C   UNK N   1      34.444  18.355   7.865  0.00  0.00     0.163 C 
HETATM   35  O   UNK N   1      34.571  17.980   6.711  0.00  0.00    -0.648 OA
BRANCH  34  36
HETATM   36  O   UNK N   1      35.292  19.274   8.364  0.00  0.00    -0.775 OA
HETATM   37  H   UNK N   1      35.251  20.161   8.066  0.00  0.00     0.167 HD
ENDBRANCH  34  36
ENDBRANCH  27  34
ENDBRANCH  25  27
ENDBRANCH   3  23
TORSDOF 11
ENDMDL
MODEL 6
REMARK VINA RESULT:      -7.6      1.690      2.105
REMARK  11 active torsions:
REMARK  status: ('A' for Active; 'I' for Inactive)
REMARK    1  A    between atoms: O_2  and  C_29 
REMARK    2  A    between atoms: O_6  and  C_32 
REMARK    3  A    between atoms: N_8  and  C_13 
REMARK    4  A    between atoms: N_8  and  C_17 
REMARK    5  A    between atoms: C_14  and  N_9 
REMARK       I    between atoms: N_9  and  C_25 
REMARK    6  A    between atoms: C_13  and  C_15 
REMARK    7  A    between atoms: C_14  and  C_16 
REMARK    8  A    between atoms: C_14  and  C_29 
REMARK    9  A    between atoms: C_16  and  C_21 
REMARK   10  A    between atoms: C_21  and  C_32 
REMARK   11  A    between atoms: C_23  and  C_25 
ROOT
HETATM    1  S   UNK N   1      24.622  19.059   4.754  0.00  0.00    -0.067 SA
HETATM    2  C   UNK N   1      26.272  19.179   4.653  0.00  0.00     0.072 A 
HETATM    3  C   UNK N   1      24.231  19.973   3.431  0.00  0.00     0.074 A 
HETATM    4  C   UNK N   1      26.582  19.936   3.518  0.00  0.00     0.038 A 
HETATM    5  C   UNK N   1      25.425  20.390   2.831  0.00  0.00     0.027 A 
ENDROOT
BRANCH   2   6
HETATM    6  N   UNK N   1      27.192  18.813   5.666  0.00  0.00    -0.375 N 
HETATM    7  C   UNK N   1      27.795  19.828   6.495  0.00  0.00     0.150 C 
BRANCH   6   8
HETATM    8  C   UNK N   1      27.778  17.491   5.637  0.00  0.00     0.161 C 
BRANCH   8   9
HETATM    9  C   UNK N   1      28.977  17.415   6.504  0.00  0.00    -0.039 A 
HETATM   10  C   UNK N   1      30.258  17.426   5.946  0.00  0.00     0.028 A 
HETATM   11  C   UNK N   1      31.377  17.319   6.779  0.00  0.00     0.059 A 
HETATM   12  C   UNK N   1      31.203  17.195   8.173  0.00  0.00     0.049 A 
HETATM   13  C   UNK N   1      32.680  17.325   6.271  0.00  0.00     0.259 A 
HETATM   14  N   UNK N   1      32.284  17.069   8.982  0.00  0.00    -0.345 N 
HETATM   15  C   UNK N   1      29.919  17.197   8.721  0.00  0.00     0.031 A 
HETATM   16  C   UNK N   1      33.543  17.065   8.470  0.00  0.00     0.080 A 
HETATM   17  H   UNK N   1      32.155  16.981   9.954  0.00  0.00     0.167 HD
HETATM   18  N   UNK N   1      33.740  17.196   7.130  0.00  0.00    -0.313 N 
HETATM   19  C   UNK N   1      34.708  16.912   9.378  0.00  0.00     0.089 C 
ATOM     20  HN  UNK N   1      34.689  17.198   6.759  1.00  0.00     0.170 HD
HETATM   21  C   UNK N   1      28.808  17.310   7.887  0.00  0.00     0.011 A 
HETATM   22  O   UNK N   1      32.883  17.440   5.073  0.00  0.00    -0.267 OA
ENDBRANCH   8   9
ENDBRANCH   6   8
ENDBRANCH   2   6
BRANCH   3  23
HETATM   23  C   UNK N   1      22.909  20.532   3.145  0.00  0.00     0.259 C 
HETATM   24  O   UNK N   1      22.788  21.719   2.877  0.00  0.00    -0.267 OA
HETATM   25  N   UNK N   1      21.869  19.670   2.990  0.00  0.00    -0.342 N 
HETATM   26  H   UNK N   1      22.003  18.737   3.272  0.00  0.00     0.163 HD
BRANCH  25  27
HETATM   27  C   UNK N   1      20.573  20.026   2.436  0.00  0.00     0.183 C 
BRANCH  27  28
HETATM   28  C   UNK N   1      19.619  18.828   2.449  0.00  0.00     0.046 C 
BRANCH  28  29
HETATM   29  C   UNK N   1      20.384  17.522   2.610  0.00  0.00     0.112 C 
BRANCH  29  30
HETATM   30  C   UNK N   1      20.133  16.936   3.960  0.00  0.00     0.139 C 
HETATM   31  O   UNK N   1      19.492  15.902   4.069  0.00  0.00    -0.650 OA
BRANCH  30  32
HETATM   32  O   UNK N   1      20.637  17.531   5.058  0.00  0.00    -0.776 OA
HETATM   33  H   UNK N   1      21.239  18.243   4.973  0.00  0.00     0.167 HD
ENDBRANCH  30  32
ENDBRANCH  29  30
ENDBRANCH  28  29
ENDBRANCH  27  28
BRANCH  27  34
HETATM   34  C   UNK N   1      20.663  20.658   1.080  0.00  0.00     0.163 C 
HETATM   35  O   UNK N   1      20.862  19.981   0.084  0.00  0.00    -0.648 OA
BRANCH  34  36
HETATM   36  O   UNK N   1      20.572  21.997   0.968  0.00  0.00    -0.775 OA
HETATM   37  H   UNK N   1      21.297  22.538   1.214  0.00  0.00     0.167 HD
ENDBRANCH  34  36
ENDBRANCH  27  34
ENDBRANCH  25  27
ENDBRANCH   3  23
TORSDOF 11
ENDMDL
MODEL 7
REMARK VINA RESULT:      -7.5      8.106     14.622
REMARK  11 active torsions:
REMARK  status: ('A' for Active; 'I' for Inactive)
REMARK    1  A    between atoms: O_2  and  C_29 
REMARK    2  A    between atoms: O_6  and  C_32 
REMARK    3  A    between atoms: N_8  and  C_13 
REMARK    4  A    between atoms: N_8  and  C_17 
REMARK    5  A    between atoms: C_14  and  N_9 
REMARK       I    between atoms: N_9  and  C_25 
REMARK    6  A    between atoms: C_13  and  C_15 
REMARK    7  A    between atoms: C_14  and  C_16 
REMARK    8  A    between atoms: C_14  and  C_29 
REMARK    9  A    between atoms: C_16  and  C_21 
REMARK   10  A    between atoms: C_21  and  C_32 
REMARK   11  A    between atoms: C_23  and  C_25 
ROOT
HETATM    1  S   UNK N   1      34.332  14.060   9.781  0.00  0.00    -0.067 SA
HETATM    2  C   UNK N   1      34.611  15.562   9.138  0.00  0.00     0.072 A 
HETATM    3  C   UNK N   1      34.743  14.388  11.350  0.00  0.00     0.074 A 
HETATM    4  C   UNK N   1      35.014  16.409  10.176  0.00  0.00     0.038 A 
HETATM    5  C   UNK N   1      35.094  15.741  11.427  0.00  0.00     0.027 A 
ENDROOT
BRANCH   2   6
HETATM    6  N   UNK N   1      34.686  15.870   7.757  0.00  0.00    -0.375 N 
HETATM    7  C   UNK N   1      35.316  14.947   6.845  0.00  0.00     0.150 C 
BRANCH   6   8
HETATM    8  C   UNK N   1      34.450  17.231   7.328  0.00  0.00     0.161 C 
BRANCH   8   9
HETATM    9  C   UNK N   1      33.227  17.330   6.499  0.00  0.00    -0.039 A 
HETATM   10  C   UNK N   1      31.963  17.224   7.083  0.00  0.00     0.028 A 
HETATM   11  C   UNK N   1      30.820  17.286   6.278  0.00  0.00     0.059 A 
HETATM   12  C   UNK N   1      30.954  17.448   4.884  0.00  0.00     0.049 A 
HETATM   13  C   UNK N   1      29.532  17.184   6.813  0.00  0.00     0.259 A 
HETATM   14  N   UNK N   1      29.850  17.487   4.097  0.00  0.00    -0.345 N 
HETATM   15  C   UNK N   1      32.223  17.565   4.311  0.00  0.00     0.031 A 
HETATM   16  C   UNK N   1      28.606  17.376   4.632  0.00  0.00     0.080 A 
HETATM   17  H   UNK N   1      29.951  17.599   3.124  0.00  0.00     0.167 HD
HETATM   18  N   UNK N   1      28.448  17.231   5.976  0.00  0.00    -0.313 N 
HETATM   19  C   UNK N   1      27.416  17.407   3.746  0.00  0.00     0.089 C 
ATOM     20  HN  UNK N   1      27.509  17.154   6.366  1.00  0.00     0.170 HD
HETATM   21  C   UNK N   1      33.357  17.509   5.119  0.00  0.00     0.011 A 
HETATM   22  O   UNK N   1      29.363  17.053   8.014  0.00  0.00    -0.267 OA
ENDBRANCH   8   9
ENDBRANCH   6   8
ENDBRANCH   2   6
BRANCH   3  23
HETATM   23  C   UNK N   1      35.025  13.388  12.381  0.00  0.00     0.259 C 
HETATM   24  O   UNK N   1      35.407  12.270  12.064  0.00  0.00    -0.267 OA
HETATM   25  N   UNK N   1      35.046  13.792  13.679  0.00  0.00    -0.342 N 
HETATM   26  H   UNK N   1      34.677  14.680  13.886  0.00  0.00     0.163 HD
BRANCH  25  27
HETATM   27  C   UNK N   1      35.576  13.010  14.782  0.00  0.00     0.183 C 
BRANCH  27  28
HETATM   28  C   UNK N   1      34.679  13.120  16.019  0.00  0.00     0.046 C 
BRANCH  28  29
HETATM   29  C   UNK N   1      35.365  12.532  17.245  0.00  0.00     0.112 C 
BRANCH  29  30
HETATM   30  C   UNK N   1      35.362  13.520  18.364  0.00  0.00     0.139 C 
HETATM   31  O   UNK N   1      35.020  13.174  19.484  0.00  0.00    -0.650 OA
BRANCH  30  32
HETATM   32  O   UNK N   1      35.764  14.787  18.148  0.00  0.00    -0.776 OA
HETATM   33  H   UNK N   1      35.228  15.372  17.649  0.00  0.00     0.167 HD
ENDBRANCH  30  32
ENDBRANCH  29  30
ENDBRANCH  28  29
ENDBRANCH  27  28
BRANCH  27  34
HETATM   34  C   UNK N   1      37.008  13.324  15.097  0.00  0.00     0.163 C 
HETATM   35  O   UNK N   1      37.325  14.406  15.564  0.00  0.00    -0.648 OA
BRANCH  34  36
HETATM   36  O   UNK N   1      37.960  12.416  14.813  0.00  0.00    -0.775 OA
HETATM   37  H   UNK N   1      38.514  12.535  14.066  0.00  0.00     0.167 HD
ENDBRANCH  34  36
ENDBRANCH  27  34
ENDBRANCH  25  27
ENDBRANCH   3  23
TORSDOF 11
ENDMDL
MODEL 8
REMARK VINA RESULT:      -7.5      8.883     13.869
REMARK  11 active torsions:
REMARK  status: ('A' for Active; 'I' for Inactive)
REMARK    1  A    between atoms: O_2  and  C_29 
REMARK    2  A    between atoms: O_6  and  C_32 
REMARK    3  A    between atoms: N_8  and  C_13 
REMARK    4  A    between atoms: N_8  and  C_17 
REMARK    5  A    between atoms: C_14  and  N_9 
REMARK       I    between atoms: N_9  and  C_25 
REMARK    6  A    between atoms: C_13  and  C_15 
REMARK    7  A    between atoms: C_14  and  C_16 
REMARK    8  A    between atoms: C_14  and  C_29 
REMARK    9  A    between atoms: C_16  and  C_21 
REMARK   10  A    between atoms: C_21  and  C_32 
REMARK   11  A    between atoms: C_23  and  C_25 
ROOT
HETATM    1  S   UNK N   1      35.062  13.432  10.557  0.00  0.00    -0.067 SA
HETATM    2  C   UNK N   1      36.448  12.590  10.901  0.00  0.00     0.072 A 
HETATM    3  C   UNK N   1      35.756  14.863  10.099  0.00  0.00     0.074 A 
HETATM    4  C   UNK N   1      37.539  13.420  10.625  0.00  0.00     0.038 A 
HETATM    5  C   UNK N   1      37.145  14.710  10.177  0.00  0.00     0.027 A 
ENDROOT
BRANCH   2   6
HETATM    6  N   UNK N   1      36.516  11.357  11.596  0.00  0.00    -0.375 N 
HETATM    7  C   UNK N   1      35.337  10.535  11.724  0.00  0.00     0.150 C 
BRANCH   6   8
HETATM    8  C   UNK N   1      37.650  11.096  12.454  0.00  0.00     0.161 C 
BRANCH   8   9
HETATM    9  C   UNK N   1      37.227  10.898  13.860  0.00  0.00    -0.039 A 
HETATM   10  C   UNK N   1      36.530  11.901  14.539  0.00  0.00     0.028 A 
HETATM   11  C   UNK N   1      36.169  11.708  15.877  0.00  0.00     0.059 A 
HETATM   12  C   UNK N   1      36.515  10.507  16.530  0.00  0.00     0.049 A 
HETATM   13  C   UNK N   1      35.472  12.680  16.602  0.00  0.00     0.259 A 
HETATM   14  N   UNK N   1      36.185  10.324  17.833  0.00  0.00    -0.345 N 
HETATM   15  C   UNK N   1      37.201   9.506  15.838  0.00  0.00     0.031 A 
HETATM   16  C   UNK N   1      35.518  11.284  18.526  0.00  0.00     0.080 A 
HETATM   17  H   UNK N   1      36.432   9.484  18.283  0.00  0.00     0.167 HD
HETATM   18  N   UNK N   1      35.161  12.447  17.916  0.00  0.00    -0.313 N 
HETATM   19  C   UNK N   1      35.182  11.063  19.955  0.00  0.00     0.089 C 
ATOM     20  HN  UNK N   1      34.655  13.157  18.445  1.00  0.00     0.170 HD
HETATM   21  C   UNK N   1      37.552   9.701  14.503  0.00  0.00     0.011 A 
HETATM   22  O   UNK N   1      35.141  13.731  16.080  0.00  0.00    -0.267 OA
ENDBRANCH   8   9
ENDBRANCH   6   8
ENDBRANCH   2   6
BRANCH   3  23
HETATM   23  C   UNK N   1      35.059  16.145   9.980  0.00  0.00     0.259 C 
HETATM   24  O   UNK N   1      35.526  17.149  10.499  0.00  0.00    -0.267 OA
HETATM   25  N   UNK N   1      34.008  16.225   9.121  0.00  0.00    -0.342 N 
HETATM   26  H   UNK N   1      33.636  15.383   8.774  0.00  0.00     0.163 HD
BRANCH  25  27
HETATM   27  C   UNK N   1      33.394  17.465   8.677  0.00  0.00     0.183 C 
BRANCH  27  28
HETATM   28  C   UNK N   1      32.046  17.202   7.999  0.00  0.00     0.046 C 
BRANCH  28  29
HETATM   29  C   UNK N   1      30.965  16.905   9.029  0.00  0.00     0.112 C 
BRANCH  29  30
HETATM   30  C   UNK N   1      30.019  18.054   9.135  0.00  0.00     0.139 C 
HETATM   31  O   UNK N   1      29.435  18.460   8.143  0.00  0.00    -0.650 OA
BRANCH  30  32
HETATM   32  O   UNK N   1      29.786  18.628  10.331  0.00  0.00    -0.776 OA
HETATM   33  H   UNK N   1      30.031  18.187  11.121  0.00  0.00     0.167 HD
ENDBRANCH  30  32
ENDBRANCH  29  30
ENDBRANCH  28  29
ENDBRANCH  27  28
BRANCH  27  34
HETATM   34  C   UNK N   1      34.298  18.300   7.822  0.00  0.00     0.163 C 
HETATM   35  O   UNK N   1      34.360  18.126   6.616  0.00  0.00    -0.648 OA
BRANCH  34  36
HETATM   36  O   UNK N   1      35.090  19.221   8.404  0.00  0.00    -0.775 OA
HETATM   37  H   UNK N   1      35.642  19.765   7.877  0.00  0.00     0.167 HD
ENDBRANCH  34  36
ENDBRANCH  27  34
ENDBRANCH  25  27
ENDBRANCH   3  23
TORSDOF 11
ENDMDL
MODEL 9
REMARK VINA RESULT:      -7.3      5.781      7.750
REMARK  11 active torsions:
REMARK  status: ('A' for Active; 'I' for Inactive)
REMARK    1  A    between atoms: O_2  and  C_29 
REMARK    2  A    between atoms: O_6  and  C_32 
REMARK    3  A    between atoms: N_8  and  C_13 
REMARK    4  A    between atoms: N_8  and  C_17 
REMARK    5  A    between atoms: C_14  and  N_9 
REMARK       I    between atoms: N_9  and  C_25 
REMARK    6  A    between atoms: C_13  and  C_15 
REMARK    7  A    between atoms: C_14  and  C_16 
REMARK    8  A    between atoms: C_14  and  C_29 
REMARK    9  A    between atoms: C_16  and  C_21 
REMARK   10  A    between atoms: C_21  and  C_32 
REMARK   11  A    between atoms: C_23  and  C_25 
ROOT
HETATM    1  S   UNK N   1      25.010  14.813   6.801  0.00  0.00    -0.067 SA
HETATM    2  C   UNK N   1      25.845  14.996   5.381  0.00  0.00     0.072 A 
HETATM    3  C   UNK N   1      25.076  13.162   6.909  0.00  0.00     0.074 A 
HETATM    4  C   UNK N   1      26.248  13.728   4.949  0.00  0.00     0.038 A 
HETATM    5  C   UNK N   1      25.806  12.690   5.813  0.00  0.00     0.027 A 
ENDROOT
BRANCH   2   6
HETATM    6  N   UNK N   1      25.912  16.181   4.607  0.00  0.00    -0.375 N 
HETATM    7  C   UNK N   1      25.913  16.103   3.167  0.00  0.00     0.150 C 
BRANCH   6   8
HETATM    8  C   UNK N   1      26.325  17.412   5.245  0.00  0.00     0.161 C 
BRANCH   8   9
HETATM    9  C   UNK N   1      27.724  17.328   5.722  0.00  0.00    -0.039 A 
HETATM   10  C   UNK N   1      28.041  17.632   7.049  0.00  0.00     0.028 A 
HETATM   11  C   UNK N   1      29.374  17.579   7.472  0.00  0.00     0.059 A 
HETATM   12  C   UNK N   1      30.386  17.227   6.556  0.00  0.00     0.049 A 
HETATM   13  C   UNK N   1      29.743  17.875   8.788  0.00  0.00     0.259 A 
HETATM   14  N   UNK N   1      31.681  17.195   6.957  0.00  0.00    -0.345 N 
HETATM   15  C   UNK N   1      30.057  16.912   5.235  0.00  0.00     0.031 A 
HETATM   16  C   UNK N   1      32.024  17.496   8.237  0.00  0.00     0.080 A 
HETATM   17  H   UNK N   1      32.383  16.949   6.311  0.00  0.00     0.167 HD
HETATM   18  N   UNK N   1      31.065  17.828   9.144  0.00  0.00    -0.313 N 
HETATM   19  C   UNK N   1      33.451  17.467   8.644  0.00  0.00     0.089 C 
ATOM     20  HN  UNK N   1      31.335  18.046  10.103  1.00  0.00     0.170 HD
HETATM   21  C   UNK N   1      28.727  16.960   4.821  0.00  0.00     0.011 A 
HETATM   22  O   UNK N   1      28.903  18.176   9.620  0.00  0.00    -0.267 OA
ENDBRANCH   8   9
ENDBRANCH   6   8
ENDBRANCH   2   6
BRANCH   3  23
HETATM   23  C   UNK N   1      24.239  12.335   7.780  0.00  0.00     0.259 C 
HETATM   24  O   UNK N   1      23.983  11.180   7.469  0.00  0.00    -0.267 OA
HETATM   25  N   UNK N   1      23.932  12.811   9.016  0.00  0.00    -0.342 N 
HETATM   26  H   UNK N   1      24.109  13.762   9.195  0.00  0.00     0.163 HD
BRANCH  25  27
HETATM   27  C   UNK N   1      23.361  12.018  10.091  0.00  0.00     0.183 C 
BRANCH  27  28
HETATM   28  C   UNK N   1      21.865  12.303  10.254  0.00  0.00     0.046 C 
BRANCH  28  29
HETATM   29  C   UNK N   1      21.562  13.778  10.031  0.00  0.00     0.112 C 
BRANCH  29  30
HETATM   30  C   UNK N   1      20.336  13.936   9.193  0.00  0.00     0.139 C 
HETATM   31  O   UNK N   1      19.318  14.402   9.680  0.00  0.00    -0.650 OA
BRANCH  30  32
HETATM   32  O   UNK N   1      20.360  13.591   7.892  0.00  0.00    -0.776 OA
HETATM   33  H   UNK N   1      20.368  14.253   7.229  0.00  0.00     0.167 HD
ENDBRANCH  30  32
ENDBRANCH  29  30
ENDBRANCH  28  29
ENDBRANCH  27  28
BRANCH  27  34
HETATM   34  C   UNK N   1      24.103  12.157  11.386  0.00  0.00     0.163 C 
HETATM   35  O   UNK N   1      23.548  11.949  12.453  0.00  0.00    -0.648 OA
BRANCH  34  36
HETATM   36  O   UNK N   1      25.386  12.565  11.371  0.00  0.00    -0.775 OA
HETATM   37  H   UNK N   1      25.870  12.619  12.172  0.00  0.00     0.167 HD
ENDBRANCH  34  36
ENDBRANCH  27  34
ENDBRANCH  25  27
ENDBRANCH   3  23
TORSDOF 11
ENDMDL
