MODEL 1
REMARK VINA RESULT:      -6.9      0.000      0.000
REMARK  2 active torsions:
REMARK  status: ('A' for Active; 'I' for Inactive)
REMARK    1  A    between atoms: C_14  and  O_2 
REMARK    2  A    between atoms: O_3  and  C_20 
ROOT
HETATM    1  O   UNK N   1      32.078  16.142   9.429  0.00  0.00    -0.338 OA
HETATM    2  N   UNK N   1      32.459  15.064   4.350  0.00  0.00     0.089 N 
HETATM    3  C   UNK N   1      32.697  15.742   7.185  0.00  0.00     0.030 C 
HETATM    4  C   UNK N   1      33.541  16.473   6.134  0.00  0.00     0.057 C 
HETATM    5  C   UNK N   1      32.694  16.453   4.804  0.00  0.00     0.235 C 
HETATM    6  C   UNK N   1      33.200  15.768   8.678  0.00  0.00     0.175 C 
HETATM    7  C   UNK N   1      32.417  14.300   6.730  0.00  0.00     0.048 C 
HETATM    8  C   UNK N   1      31.426  16.474   7.342  0.00  0.00    -0.003 A 
HETATM    9  C   UNK N   1      31.297  17.149   4.942  0.00  0.00     0.075 C 
HETATM   10  C   UNK N   1      31.757  14.243   5.347  0.00  0.00     0.273 C 
HETATM   11  C   UNK N   1      30.689  17.055   6.324  0.00  0.00    -0.046 A 
HETATM   12  C   UNK N   1      34.360  16.788   8.823  0.00  0.00     0.171 C 
HETATM   13  C   UNK N   1      33.858  17.862   6.652  0.00  0.00    -0.020 C 
HETATM   14  C   UNK N   1      31.100  16.591   8.640  0.00  0.00     0.110 A 
HETATM   15  C   UNK N   1      34.230  18.010   7.940  0.00  0.00     0.004 C 
HETATM   16  C   UNK N   1      33.693  14.400   3.944  0.00  0.00     0.310 C 
HETATM   17  C   UNK N   1      29.480  17.689   6.662  0.00  0.00     0.011 A 
HETATM   18  C   UNK N   1      29.897  17.191   9.022  0.00  0.00     0.099 A 
HETATM   19  C   UNK N   1      29.063  17.719   8.015  0.00  0.00     0.040 A 
ENDROOT
BRANCH  12  20
HETATM   20  O   UNK N   1      34.587  17.138  10.154  0.00  0.00    -0.389 OA
HETATM   21  H   UNK N   1      35.258  16.667  10.673  0.00  0.00     0.210 HD
ENDBRANCH  12  20
BRANCH  18  22
HETATM   22  O   UNK N   1      29.552  17.282  10.317  0.00  0.00    -0.358 OA
HETATM   23  H   UNK N   1      29.825  18.013  10.836  0.00  0.00     0.217 HD
ENDBRANCH  18  22
TORSDOF 2
ENDMDL
MODEL 2
REMARK VINA RESULT:      -6.6      2.032      2.724
REMARK  2 active torsions:
REMARK  status: ('A' for Active; 'I' for Inactive)
REMARK    1  A    between atoms: C_14  and  O_2 
REMARK    2  A    between atoms: O_3  and  C_20 
ROOT
HETATM    1  O   UNK N   1      32.064  16.288   7.372  0.00  0.00    -0.338 OA
HETATM    2  N   UNK N   1      29.062  15.005   3.316  0.00  0.00     0.089 N 
HETATM    3  C   UNK N   1      31.096  15.711   5.297  0.00  0.00     0.030 C 
HETATM    4  C   UNK N   1      31.189  16.236   3.859  0.00  0.00     0.057 C 
HETATM    5  C   UNK N   1      29.706  16.338   3.334  0.00  0.00     0.235 C 
HETATM    6  C   UNK N   1      32.415  15.685   6.156  0.00  0.00     0.175 C 
HETATM    7  C   UNK N   1      30.409  14.335   5.312  0.00  0.00     0.048 C 
HETATM    8  C   UNK N   1      30.307  16.674   6.087  0.00  0.00    -0.003 A 
HETATM    9  C   UNK N   1      28.803  17.289   4.190  0.00  0.00     0.075 C 
HETATM   10  C   UNK N   1      29.033  14.362   4.638  0.00  0.00     0.273 C 
HETATM   11  C   UNK N   1      29.180  17.354   5.654  0.00  0.00    -0.046 A 
HETATM   12  C   UNK N   1      33.535  16.472   5.423  0.00  0.00     0.171 C 
HETATM   13  C   UNK N   1      31.937  17.556   3.877  0.00  0.00    -0.020 C 
HETATM   14  C   UNK N   1      30.876  16.890   7.284  0.00  0.00     0.110 A 
HETATM   15  C   UNK N   1      33.044  17.669   4.639  0.00  0.00     0.004 C 
HETATM   16  C   UNK N   1      29.677  14.107   2.345  0.00  0.00     0.310 C 
HETATM   17  C   UNK N   1      28.538  18.215   6.562  0.00  0.00     0.011 A 
HETATM   18  C   UNK N   1      30.262  17.719   8.227  0.00  0.00     0.099 A 
HETATM   19  C   UNK N   1      29.061  18.364   7.869  0.00  0.00     0.040 A 
ENDROOT
BRANCH  12  20
HETATM   20  O   UNK N   1      34.583  16.813   6.279  0.00  0.00    -0.389 OA
HETATM   21  H   UNK N   1      35.015  16.129   6.814  0.00  0.00     0.210 HD
ENDBRANCH  12  20
BRANCH  18  22
HETATM   22  O   UNK N   1      30.812  17.912   9.438  0.00  0.00    -0.358 OA
HETATM   23  H   UNK N   1      30.810  18.760   9.835  0.00  0.00     0.217 HD
ENDBRANCH  18  22
TORSDOF 2
ENDMDL
MODEL 3
REMARK VINA RESULT:      -6.5      2.045      4.314
REMARK  2 active torsions:
REMARK  status: ('A' for Active; 'I' for Inactive)
REMARK    1  A    between atoms: C_14  and  O_2 
REMARK    2  A    between atoms: O_3  and  C_20 
ROOT
HETATM    1  O   UNK N   1      34.714  17.117   6.157  0.00  0.00    -0.338 OA
HETATM    2  N   UNK N   1      29.808  16.352   4.587  0.00  0.00     0.089 N 
HETATM    3  C   UNK N   1      32.381  17.053   5.789  0.00  0.00     0.030 C 
HETATM    4  C   UNK N   1      31.138  16.853   6.665  0.00  0.00     0.057 C 
HETATM    5  C   UNK N   1      30.229  15.816   5.901  0.00  0.00     0.235 C 
HETATM    6  C   UNK N   1      33.571  17.897   6.385  0.00  0.00     0.175 C 
HETATM    7  C   UNK N   1      31.973  17.590   4.407  0.00  0.00     0.048 C 
HETATM    8  C   UNK N   1      33.054  15.750   5.642  0.00  0.00    -0.003 A 
HETATM    9  C   UNK N   1      30.929  14.437   5.648  0.00  0.00     0.075 C 
HETATM   10  C   UNK N   1      30.942  16.692   3.714  0.00  0.00     0.273 C 
HETATM   11  C   UNK N   1      32.430  14.525   5.473  0.00  0.00    -0.046 A 
HETATM   12  C   UNK N   1      33.333  18.144   7.899  0.00  0.00     0.171 C 
HETATM   13  C   UNK N   1      31.587  16.397   8.040  0.00  0.00    -0.020 C 
HETATM   14  C   UNK N   1      34.383  15.879   5.784  0.00  0.00     0.110 A 
HETATM   15  C   UNK N   1      32.645  17.002   8.616  0.00  0.00     0.004 C 
HETATM   16  C   UNK N   1      28.925  17.505   4.719  0.00  0.00     0.310 C 
HETATM   17  C   UNK N   1      33.239  13.385   5.319  0.00  0.00     0.011 A 
HETATM   18  C   UNK N   1      35.229  14.779   5.616  0.00  0.00     0.099 A 
HETATM   19  C   UNK N   1      34.648  13.523   5.350  0.00  0.00     0.040 A 
ENDROOT
BRANCH  12  20
HETATM   20  O   UNK N   1      34.499  18.536   8.556  0.00  0.00    -0.389 OA
HETATM   21  H   UNK N   1      35.241  17.917   8.639  0.00  0.00     0.210 HD
ENDBRANCH  12  20
BRANCH  18  22
HETATM   22  O   UNK N   1      36.562  14.912   5.725  0.00  0.00    -0.358 OA
HETATM   23  H   UNK N   1      37.112  14.159   5.817  0.00  0.00     0.217 HD
ENDBRANCH  18  22
TORSDOF 2
ENDMDL
MODEL 4
REMARK VINA RESULT:      -6.4      2.711      4.327
REMARK  2 active torsions:
REMARK  status: ('A' for Active; 'I' for Inactive)
REMARK    1  A    between atoms: C_14  and  O_2 
REMARK    2  A    between atoms: O_3  and  C_20 
ROOT
HETATM    1  O   UNK N   1      31.650  16.895   4.086  0.00  0.00    -0.338 OA
HETATM    2  N   UNK N   1      33.507  17.114   8.946  0.00  0.00     0.089 N 
HETATM    3  C   UNK N   1      32.716  16.610   6.175  0.00  0.00     0.030 C 
HETATM    4  C   UNK N   1      32.917  15.447   7.154  0.00  0.00     0.057 C 
HETATM    5  C   UNK N   1      32.581  16.017   8.585  0.00  0.00     0.235 C 
HETATM    6  C   UNK N   1      32.793  16.295   4.634  0.00  0.00     0.175 C 
HETATM    7  C   UNK N   1      33.652  17.775   6.540  0.00  0.00     0.048 C 
HETATM    8  C   UNK N   1      31.311  17.048   6.266  0.00  0.00    -0.003 A 
HETATM    9  C   UNK N   1      31.120  16.571   8.710  0.00  0.00     0.075 C 
HETATM   10  C   UNK N   1      33.476  18.232   7.992  0.00  0.00     0.273 C 
HETATM   11  C   UNK N   1      30.560  17.144   7.426  0.00  0.00    -0.046 A 
HETATM   12  C   UNK N   1      32.801  14.759   4.412  0.00  0.00     0.171 C 
HETATM   13  C   UNK N   1      32.035  14.293   6.717  0.00  0.00    -0.020 C 
HETATM   14  C   UNK N   1      30.799  17.268   5.044  0.00  0.00     0.110 A 
HETATM   15  C   UNK N   1      31.968  13.980   5.408  0.00  0.00     0.004 C 
HETATM   16  C   UNK N   1      34.879  16.645   9.111  0.00  0.00     0.310 C 
HETATM   17  C   UNK N   1      29.238  17.612   7.322  0.00  0.00     0.011 A 
HETATM   18  C   UNK N   1      29.498  17.756   4.892  0.00  0.00     0.099 A 
HETATM   19  C   UNK N   1      28.721  17.959   6.050  0.00  0.00     0.040 A 
ENDROOT
BRANCH  12  20
HETATM   20  O   UNK N   1      32.484  14.417   3.098  0.00  0.00    -0.389 OA
HETATM   21  H   UNK N   1      32.084  13.554   2.903  0.00  0.00     0.210 HD
ENDBRANCH  12  20
BRANCH  18  22
HETATM   22  O   UNK N   1      28.994  18.007   3.672  0.00  0.00    -0.358 OA
HETATM   23  H   UNK N   1      29.337  18.701   3.145  0.00  0.00     0.217 HD
ENDBRANCH  18  22
TORSDOF 2
ENDMDL
MODEL 5
REMARK VINA RESULT:      -6.3      2.449      4.282
REMARK  2 active torsions:
REMARK  status: ('A' for Active; 'I' for Inactive)
REMARK    1  A    between atoms: C_14  and  O_2 
REMARK    2  A    between atoms: O_3  and  C_20 
ROOT
HETATM    1  O   UNK N   1      29.644  16.337   6.042  0.00  0.00    -0.338 OA
HETATM    2  N   UNK N   1      34.074  15.703   8.704  0.00  0.00     0.089 N 
HETATM    3  C   UNK N   1      31.403  16.183   7.610  0.00  0.00     0.030 C 
HETATM    4  C   UNK N   1      31.968  17.082   8.717  0.00  0.00     0.057 C 
HETATM    5  C   UNK N   1      33.534  17.070   8.533  0.00  0.00     0.235 C 
HETATM    6  C   UNK N   1      29.840  16.149   7.418  0.00  0.00     0.175 C 
HETATM    7  C   UNK N   1      31.965  14.758   7.750  0.00  0.00     0.048 C 
HETATM    8  C   UNK N   1      31.799  16.753   6.310  0.00  0.00    -0.003 A 
HETATM    9  C   UNK N   1      34.002  17.593   7.132  0.00  0.00     0.075 C 
HETATM   10  C   UNK N   1      33.498  14.734   7.760  0.00  0.00     0.273 C 
HETATM   11  C   UNK N   1      33.024  17.326   6.009  0.00  0.00    -0.046 A 
HETATM   12  C   UNK N   1      29.184  17.279   8.255  0.00  0.00     0.171 C 
HETATM   13  C   UNK N   1      31.334  18.454   8.592  0.00  0.00    -0.020 C 
HETATM   14  C   UNK N   1      30.771  16.733   5.446  0.00  0.00     0.110 A 
HETATM   15  C   UNK N   1      30.010  18.543   8.353  0.00  0.00     0.004 C 
HETATM   16  C   UNK N   1      33.916  15.214  10.069  0.00  0.00     0.310 C 
HETATM   17  C   UNK N   1      33.233  17.792   4.699  0.00  0.00     0.011 A 
HETATM   18  C   UNK N   1      30.937  17.164   4.127  0.00  0.00     0.099 A 
HETATM   19  C   UNK N   1      32.195  17.671   3.743  0.00  0.00     0.040 A 
ENDROOT
BRANCH  12  20
HETATM   20  O   UNK N   1      27.879  17.549   7.840  0.00  0.00    -0.389 OA
HETATM   21  H   UNK N   1      27.435  18.360   8.131  0.00  0.00     0.210 HD
ENDBRANCH  12  20
BRANCH  18  22
HETATM   22  O   UNK N   1      29.919  17.115   3.252  0.00  0.00    -0.358 OA
HETATM   23  H   UNK N   1      29.856  17.738   2.555  0.00  0.00     0.217 HD
ENDBRANCH  18  22
TORSDOF 2
ENDMDL
MODEL 6
REMARK VINA RESULT:      -6.3     15.673     17.430
REMARK  2 active torsions:
REMARK  status: ('A' for Active; 'I' for Inactive)
REMARK    1  A    between atoms: C_14  and  O_2 
REMARK    2  A    between atoms: O_3  and  C_20 
ROOT
HETATM    1  O   UNK N   1      25.698  26.230  -4.350  0.00  0.00    -0.338 OA
HETATM    2  N   UNK N   1      27.537  25.575  -9.177  0.00  0.00     0.089 N 
HETATM    3  C   UNK N   1      26.662  25.521  -6.386  0.00  0.00     0.030 C 
HETATM    4  C   UNK N   1      27.985  24.867  -6.804  0.00  0.00     0.057 C 
HETATM    5  C   UNK N   1      28.497  25.677  -8.056  0.00  0.00     0.235 C 
HETATM    6  C   UNK N   1      26.003  25.046  -5.037  0.00  0.00     0.175 C 
HETATM    7  C   UNK N   1      25.650  25.449  -7.542  0.00  0.00     0.048 C 
HETATM    8  C   UNK N   1      26.935  26.929  -6.044  0.00  0.00    -0.003 A 
HETATM    9  C   UNK N   1      28.725  27.200  -7.764  0.00  0.00     0.075 C 
HETATM   10  C   UNK N   1      26.195  26.069  -8.834  0.00  0.00     0.273 C 
HETATM   11  C   UNK N   1      27.804  27.777  -6.712  0.00  0.00    -0.046 A 
HETATM   12  C   UNK N   1      27.002  24.161  -4.247  0.00  0.00     0.171 C 
HETATM   13  C   UNK N   1      28.929  24.889  -5.616  0.00  0.00    -0.020 C 
HETATM   14  C   UNK N   1      26.289  27.282  -4.921  0.00  0.00     0.110 A 
HETATM   15  C   UNK N   1      28.452  24.570  -4.396  0.00  0.00     0.004 C 
HETATM   16  C   UNK N   1      27.443  24.217  -9.701  0.00  0.00     0.310 C 
HETATM   17  C   UNK N   1      27.913  29.103  -6.258  0.00  0.00     0.011 A 
HETATM   18  C   UNK N   1      26.348  28.594  -4.446  0.00  0.00     0.099 A 
HETATM   19  C   UNK N   1      27.147  29.523  -5.143  0.00  0.00     0.040 A 
ENDROOT
BRANCH  12  20
HETATM   20  O   UNK N   1      26.641  24.031  -2.905  0.00  0.00    -0.389 OA
HETATM   21  H   UNK N   1      27.308  24.138  -2.210  0.00  0.00     0.210 HD
ENDBRANCH  12  20
BRANCH  18  22
HETATM   22  O   UNK N   1      25.677  28.959  -3.340  0.00  0.00    -0.358 OA
HETATM   23  H   UNK N   1      25.434  29.852  -3.200  0.00  0.00     0.217 HD
ENDBRANCH  18  22
TORSDOF 2
ENDMDL
MODEL 7
REMARK VINA RESULT:      -6.2      2.199      3.500
REMARK  2 active torsions:
REMARK  status: ('A' for Active; 'I' for Inactive)
REMARK    1  A    between atoms: C_14  and  O_2 
REMARK    2  A    between atoms: O_3  and  C_20 
ROOT
HETATM    1  O   UNK N   1      30.674  16.928   6.656  0.00  0.00    -0.338 OA
HETATM    2  N   UNK N   1      34.705  13.640   6.876  0.00  0.00     0.089 N 
HETATM    3  C   UNK N   1      32.586  15.636   7.161  0.00  0.00     0.030 C 
HETATM    4  C   UNK N   1      34.006  15.928   7.660  0.00  0.00     0.057 C 
HETATM    5  C   UNK N   1      34.973  15.089   6.739  0.00  0.00     0.235 C 
HETATM    6  C   UNK N   1      31.406  16.486   7.767  0.00  0.00     0.175 C 
HETATM    7  C   UNK N   1      32.286  14.132   7.272  0.00  0.00     0.048 C 
HETATM    8  C   UNK N   1      32.497  16.063   5.753  0.00  0.00    -0.003 A 
HETATM    9  C   UNK N   1      34.859  15.450   5.219  0.00  0.00     0.075 C 
HETATM   10  C   UNK N   1      33.322  13.275   6.535  0.00  0.00     0.273 C 
HETATM   11  C   UNK N   1      33.482  15.909   4.790  0.00  0.00    -0.046 A 
HETATM   12  C   UNK N   1      31.980  17.669   8.591  0.00  0.00     0.171 C 
HETATM   13  C   UNK N   1      34.236  17.427   7.606  0.00  0.00    -0.020 C 
HETATM   14  C   UNK N   1      31.349  16.720   5.524  0.00  0.00     0.110 A 
HETATM   15  C   UNK N   1      33.261  18.253   8.034  0.00  0.00     0.004 C 
HETATM   16  C   UNK N   1      35.032  13.143   8.208  0.00  0.00     0.310 C 
HETATM   17  C   UNK N   1      33.206  16.353   3.485  0.00  0.00     0.011 A 
HETATM   18  C   UNK N   1      31.021  17.159   4.238  0.00  0.00     0.099 A 
HETATM   19  C   UNK N   1      31.951  16.944   3.200  0.00  0.00     0.040 A 
ENDROOT
BRANCH  12  20
HETATM   20  O   UNK N   1      31.024  18.658   8.825  0.00  0.00    -0.389 OA
HETATM   21  H   UNK N   1      31.208  19.373   9.453  0.00  0.00     0.210 HD
ENDBRANCH  12  20
BRANCH  18  22
HETATM   22  O   UNK N   1      29.858  17.788   3.999  0.00  0.00    -0.358 OA
HETATM   23  H   UNK N   1      29.817  18.510   3.403  0.00  0.00     0.217 HD
ENDBRANCH  18  22
TORSDOF 2
ENDMDL
MODEL 8
REMARK VINA RESULT:      -6.2      9.165     11.130
REMARK  2 active torsions:
REMARK  status: ('A' for Active; 'I' for Inactive)
REMARK    1  A    between atoms: C_14  and  O_2 
REMARK    2  A    between atoms: O_3  and  C_20 
ROOT
HETATM    1  O   UNK N   1      35.968  13.004  14.996  0.00  0.00    -0.338 OA
HETATM    2  N   UNK N   1      37.960   8.207  14.639  0.00  0.00     0.089 N 
HETATM    3  C   UNK N   1      36.693  10.834  14.412  0.00  0.00     0.030 C 
HETATM    4  C   UNK N   1      36.047   9.597  13.775  0.00  0.00     0.057 C 
HETATM    5  C   UNK N   1      36.489   8.369  14.660  0.00  0.00     0.235 C 
HETATM    6  C   UNK N   1      36.275  12.247  13.857  0.00  0.00     0.175 C 
HETATM    7  C   UNK N   1      38.223  10.684  14.423  0.00  0.00     0.048 C 
HETATM    8  C   UNK N   1      36.190  10.954  15.793  0.00  0.00    -0.003 A 
HETATM    9  C   UNK N   1      36.048   8.487  16.159  0.00  0.00     0.075 C 
HETATM   10  C   UNK N   1      38.678   9.397  15.120  0.00  0.00     0.273 C 
HETATM   11  C   UNK N   1      35.971   9.908  16.674  0.00  0.00    -0.046 A 
HETATM   12  C   UNK N   1      35.051  12.100  12.914  0.00  0.00     0.171 C 
HETATM   13  C   UNK N   1      34.548   9.815  13.713  0.00  0.00    -0.020 C 
HETATM   14  C   UNK N   1      35.875  12.228  16.078  0.00  0.00     0.110 A 
HETATM   15  C   UNK N   1      34.077  11.015  13.320  0.00  0.00     0.004 C 
HETATM   16  C   UNK N   1      38.455   7.834  13.318  0.00  0.00     0.310 C 
HETATM   17  C   UNK N   1      35.515  10.218  17.968  0.00  0.00     0.011 A 
HETATM   18  C   UNK N   1      35.441  12.587  17.356  0.00  0.00     0.099 A 
HETATM   19  C   UNK N   1      35.289  11.570  18.321  0.00  0.00     0.040 A 
ENDROOT
BRANCH  12  20
HETATM   20  O   UNK N   1      34.404  13.318  12.701  0.00  0.00    -0.389 OA
HETATM   21  H   UNK N   1      34.840  14.017  12.189  0.00  0.00     0.210 HD
ENDBRANCH  12  20
BRANCH  18  22
HETATM   22  O   UNK N   1      35.155  13.866  17.654  0.00  0.00    -0.358 OA
HETATM   23  H   UNK N   1      34.389  14.279  17.308  0.00  0.00     0.217 HD
ENDBRANCH  18  22
TORSDOF 2
ENDMDL
MODEL 9
REMARK VINA RESULT:      -6.2      8.953     11.093
REMARK  2 active torsions:
REMARK  status: ('A' for Active; 'I' for Inactive)
REMARK    1  A    between atoms: C_14  and  O_2 
REMARK    2  A    between atoms: O_3  and  C_20 
ROOT
HETATM    1  O   UNK N   1      37.123  12.390  13.621  0.00  0.00    -0.338 OA
HETATM    2  N   UNK N   1      36.013   8.531  16.936  0.00  0.00     0.089 N 
HETATM    3  C   UNK N   1      36.432  10.438  14.758  0.00  0.00     0.030 C 
HETATM    4  C   UNK N   1      35.139   9.617  14.840  0.00  0.00     0.057 C 
HETATM    5  C   UNK N   1      34.901   9.329  16.372  0.00  0.00     0.235 C 
HETATM    6  C   UNK N   1      36.829  11.044  13.359  0.00  0.00     0.175 C 
HETATM    7  C   UNK N   1      37.602   9.642  15.358  0.00  0.00     0.048 C 
HETATM    8  C   UNK N   1      36.231  11.686  15.518  0.00  0.00    -0.003 A 
HETATM    9  C   UNK N   1      34.763  10.627  17.238  0.00  0.00     0.075 C 
HETATM   10  C   UNK N   1      37.322   9.186  16.795  0.00  0.00     0.273 C 
HETATM   11  C   UNK N   1      35.554  11.808  16.720  0.00  0.00    -0.046 A 
HETATM   12  C   UNK N   1      35.645  10.894  12.367  0.00  0.00     0.171 C 
HETATM   13  C   UNK N   1      34.027  10.403  14.172  0.00  0.00    -0.020 C 
HETATM   14  C   UNK N   1      36.722  12.740  14.845  0.00  0.00     0.110 A 
HETATM   15  C   UNK N   1      34.278  11.025  13.002  0.00  0.00     0.004 C 
HETATM   16  C   UNK N   1      36.070   7.188  16.371  0.00  0.00     0.310 C 
HETATM   17  C   UNK N   1      35.490  13.080  17.317  0.00  0.00     0.011 A 
HETATM   18  C   UNK N   1      36.702  14.018  15.408  0.00  0.00     0.099 A 
HETATM   19  C   UNK N   1      36.105  14.182  16.675  0.00  0.00     0.040 A 
ENDROOT
BRANCH  12  20
HETATM   20  O   UNK N   1      35.779  11.732  11.260  0.00  0.00    -0.389 OA
HETATM   21  H   UNK N   1      35.708  11.369  10.363  0.00  0.00     0.210 HD
ENDBRANCH  12  20
BRANCH  18  22
HETATM   22  O   UNK N   1      37.220  15.069  14.751  0.00  0.00    -0.358 OA
HETATM   23  H   UNK N   1      36.890  15.934  14.894  0.00  0.00     0.217 HD
ENDBRANCH  18  22
TORSDOF 2
ENDMDL
