REMARK  5 active torsions:
REMARK  status: ('A' for Active; 'I' for Inactive)
REMARK    1  A    between atoms: N_2  and  C_9 
REMARK       I    between atoms: N_3  and  C_10 
REMARK    2  A    between atoms: N_3  and  C_13 
REMARK    3  A    between atoms: C_4  and  C_10 
REMARK    4  A    between atoms: C_9  and  C_11 
REMARK    5  A    between atoms: C_11  and  C_12 
ROOT
HETATM    1  O   UNK N   1       6.428  -0.287   1.341  0.00  0.00    -0.271 OA
HETATM    2  N   UNK N   1       4.607  -0.420   0.035  0.00  0.00    -0.324 N 
HETATM    3  C   UNK N   1       5.602   0.283   0.646  0.00  0.00     0.255 C 
HETATM    4  H   UNK N   1       3.944   0.098  -0.477  0.00  0.00     0.169 HD
ENDROOT
BRANCH   3   5
HETATM    5  C   UNK N   1       5.641   1.798   0.564  0.00  0.00     0.314 C 
HETATM    6  N   UNK N   1       4.535   2.397  -0.212  0.00  0.00     0.102 N 
HETATM    7  C   UNK N   1       4.623   3.857  -0.123  0.00  0.00     0.273 C 
HETATM    8  C   UNK N   1       5.916   4.362  -0.751  0.00  0.00     0.030 C 
HETATM    9  C   UNK N   1       7.101   3.746  -0.022  0.00  0.00     0.004 C 
HETATM   10  C   UNK N   1       6.985   2.228  -0.036  0.00  0.00     0.046 C 
BRANCH   6  11
HETATM   11  C   UNK N   1       3.247   2.063   0.382  0.00  0.00     0.273 C 
BRANCH  11  12
HETATM   12  C   UNK N   1       2.265   1.723  -0.727  0.00  0.00     0.030 C 
BRANCH  12  13
HETATM   13  C   UNK N   1       0.851   1.647  -0.188  0.00  0.00    -0.003 C 
HETATM   14  C   UNK N   1       0.246   3.036  -0.133  0.00  0.00     0.005 C 
ENDBRANCH  12  13
ENDBRANCH  11  12
ENDBRANCH   6  11
ENDBRANCH   3   5
BRANCH   2  15
HETATM   15  C   UNK N   1       4.437  -1.839   0.068  0.00  0.00     0.046 A 
HETATM   16  C   UNK N   1       5.508  -2.751  -0.137  0.00  0.00    -0.035 A 
HETATM   17  C   UNK N   1       5.266  -4.128  -0.090  0.00  0.00     0.009 A 
HETATM   18  C   UNK N   1       6.892  -2.303  -0.463  0.00  0.00     0.050 C 
HETATM   19  C   UNK N   1       3.984  -4.616   0.156  0.00  0.00     0.001 A 
HETATM   20  C   UNK N   1       2.925  -3.730   0.339  0.00  0.00     0.009 A 
HETATM   21  C   UNK N   1       3.142  -2.352   0.290  0.00  0.00    -0.035 A 
HETATM   22  C   UNK N   1       1.982  -1.441   0.498  0.00  0.00     0.050 C 
ENDBRANCH   2  15
TORSDOF 5
