MODEL 1
REMARK VINA RESULT:      -6.0      0.000      0.000
REMARK  5 active torsions:
REMARK  status: ('A' for Active; 'I' for Inactive)
REMARK    1  A    between atoms: N_2  and  C_9 
REMARK       I    between atoms: N_3  and  C_10 
REMARK    2  A    between atoms: N_3  and  C_13 
REMARK    3  A    between atoms: C_4  and  C_10 
REMARK    4  A    between atoms: C_9  and  C_11 
REMARK    5  A    between atoms: C_11  and  C_12 
ROOT
HETATM    1  O   UNK N   1      37.229  12.858  15.108  0.00  0.00    -0.271 OA
HETATM    2  N   UNK N   1      35.039  12.584  15.515  0.00  0.00    -0.324 N 
HETATM    3  C   UNK N   1      36.081  12.905  14.698  0.00  0.00     0.255 C 
HETATM    4  H   UNK N   1      34.132  12.683  15.143  0.00  0.00     0.169 HD
ENDROOT
BRANCH   3   5
HETATM    5  C   UNK N   1      35.830  13.433  13.297  0.00  0.00     0.314 C 
HETATM    6  N   UNK N   1      36.551  12.705  12.231  0.00  0.00     0.102 N 
HETATM    7  C   UNK N   1      36.141  13.234  10.928  0.00  0.00     0.273 C 
HETATM    8  C   UNK N   1      36.531  14.701  10.791  0.00  0.00     0.030 C 
HETATM    9  C   UNK N   1      35.852  15.504  11.891  0.00  0.00     0.004 C 
HETATM   10  C   UNK N   1      36.203  14.919  13.251  0.00  0.00     0.046 C 
BRANCH   6  11
HETATM   11  C   UNK N   1      36.158  11.302  12.206  0.00  0.00     0.273 C 
BRANCH  11  12
HETATM   12  C   UNK N   1      34.748  11.195  11.648  0.00  0.00     0.030 C 
BRANCH  12  13
HETATM   13  C   UNK N   1      33.961  10.127  12.380  0.00  0.00    -0.003 C 
HETATM   14  C   UNK N   1      34.679   8.796  12.276  0.00  0.00     0.005 C 
ENDBRANCH  12  13
ENDBRANCH  11  12
ENDBRANCH   6  11
ENDBRANCH   3   5
BRANCH   2  15
HETATM   15  C   UNK N   1      35.140  12.115  16.862  0.00  0.00     0.046 A 
HETATM   16  C   UNK N   1      35.257  12.989  17.978  0.00  0.00    -0.035 A 
HETATM   17  C   UNK N   1      35.351  12.457  19.268  0.00  0.00     0.009 A 
HETATM   18  C   UNK N   1      35.343  14.470  17.832  0.00  0.00     0.050 C 
HETATM   19  C   UNK N   1      35.332  11.079  19.472  0.00  0.00     0.001 A 
HETATM   20  C   UNK N   1      35.238  10.215  18.384  0.00  0.00     0.009 A 
HETATM   21  C   UNK N   1      35.149  10.723  17.086  0.00  0.00    -0.035 A 
HETATM   22  C   UNK N   1      35.042   9.763  15.952  0.00  0.00     0.050 C 
ENDBRANCH   2  15
TORSDOF 5
ENDMDL
MODEL 2
REMARK VINA RESULT:      -5.9      0.219      1.901
REMARK  5 active torsions:
REMARK  status: ('A' for Active; 'I' for Inactive)
REMARK    1  A    between atoms: N_2  and  C_9 
REMARK       I    between atoms: N_3  and  C_10 
REMARK    2  A    between atoms: N_3  and  C_13 
REMARK    3  A    between atoms: C_4  and  C_10 
REMARK    4  A    between atoms: C_9  and  C_11 
REMARK    5  A    between atoms: C_11  and  C_12 
ROOT
HETATM    1  O   UNK N   1      37.224  12.455  15.069  0.00  0.00    -0.271 OA
HETATM    2  N   UNK N   1      35.067  12.653  15.658  0.00  0.00    -0.324 N 
HETATM    3  C   UNK N   1      36.083  12.756  14.756  0.00  0.00     0.255 C 
HETATM    4  H   UNK N   1      34.176  12.951  15.363  0.00  0.00     0.169 HD
ENDROOT
BRANCH   3   5
HETATM    5  C   UNK N   1      35.838  13.348  13.380  0.00  0.00     0.314 C 
HETATM    6  N   UNK N   1      36.545  12.657  12.282  0.00  0.00     0.102 N 
HETATM    7  C   UNK N   1      36.142  13.249  11.004  0.00  0.00     0.273 C 
HETATM    8  C   UNK N   1      36.554  14.714  10.930  0.00  0.00     0.030 C 
HETATM    9  C   UNK N   1      35.891  15.479  12.066  0.00  0.00     0.004 C 
HETATM   10  C   UNK N   1      36.235  14.829  13.399  0.00  0.00     0.046 C 
BRANCH   6  11
HETATM   11  C   UNK N   1      36.129  11.263  12.196  0.00  0.00     0.273 C 
BRANCH  11  12
HETATM   12  C   UNK N   1      34.666  11.209  11.786  0.00  0.00     0.030 C 
BRANCH  12  13
HETATM   13  C   UNK N   1      33.962  10.049  12.460  0.00  0.00    -0.003 C 
HETATM   14  C   UNK N   1      34.937   8.907  12.669  0.00  0.00     0.005 C 
ENDBRANCH  12  13
ENDBRANCH  11  12
ENDBRANCH   6  11
ENDBRANCH   3   5
BRANCH   2  15
HETATM   15  C   UNK N   1      35.174  12.151  16.992  0.00  0.00     0.046 A 
HETATM   16  C   UNK N   1      35.144  10.764  17.302  0.00  0.00    -0.035 A 
HETATM   17  C   UNK N   1      35.256  10.347  18.632  0.00  0.00     0.009 A 
HETATM   18  C   UNK N   1      34.939   9.715  16.263  0.00  0.00     0.050 C 
HETATM   19  C   UNK N   1      35.395  11.278  19.660  0.00  0.00     0.001 A 
HETATM   20  C   UNK N   1      35.406  12.640  19.368  0.00  0.00     0.009 A 
HETATM   21  C   UNK N   1      35.291  13.080  18.048  0.00  0.00    -0.035 A 
HETATM   22  C   UNK N   1      35.314  14.545  17.781  0.00  0.00     0.050 C 
ENDBRANCH   2  15
TORSDOF 5
ENDMDL
MODEL 3
REMARK VINA RESULT:      -5.7     10.280     13.542
REMARK  5 active torsions:
REMARK  status: ('A' for Active; 'I' for Inactive)
REMARK    1  A    between atoms: N_2  and  C_9 
REMARK       I    between atoms: N_3  and  C_10 
REMARK    2  A    between atoms: N_3  and  C_13 
REMARK    3  A    between atoms: C_4  and  C_10 
REMARK    4  A    between atoms: C_9  and  C_11 
REMARK    5  A    between atoms: C_11  and  C_12 
ROOT
HETATM    1  O   UNK N   1      28.485  16.155   6.173  0.00  0.00    -0.271 OA
HETATM    2  N   UNK N   1      28.778  17.883   4.771  0.00  0.00    -0.324 N 
HETATM    3  C   UNK N   1      29.252  16.866   5.544  0.00  0.00     0.255 C 
HETATM    4  H   UNK N   1      29.445  18.451   4.321  0.00  0.00     0.169 HD
ENDROOT
BRANCH   3   5
HETATM    5  C   UNK N   1      30.746  16.665   5.726  0.00  0.00     0.314 C 
HETATM    6  N   UNK N   1      31.347  17.485   6.798  0.00  0.00     0.102 N 
HETATM    7  C   UNK N   1      32.759  17.120   6.946  0.00  0.00     0.273 C 
HETATM    8  C   UNK N   1      33.536  17.433   5.673  0.00  0.00     0.030 C 
HETATM    9  C   UNK N   1      32.937  16.649   4.515  0.00  0.00     0.004 C 
HETATM   10  C   UNK N   1      31.451  16.956   4.396  0.00  0.00     0.046 C 
BRANCH   6  11
HETATM   11  C   UNK N   1      30.743  17.173   8.087  0.00  0.00     0.273 C 
BRANCH  11  12
HETATM   12  C   UNK N   1      30.635  18.451   8.904  0.00  0.00     0.030 C 
BRANCH  12  13
HETATM   13  C   UNK N   1      29.446  18.390   9.841  0.00  0.00    -0.003 C 
HETATM   14  C   UNK N   1      28.190  18.062   9.058  0.00  0.00     0.005 C 
ENDBRANCH  12  13
ENDBRANCH  11  12
ENDBRANCH   6  11
ENDBRANCH   3   5
BRANCH   2  15
HETATM   15  C   UNK N   1      27.401  18.200   4.550  0.00  0.00     0.046 A 
HETATM   16  C   UNK N   1      26.551  17.421   3.719  0.00  0.00    -0.035 A 
HETATM   17  C   UNK N   1      25.214  17.794   3.550  0.00  0.00     0.009 A 
HETATM   18  C   UNK N   1      27.041  16.237   2.956  0.00  0.00     0.050 C 
HETATM   19  C   UNK N   1      24.704  18.922   4.190  0.00  0.00     0.001 A 
HETATM   20  C   UNK N   1      25.534  19.702   4.992  0.00  0.00     0.009 A 
HETATM   21  C   UNK N   1      26.874  19.353   5.169  0.00  0.00    -0.035 A 
HETATM   22  C   UNK N   1      27.724  20.212   6.041  0.00  0.00     0.050 C 
ENDBRANCH   2  15
TORSDOF 5
ENDMDL
MODEL 4
REMARK VINA RESULT:      -5.7     10.441     13.407
REMARK  5 active torsions:
REMARK  status: ('A' for Active; 'I' for Inactive)
REMARK    1  A    between atoms: N_2  and  C_9 
REMARK       I    between atoms: N_3  and  C_10 
REMARK    2  A    between atoms: N_3  and  C_13 
REMARK    3  A    between atoms: C_4  and  C_10 
REMARK    4  A    between atoms: C_9  and  C_11 
REMARK    5  A    between atoms: C_11  and  C_12 
ROOT
HETATM    1  O   UNK N   1      29.529  15.185   5.172  0.00  0.00    -0.271 OA
HETATM    2  N   UNK N   1      30.139  17.319   4.833  0.00  0.00    -0.324 N 
HETATM    3  C   UNK N   1      29.289  16.268   4.661  0.00  0.00     0.255 C 
HETATM    4  H   UNK N   1      29.917  18.154   4.362  0.00  0.00     0.169 HD
ENDROOT
BRANCH   3   5
HETATM    5  C   UNK N   1      28.085  16.389   3.745  0.00  0.00     0.314 C 
HETATM    6  N   UNK N   1      26.806  16.630   4.445  0.00  0.00     0.102 N 
HETATM    7  C   UNK N   1      25.748  16.838   3.453  0.00  0.00     0.273 C 
HETATM    8  C   UNK N   1      25.548  15.588   2.604  0.00  0.00     0.030 C 
HETATM    9  C   UNK N   1      26.848  15.258   1.885  0.00  0.00     0.004 C 
HETATM   10  C   UNK N   1      27.977  15.116   2.897  0.00  0.00     0.046 C 
BRANCH   6  11
HETATM   11  C   UNK N   1      26.857  17.874   5.202  0.00  0.00     0.273 C 
BRANCH  11  12
HETATM   12  C   UNK N   1      26.856  19.043   4.231  0.00  0.00     0.030 C 
BRANCH  12  13
HETATM   13  C   UNK N   1      27.831  20.114   4.678  0.00  0.00    -0.003 C 
HETATM   14  C   UNK N   1      27.245  20.891   5.840  0.00  0.00     0.005 C 
ENDBRANCH  12  13
ENDBRANCH  11  12
ENDBRANCH   6  11
ENDBRANCH   3   5
BRANCH   2  15
HETATM   15  C   UNK N   1      31.323  17.321   5.635  0.00  0.00     0.046 A 
HETATM   16  C   UNK N   1      31.296  17.412   7.053  0.00  0.00    -0.035 A 
HETATM   17  C   UNK N   1      32.496  17.408   7.772  0.00  0.00     0.009 A 
HETATM   18  C   UNK N   1      30.030  17.573   7.823  0.00  0.00     0.050 C 
HETATM   19  C   UNK N   1      33.720  17.316   7.111  0.00  0.00     0.001 A 
HETATM   20  C   UNK N   1      33.756  17.245   5.720  0.00  0.00     0.009 A 
HETATM   21  C   UNK N   1      32.572  17.254   4.982  0.00  0.00    -0.035 A 
HETATM   22  C   UNK N   1      32.657  17.170   3.497  0.00  0.00     0.050 C 
ENDBRANCH   2  15
TORSDOF 5
ENDMDL
MODEL 5
REMARK VINA RESULT:      -5.6     10.218     13.357
REMARK  5 active torsions:
REMARK  status: ('A' for Active; 'I' for Inactive)
REMARK    1  A    between atoms: N_2  and  C_9 
REMARK       I    between atoms: N_3  and  C_10 
REMARK    2  A    between atoms: N_3  and  C_13 
REMARK    3  A    between atoms: C_4  and  C_10 
REMARK    4  A    between atoms: C_9  and  C_11 
REMARK    5  A    between atoms: C_11  and  C_12 
ROOT
HETATM    1  O   UNK N   1      28.144  17.412   7.137  0.00  0.00    -0.271 OA
HETATM    2  N   UNK N   1      28.851  18.316   5.207  0.00  0.00    -0.324 N 
HETATM    3  C   UNK N   1      29.065  17.630   6.366  0.00  0.00     0.255 C 
HETATM    4  H   UNK N   1      29.639  18.501   4.646  0.00  0.00     0.169 HD
ENDROOT
BRANCH   3   5
HETATM    5  C   UNK N   1      30.468  17.219   6.773  0.00  0.00     0.314 C 
HETATM    6  N   UNK N   1      30.687  15.758   6.818  0.00  0.00     0.102 N 
HETATM    7  C   UNK N   1      32.098  15.495   7.113  0.00  0.00     0.273 C 
HETATM    8  C   UNK N   1      32.475  16.032   8.488  0.00  0.00     0.030 C 
HETATM    9  C   UNK N   1      32.230  17.534   8.523  0.00  0.00     0.004 C 
HETATM   10  C   UNK N   1      30.787  17.832   8.142  0.00  0.00     0.046 C 
BRANCH   6  11
HETATM   11  C   UNK N   1      30.461  15.161   5.508  0.00  0.00     0.273 C 
BRANCH  11  12
HETATM   12  C   UNK N   1      31.740  15.260   4.693  0.00  0.00     0.030 C 
BRANCH  12  13
HETATM   13  C   UNK N   1      31.539  16.150   3.484  0.00  0.00    -0.003 C 
HETATM   14  C   UNK N   1      32.392  17.397   3.616  0.00  0.00     0.005 C 
ENDBRANCH  12  13
ENDBRANCH  11  12
ENDBRANCH   6  11
ENDBRANCH   3   5
BRANCH   2  15
HETATM   15  C   UNK N   1      27.589  18.792   4.732  0.00  0.00     0.046 A 
HETATM   16  C   UNK N   1      27.045  20.049   5.110  0.00  0.00    -0.035 A 
HETATM   17  C   UNK N   1      25.803  20.449   4.603  0.00  0.00     0.009 A 
HETATM   18  C   UNK N   1      27.718  20.955   6.083  0.00  0.00     0.050 C 
HETATM   19  C   UNK N   1      25.094  19.625   3.731  0.00  0.00     0.001 A 
HETATM   20  C   UNK N   1      25.611  18.383   3.370  0.00  0.00     0.009 A 
HETATM   21  C   UNK N   1      26.845  17.961   3.868  0.00  0.00    -0.035 A 
HETATM   22  C   UNK N   1      27.363  16.629   3.451  0.00  0.00     0.050 C 
ENDBRANCH   2  15
TORSDOF 5
ENDMDL
MODEL 6
REMARK VINA RESULT:      -5.6     21.817     25.102
REMARK  5 active torsions:
REMARK  status: ('A' for Active; 'I' for Inactive)
REMARK    1  A    between atoms: N_2  and  C_9 
REMARK       I    between atoms: N_3  and  C_10 
REMARK    2  A    between atoms: N_3  and  C_13 
REMARK    3  A    between atoms: C_4  and  C_10 
REMARK    4  A    between atoms: C_9  and  C_11 
REMARK    5  A    between atoms: C_11  and  C_12 
ROOT
HETATM    1  O   UNK N   1      26.734  24.156  -3.898  0.00  0.00    -0.271 OA
HETATM    2  N   UNK N   1      27.354  25.574  -5.524  0.00  0.00    -0.324 N 
HETATM    3  C   UNK N   1      27.102  24.321  -5.050  0.00  0.00     0.255 C 
HETATM    4  H   UNK N   1      27.691  25.643  -6.447  0.00  0.00     0.169 HD
ENDROOT
BRANCH   3   5
HETATM    5  C   UNK N   1      27.377  23.100  -5.909  0.00  0.00     0.314 C 
HETATM    6  N   UNK N   1      28.750  23.032  -6.453  0.00  0.00     0.102 N 
HETATM    7  C   UNK N   1      28.920  21.763  -7.165  0.00  0.00     0.273 C 
HETATM    8  C   UNK N   1      27.976  21.679  -8.358  0.00  0.00     0.030 C 
HETATM    9  C   UNK N   1      26.540  21.787  -7.869  0.00  0.00     0.004 C 
HETATM   10  C   UNK N   1      26.363  23.064  -7.058  0.00  0.00     0.046 C 
BRANCH   6  11
HETATM   11  C   UNK N   1      29.731  22.991  -5.376  0.00  0.00     0.273 C 
BRANCH  11  12
HETATM   12  C   UNK N   1      30.107  21.544  -5.105  0.00  0.00     0.030 C 
BRANCH  12  13
HETATM   13  C   UNK N   1      30.386  21.328  -3.632  0.00  0.00    -0.003 C 
HETATM   14  C   UNK N   1      29.985  22.561  -2.846  0.00  0.00     0.005 C 
ENDBRANCH  12  13
ENDBRANCH  11  12
ENDBRANCH   6  11
ENDBRANCH   3   5
BRANCH   2  15
HETATM   15  C   UNK N   1      27.175  26.797  -4.805  0.00  0.00     0.046 A 
HETATM   16  C   UNK N   1      25.953  27.523  -4.808  0.00  0.00    -0.035 A 
HETATM   17  C   UNK N   1      25.851  28.714  -4.081  0.00  0.00     0.009 A 
HETATM   18  C   UNK N   1      24.770  27.100  -5.611  0.00  0.00     0.050 C 
HETATM   19  C   UNK N   1      26.936  29.196  -3.352  0.00  0.00     0.001 A 
HETATM   20  C   UNK N   1      28.144  28.501  -3.359  0.00  0.00     0.009 A 
HETATM   21  C   UNK N   1      28.270  27.315  -4.083  0.00  0.00    -0.035 A 
HETATM   22  C   UNK N   1      29.577  26.601  -4.056  0.00  0.00     0.050 C 
ENDBRANCH   2  15
TORSDOF 5
ENDMDL
MODEL 7
REMARK VINA RESULT:      -5.6     21.336     24.590
REMARK  5 active torsions:
REMARK  status: ('A' for Active; 'I' for Inactive)
REMARK    1  A    between atoms: N_2  and  C_9 
REMARK       I    between atoms: N_3  and  C_10 
REMARK    2  A    between atoms: N_3  and  C_13 
REMARK    3  A    between atoms: C_4  and  C_10 
REMARK    4  A    between atoms: C_9  and  C_11 
REMARK    5  A    between atoms: C_11  and  C_12 
ROOT
HETATM    1  O   UNK N   1      29.621  25.213  -5.189  0.00  0.00    -0.271 OA
HETATM    2  N   UNK N   1      28.428  23.390  -4.650  0.00  0.00    -0.324 N 
HETATM    3  C   UNK N   1      28.530  24.711  -4.972  0.00  0.00     0.255 C 
HETATM    4  H   UNK N   1      27.527  23.050  -4.442  0.00  0.00     0.169 HD
ENDROOT
BRANCH   3   5
HETATM    5  C   UNK N   1      27.305  25.606  -4.962  0.00  0.00     0.314 C 
HETATM    6  N   UNK N   1      27.191  26.499  -6.134  0.00  0.00     0.102 N 
HETATM    7  C   UNK N   1      25.921  27.226  -6.061  0.00  0.00     0.273 C 
HETATM    8  C   UNK N   1      25.877  28.121  -4.829  0.00  0.00     0.030 C 
HETATM    9  C   UNK N   1      26.034  27.264  -3.582  0.00  0.00     0.004 C 
HETATM   10  C   UNK N   1      27.311  26.441  -3.676  0.00  0.00     0.046 C 
BRANCH   6  11
HETATM   11  C   UNK N   1      27.110  25.726  -7.367  0.00  0.00     0.273 C 
BRANCH  11  12
HETATM   12  C   UNK N   1      25.778  24.995  -7.404  0.00  0.00     0.030 C 
BRANCH  12  13
HETATM   13  C   UNK N   1      25.968  23.553  -7.827  0.00  0.00    -0.003 C 
HETATM   14  C   UNK N   1      25.604  22.629  -6.681  0.00  0.00     0.005 C 
ENDBRANCH  12  13
ENDBRANCH  11  12
ENDBRANCH   6  11
ENDBRANCH   3   5
BRANCH   2  15
HETATM   15  C   UNK N   1      29.506  22.454  -4.586  0.00  0.00     0.046 A 
HETATM   16  C   UNK N   1      29.924  21.678  -5.701  0.00  0.00    -0.035 A 
HETATM   17  C   UNK N   1      30.988  20.781  -5.563  0.00  0.00     0.009 A 
HETATM   18  C   UNK N   1      29.233  21.733  -7.021  0.00  0.00     0.050 C 
HETATM   19  C   UNK N   1      31.644  20.639  -4.342  0.00  0.00     0.001 A 
HETATM   20  C   UNK N   1      31.229  21.381  -3.239  0.00  0.00     0.009 A 
HETATM   21  C   UNK N   1      30.165  22.278  -3.351  0.00  0.00    -0.035 A 
HETATM   22  C   UNK N   1      29.760  23.055  -2.148  0.00  0.00     0.050 C 
ENDBRANCH   2  15
TORSDOF 5
ENDMDL
MODEL 8
REMARK VINA RESULT:      -5.4     21.419     24.555
REMARK  5 active torsions:
REMARK  status: ('A' for Active; 'I' for Inactive)
REMARK    1  A    between atoms: N_2  and  C_9 
REMARK       I    between atoms: N_3  and  C_10 
REMARK    2  A    between atoms: N_3  and  C_13 
REMARK    3  A    between atoms: C_4  and  C_10 
REMARK    4  A    between atoms: C_9  and  C_11 
REMARK    5  A    between atoms: C_11  and  C_12 
ROOT
HETATM    1  O   UNK N   1      29.442  24.984  -6.538  0.00  0.00    -0.271 OA
HETATM    2  N   UNK N   1      28.264  24.717  -4.646  0.00  0.00    -0.324 N 
HETATM    3  C   UNK N   1      29.317  24.423  -5.460  0.00  0.00     0.255 C 
HETATM    4  H   UNK N   1      28.190  24.202  -3.809  0.00  0.00     0.169 HD
ENDROOT
BRANCH   3   5
HETATM    5  C   UNK N   1      30.292  23.319  -5.096  0.00  0.00     0.314 C 
HETATM    6  N   UNK N   1      29.721  21.957  -5.146  0.00  0.00     0.102 N 
HETATM    7  C   UNK N   1      30.783  20.982  -4.885  0.00  0.00     0.273 C 
HETATM    8  C   UNK N   1      31.351  21.162  -3.483  0.00  0.00     0.030 C 
HETATM    9  C   UNK N   1      31.921  22.567  -3.349  0.00  0.00     0.004 C 
HETATM   10  C   UNK N   1      30.851  23.594  -3.695  0.00  0.00     0.046 C 
BRANCH   6  11
HETATM   11  C   UNK N   1      29.248  21.644  -6.489  0.00  0.00     0.273 C 
BRANCH  11  12
HETATM   12  C   UNK N   1      29.972  20.406  -6.991  0.00  0.00     0.030 C 
BRANCH  12  13
HETATM   13  C   UNK N   1      29.035  19.524  -7.791  0.00  0.00    -0.003 C 
HETATM   14  C   UNK N   1      29.824  18.427  -8.479  0.00  0.00     0.005 C 
ENDBRANCH  12  13
ENDBRANCH  11  12
ENDBRANCH   6  11
ENDBRANCH   3   5
BRANCH   2  15
HETATM   15  C   UNK N   1      27.259  25.703  -4.892  0.00  0.00     0.046 A 
HETATM   16  C   UNK N   1      27.442  27.083  -4.605  0.00  0.00    -0.035 A 
HETATM   17  C   UNK N   1      26.412  27.991  -4.874  0.00  0.00     0.009 A 
HETATM   18  C   UNK N   1      28.681  27.612  -3.966  0.00  0.00     0.050 C 
HETATM   19  C   UNK N   1      25.207  27.556  -5.420  0.00  0.00     0.001 A 
HETATM   20  C   UNK N   1      25.011  26.203  -5.687  0.00  0.00     0.009 A 
HETATM   21  C   UNK N   1      26.022  25.278  -5.421  0.00  0.00    -0.035 A 
HETATM   22  C   UNK N   1      25.772  23.842  -5.728  0.00  0.00     0.050 C 
ENDBRANCH   2  15
TORSDOF 5
ENDMDL
MODEL 9
REMARK VINA RESULT:      -5.4     20.968     24.745
REMARK  5 active torsions:
REMARK  status: ('A' for Active; 'I' for Inactive)
REMARK    1  A    between atoms: N_2  and  C_9 
REMARK       I    between atoms: N_3  and  C_10 
REMARK    2  A    between atoms: N_3  and  C_13 
REMARK    3  A    between atoms: C_4  and  C_10 
REMARK    4  A    between atoms: C_9  and  C_11 
REMARK    5  A    between atoms: C_11  and  C_12 
ROOT
HETATM    1  O   UNK N   1      29.139  24.204  -6.488  0.00  0.00    -0.271 OA
HETATM    2  N   UNK N   1      27.115  23.468  -5.856  0.00  0.00    -0.324 N 
HETATM    3  C   UNK N   1      28.409  23.261  -6.228  0.00  0.00     0.255 C 
HETATM    4  H   UNK N   1      26.561  22.668  -5.701  0.00  0.00     0.169 HD
ENDROOT
BRANCH   3   5
HETATM    5  C   UNK N   1      28.940  21.853  -6.432  0.00  0.00     0.314 C 
HETATM    6  N   UNK N   1      30.295  21.626  -5.889  0.00  0.00     0.102 N 
HETATM    7  C   UNK N   1      30.645  20.212  -6.049  0.00  0.00     0.273 C 
HETATM    8  C   UNK N   1      30.699  19.830  -7.522  0.00  0.00     0.030 C 
HETATM    9  C   UNK N   1      29.338  20.081  -8.155  0.00  0.00     0.004 C 
HETATM   10  C   UNK N   1      28.922  21.528  -7.930  0.00  0.00     0.046 C 
BRANCH   6  11
HETATM   11  C   UNK N   1      30.321  21.858  -4.450  0.00  0.00     0.273 C 
BRANCH  11  12
HETATM   12  C   UNK N   1      31.694  22.380  -4.059  0.00  0.00     0.030 C 
BRANCH  12  13
HETATM   13  C   UNK N   1      32.253  21.596  -2.889  0.00  0.00    -0.003 C 
HETATM   14  C   UNK N   1      33.504  20.854  -3.317  0.00  0.00     0.005 C 
ENDBRANCH  12  13
ENDBRANCH  11  12
ENDBRANCH   6  11
ENDBRANCH   3   5
BRANCH   2  15
HETATM   15  C   UNK N   1      26.486  24.738  -5.669  0.00  0.00     0.046 A 
HETATM   16  C   UNK N   1      25.873  25.461  -6.728  0.00  0.00    -0.035 A 
HETATM   17  C   UNK N   1      25.276  26.699  -6.469  0.00  0.00     0.009 A 
HETATM   18  C   UNK N   1      25.885  24.981  -8.139  0.00  0.00     0.050 C 
HETATM   19  C   UNK N   1      25.277  27.233  -5.182  0.00  0.00     0.001 A 
HETATM   20  C   UNK N   1      25.892  26.541  -4.142  0.00  0.00     0.009 A 
HETATM   21  C   UNK N   1      26.499  25.306  -4.378  0.00  0.00    -0.035 A 
HETATM   22  C   UNK N   1      27.139  24.598  -3.235  0.00  0.00     0.050 C 
ENDBRANCH   2  15
TORSDOF 5
ENDMDL
