MODEL 1
REMARK VINA RESULT:      -7.7      0.000      0.000
REMARK  4 active torsions:
REMARK  status: ('A' for Active; 'I' for Inactive)
REMARK    1  A    between atoms: N_1  and  C_10 
REMARK    2  A    between atoms: N_2  and  C_20 
REMARK    3  A    between atoms: C_10  and  C_13 
REMARK    4  A    between atoms: C_13  and  C_15 
ROOT
HETATM    1  N   UNK N   1      35.601  12.915  12.177  0.00  0.00     0.092 N 
HETATM    2  N   UNK N   1      35.473  12.515  14.935  0.00  0.00    -0.377 N 
HETATM    3  C   UNK N   1      34.935  11.709  12.655  0.00  0.00     0.292 C 
HETATM    4  C   UNK N   1      36.809  13.089  12.969  0.00  0.00     0.292 C 
HETATM    5  C   UNK N   1      34.422  11.974  14.079  0.00  0.00     0.153 C 
HETATM    6  C   UNK N   1      36.386  13.496  14.368  0.00  0.00     0.153 C 
ENDROOT
BRANCH   1   7
HETATM    7  C   UNK N   1      35.973  12.809  10.775  0.00  0.00     0.280 C 
BRANCH   7   8
HETATM    8  C   UNK N   1      36.767  14.061  10.434  0.00  0.00     0.108 C 
BRANCH   8   9
HETATM    9  C   UNK N   1      35.940  15.293  10.294  0.00  0.00     0.101 A 
HETATM   10  N   UNK N   1      35.300  15.653   9.170  0.00  0.00    -0.324 N 
HETATM   11  C   UNK N   1      35.210  14.951   7.891  0.00  0.00     0.131 C 
HETATM   12  C   UNK N   1      34.762  16.844   9.460  0.00  0.00     0.099 A 
HETATM   13  C   UNK N   1      34.159  15.609   6.987  0.00  0.00     0.021 C 
HETATM   14  C   UNK N   1      34.246  17.136   7.052  0.00  0.00     0.009 C 
HETATM   15  C   UNK N   1      33.992  17.660   8.472  0.00  0.00     0.078 C 
HETATM   16  N   UNK N   1      35.042  17.204  10.728  0.00  0.00    -0.287 N 
HETATM   17  N   UNK N   1      35.784  16.232  11.250  0.00  0.00    -0.287 N 
ATOM     18  HN  UNK N   1      34.744  18.058  11.196  1.00  0.00     0.188 HD
ATOM     19  HN  UNK N   1      36.164  16.203  12.197  1.00  0.00     0.188 HD
ENDBRANCH   8   9
ENDBRANCH   7   8
ENDBRANCH   1   7
BRANCH   2  20
HETATM   20  C   UNK N   1      35.488  12.311  16.362  0.00  0.00     0.036 A 
HETATM   21  C   UNK N   1      35.797  11.064  16.986  0.00  0.00    -0.035 A 
HETATM   22  C   UNK N   1      35.761  10.958  18.382  0.00  0.00     0.009 A 
HETATM   23  C   UNK N   1      36.164   9.833  16.230  0.00  0.00     0.050 C 
HETATM   24  C   UNK N   1      35.428  12.053  19.177  0.00  0.00     0.001 A 
HETATM   25  C   UNK N   1      35.131  13.275  18.584  0.00  0.00     0.002 A 
HETATM   26  C   UNK N   1      35.160  13.400  17.197  0.00  0.00     0.030 A 
ENDBRANCH   2  20
TORSDOF 4
ENDMDL
MODEL 2
REMARK VINA RESULT:      -7.4      2.918      9.034
REMARK  4 active torsions:
REMARK  status: ('A' for Active; 'I' for Inactive)
REMARK    1  A    between atoms: N_1  and  C_10 
REMARK    2  A    between atoms: N_2  and  C_20 
REMARK    3  A    between atoms: C_10  and  C_13 
REMARK    4  A    between atoms: C_13  and  C_15 
ROOT
HETATM    1  N   UNK N   1      34.160  15.622   9.724  0.00  0.00     0.092 N 
HETATM    2  N   UNK N   1      31.961  16.709   8.395  0.00  0.00    -0.377 N 
HETATM    3  C   UNK N   1      34.416  16.647   8.720  0.00  0.00     0.292 C 
HETATM    4  C   UNK N   1      33.152  14.724   9.184  0.00  0.00     0.292 C 
HETATM    5  C   UNK N   1      33.158  17.521   8.590  0.00  0.00     0.153 C 
HETATM    6  C   UNK N   1      31.834  15.475   9.157  0.00  0.00     0.153 C 
ENDROOT
BRANCH   1   7
HETATM    7  C   UNK N   1      35.356  14.853  10.031  0.00  0.00     0.280 C 
BRANCH   7   8
HETATM    8  C   UNK N   1      34.960  13.821  11.077  0.00  0.00     0.108 C 
BRANCH   8   9
HETATM    9  C   UNK N   1      35.609  14.013  12.404  0.00  0.00     0.101 A 
HETATM   10  N   UNK N   1      35.395  13.229  13.473  0.00  0.00    -0.324 N 
HETATM   11  C   UNK N   1      34.566  12.031  13.591  0.00  0.00     0.131 C 
HETATM   12  C   UNK N   1      36.103  13.804  14.453  0.00  0.00     0.099 A 
HETATM   13  C   UNK N   1      34.833  11.319  14.924  0.00  0.00     0.021 C 
HETATM   14  C   UNK N   1      34.954  12.320  16.076  0.00  0.00     0.009 C 
HETATM   15  C   UNK N   1      36.118  13.297  15.860  0.00  0.00     0.078 C 
HETATM   16  N   UNK N   1      36.748  14.898  14.005  0.00  0.00    -0.287 N 
HETATM   17  N   UNK N   1      36.437  15.031  12.720  0.00  0.00    -0.287 N 
ATOM     18  HN  UNK N   1      37.359  15.507  14.548  1.00  0.00     0.188 HD
ATOM     19  HN  UNK N   1      36.762  15.765  12.091  1.00  0.00     0.188 HD
ENDBRANCH   8   9
ENDBRANCH   7   8
ENDBRANCH   1   7
BRANCH   2  20
HETATM   20  C   UNK N   1      30.806  17.196   7.684  0.00  0.00     0.036 A 
HETATM   21  C   UNK N   1      29.794  18.013   8.273  0.00  0.00    -0.035 A 
HETATM   22  C   UNK N   1      28.693  18.418   7.506  0.00  0.00     0.009 A 
HETATM   23  C   UNK N   1      29.829  18.476   9.689  0.00  0.00     0.050 C 
HETATM   24  C   UNK N   1      28.570  18.035   6.171  0.00  0.00     0.001 A 
HETATM   25  C   UNK N   1      29.550  17.245   5.583  0.00  0.00     0.002 A 
HETATM   26  C   UNK N   1      30.652  16.832   6.329  0.00  0.00     0.030 A 
ENDBRANCH   2  20
TORSDOF 4
ENDMDL
MODEL 3
REMARK VINA RESULT:      -7.3      2.010      9.030
REMARK  4 active torsions:
REMARK  status: ('A' for Active; 'I' for Inactive)
REMARK    1  A    between atoms: N_1  and  C_10 
REMARK    2  A    between atoms: N_2  and  C_20 
REMARK    3  A    between atoms: C_10  and  C_13 
REMARK    4  A    between atoms: C_13  and  C_15 
ROOT
HETATM    1  N   UNK N   1      35.668  15.817   9.854  0.00  0.00     0.092 N 
HETATM    2  N   UNK N   1      33.881  16.419   7.798  0.00  0.00    -0.377 N 
HETATM    3  C   UNK N   1      34.697  14.795   9.481  0.00  0.00     0.292 C 
HETATM    4  C   UNK N   1      34.968  17.093   9.882  0.00  0.00     0.292 C 
HETATM    5  C   UNK N   1      34.283  15.033   8.020  0.00  0.00     0.153 C 
HETATM    6  C   UNK N   1      34.647  17.471   8.448  0.00  0.00     0.153 C 
ENDROOT
BRANCH   1   7
HETATM    7  C   UNK N   1      36.238  15.569  11.169  0.00  0.00     0.280 C 
BRANCH   7   8
HETATM    8  C   UNK N   1      35.398  14.476  11.814  0.00  0.00     0.108 C 
BRANCH   8   9
HETATM    9  C   UNK N   1      35.907  14.011  13.135  0.00  0.00     0.101 A 
HETATM   10  N   UNK N   1      35.499  12.892  13.753  0.00  0.00    -0.324 N 
HETATM   11  C   UNK N   1      34.549  11.877  13.299  0.00  0.00     0.131 C 
HETATM   12  C   UNK N   1      36.142  12.906  14.927  0.00  0.00     0.099 A 
HETATM   13  C   UNK N   1      34.593  10.648  14.217  0.00  0.00     0.021 C 
HETATM   14  C   UNK N   1      34.678  11.055  15.690  0.00  0.00     0.009 C 
HETATM   15  C   UNK N   1      35.948  11.865  15.983  0.00  0.00     0.078 C 
HETATM   16  N   UNK N   1      36.938  13.989  15.028  0.00  0.00    -0.287 N 
HETATM   17  N   UNK N   1      36.789  14.684  13.905  0.00  0.00    -0.287 N 
ATOM     18  HN  UNK N   1      37.539  14.229  15.815  1.00  0.00     0.188 HD
ATOM     19  HN  UNK N   1      37.253  15.561  13.669  1.00  0.00     0.188 HD
ENDBRANCH   8   9
ENDBRANCH   7   8
ENDBRANCH   1   7
BRANCH   2  20
HETATM   20  C   UNK N   1      32.933  16.793   6.778  0.00  0.00     0.036 A 
HETATM   21  C   UNK N   1      31.526  16.903   7.001  0.00  0.00    -0.035 A 
HETATM   22  C   UNK N   1      30.680  17.249   5.939  0.00  0.00     0.009 A 
HETATM   23  C   UNK N   1      30.879  16.665   8.322  0.00  0.00     0.050 C 
HETATM   24  C   UNK N   1      31.190  17.490   4.664  0.00  0.00     0.001 A 
HETATM   25  C   UNK N   1      32.557  17.393   4.435  0.00  0.00     0.002 A 
HETATM   26  C   UNK N   1      33.415  17.049   5.478  0.00  0.00     0.030 A 
ENDBRANCH   2  20
TORSDOF 4
ENDMDL
MODEL 4
REMARK VINA RESULT:      -7.2      1.061      1.770
REMARK  4 active torsions:
REMARK  status: ('A' for Active; 'I' for Inactive)
REMARK    1  A    between atoms: N_1  and  C_10 
REMARK    2  A    between atoms: N_2  and  C_20 
REMARK    3  A    between atoms: C_10  and  C_13 
REMARK    4  A    between atoms: C_13  and  C_15 
ROOT
HETATM    1  N   UNK N   1      35.175  13.112  12.748  0.00  0.00     0.092 N 
HETATM    2  N   UNK N   1      35.277  12.492  15.466  0.00  0.00    -0.377 N 
HETATM    3  C   UNK N   1      34.702  11.796  13.159  0.00  0.00     0.292 C 
HETATM    4  C   UNK N   1      36.398  13.386  13.485  0.00  0.00     0.292 C 
HETATM    5  C   UNK N   1      34.251  11.882  14.626  0.00  0.00     0.153 C 
HETATM    6  C   UNK N   1      36.018  13.626  14.934  0.00  0.00     0.153 C 
ENDROOT
BRANCH   1   7
HETATM    7  C   UNK N   1      35.465  13.162  11.324  0.00  0.00     0.280 C 
BRANCH   7   8
HETATM    8  C   UNK N   1      35.093  14.559  10.847  0.00  0.00     0.108 C 
BRANCH   8   9
HETATM    9  C   UNK N   1      34.993  14.695   9.367  0.00  0.00     0.101 A 
HETATM   10  N   UNK N   1      34.712  15.842   8.728  0.00  0.00    -0.324 N 
HETATM   11  C   UNK N   1      34.497  17.179   9.278  0.00  0.00     0.131 C 
HETATM   12  C   UNK N   1      34.640  15.495   7.437  0.00  0.00     0.099 A 
HETATM   13  C   UNK N   1      34.467  18.226   8.156  0.00  0.00     0.021 C 
HETATM   14  C   UNK N   1      33.671  17.725   6.948  0.00  0.00     0.009 C 
HETATM   15  C   UNK N   1      34.290  16.456   6.346  0.00  0.00     0.078 C 
HETATM   16  N   UNK N   1      34.886  14.180   7.276  0.00  0.00    -0.287 N 
HETATM   17  N   UNK N   1      35.104  13.677   8.487  0.00  0.00    -0.287 N 
ATOM     18  HN  UNK N   1      34.900  13.668   6.394  1.00  0.00     0.188 HD
ATOM     19  HN  UNK N   1      35.316  12.704   8.710  1.00  0.00     0.188 HD
ENDBRANCH   8   9
ENDBRANCH   7   8
ENDBRANCH   1   7
BRANCH   2  20
HETATM   20  C   UNK N   1      35.410  12.185  16.868  0.00  0.00     0.036 A 
HETATM   21  C   UNK N   1      35.848  10.922  17.369  0.00  0.00    -0.035 A 
HETATM   22  C   UNK N   1      35.921  10.710  18.752  0.00  0.00     0.009 A 
HETATM   23  C   UNK N   1      36.240   9.780  16.496  0.00  0.00     0.050 C 
HETATM   24  C   UNK N   1      35.574  11.717  19.651  0.00  0.00     0.001 A 
HETATM   25  C   UNK N   1      35.152  12.954  19.178  0.00  0.00     0.002 A 
HETATM   26  C   UNK N   1      35.072  13.184  17.806  0.00  0.00     0.030 A 
ENDBRANCH   2  20
TORSDOF 4
ENDMDL
MODEL 5
REMARK VINA RESULT:      -7.0      2.010      2.659
REMARK  4 active torsions:
REMARK  status: ('A' for Active; 'I' for Inactive)
REMARK    1  A    between atoms: N_1  and  C_10 
REMARK    2  A    between atoms: N_2  and  C_20 
REMARK    3  A    between atoms: C_10  and  C_13 
REMARK    4  A    between atoms: C_13  and  C_15 
ROOT
HETATM    1  N   UNK N   1      36.816  13.639  11.974  0.00  0.00     0.092 N 
HETATM    2  N   UNK N   1      36.342  11.860  14.070  0.00  0.00    -0.377 N 
HETATM    3  C   UNK N   1      36.205  14.170  13.186  0.00  0.00     0.292 C 
HETATM    4  C   UNK N   1      36.174  12.366  11.684  0.00  0.00     0.292 C 
HETATM    5  C   UNK N   1      36.603  13.266  14.364  0.00  0.00     0.153 C 
HETATM    6  C   UNK N   1      36.634  11.370  12.732  0.00  0.00     0.153 C 
ENDROOT
BRANCH   1   7
HETATM    7  C   UNK N   1      36.628  14.527  10.838  0.00  0.00     0.280 C 
BRANCH   7   8
HETATM    8  C   UNK N   1      35.510  15.489  11.211  0.00  0.00     0.108 C 
BRANCH   8   9
HETATM    9  C   UNK N   1      34.282  15.355  10.379  0.00  0.00     0.101 A 
HETATM   10  N   UNK N   1      33.914  16.224   9.424  0.00  0.00    -0.324 N 
HETATM   11  C   UNK N   1      34.604  17.422   8.948  0.00  0.00     0.131 C 
HETATM   12  C   UNK N   1      32.729  15.769   8.998  0.00  0.00     0.099 A 
HETATM   13  C   UNK N   1      33.942  17.953   7.669  0.00  0.00     0.021 C 
HETATM   14  C   UNK N   1      32.416  17.900   7.768  0.00  0.00     0.009 C 
HETATM   15  C   UNK N   1      31.908  16.465   7.960  0.00  0.00     0.078 C 
HETATM   16  N   UNK N   1      32.381  14.644   9.652  0.00  0.00    -0.287 N 
HETATM   17  N   UNK N   1      33.353  14.385  10.521  0.00  0.00    -0.287 N 
ATOM     18  HN  UNK N   1      31.533  14.097   9.509  1.00  0.00     0.188 HD
ATOM     19  HN  UNK N   1      33.390  13.601  11.173  1.00  0.00     0.188 HD
ENDBRANCH   8   9
ENDBRANCH   7   8
ENDBRANCH   1   7
BRANCH   2  20
HETATM   20  C   UNK N   1      36.051  10.897  15.104  0.00  0.00     0.036 A 
HETATM   21  C   UNK N   1      34.730  10.483  15.457  0.00  0.00    -0.035 A 
HETATM   22  C   UNK N   1      34.547   9.559  16.494  0.00  0.00     0.009 A 
HETATM   23  C   UNK N   1      33.500  10.984  14.781  0.00  0.00     0.050 C 
HETATM   24  C   UNK N   1      35.635   9.033  17.188  0.00  0.00     0.001 A 
HETATM   25  C   UNK N   1      36.926   9.422  16.850  0.00  0.00     0.002 A 
HETATM   26  C   UNK N   1      37.129  10.341  15.822  0.00  0.00     0.030 A 
ENDBRANCH   2  20
TORSDOF 4
ENDMDL
MODEL 6
REMARK VINA RESULT:      -6.9      2.561      9.087
REMARK  4 active torsions:
REMARK  status: ('A' for Active; 'I' for Inactive)
REMARK    1  A    between atoms: N_1  and  C_10 
REMARK    2  A    between atoms: N_2  and  C_20 
REMARK    3  A    between atoms: C_10  and  C_13 
REMARK    4  A    between atoms: C_13  and  C_15 
ROOT
HETATM    1  N   UNK N   1      34.702  16.132  10.062  0.00  0.00     0.092 N 
HETATM    2  N   UNK N   1      32.560  16.724   8.375  0.00  0.00    -0.377 N 
HETATM    3  C   UNK N   1      34.890  17.189   9.075  0.00  0.00     0.292 C 
HETATM    4  C   UNK N   1      34.005  15.039   9.402  0.00  0.00     0.292 C 
HETATM    5  C   UNK N   1      33.513  17.773   8.725  0.00  0.00     0.153 C 
HETATM    6  C   UNK N   1      32.579  15.491   9.149  0.00  0.00     0.153 C 
ENDROOT
BRANCH   1   7
HETATM    7  C   UNK N   1      35.970  15.637  10.573  0.00  0.00     0.280 C 
BRANCH   7   8
HETATM    8  C   UNK N   1      35.703  15.104  11.974  0.00  0.00     0.108 C 
BRANCH   8   9
HETATM    9  C   UNK N   1      36.479  13.881  12.323  0.00  0.00     0.101 A 
HETATM   10  N   UNK N   1      36.243  13.116  13.401  0.00  0.00    -0.324 N 
HETATM   11  C   UNK N   1      35.199  13.244  14.416  0.00  0.00     0.131 C 
HETATM   12  C   UNK N   1      37.210  12.191  13.370  0.00  0.00     0.099 A 
HETATM   13  C   UNK N   1      35.156  11.995  15.307  0.00  0.00     0.021 C 
HETATM   14  C   UNK N   1      36.566  11.522  15.670  0.00  0.00     0.009 C 
HETATM   15  C   UNK N   1      37.377  11.143  14.424  0.00  0.00     0.078 C 
HETATM   16  N   UNK N   1      38.010  12.365  12.300  0.00  0.00    -0.287 N 
HETATM   17  N   UNK N   1      37.553  13.427  11.644  0.00  0.00    -0.287 N 
ATOM     18  HN  UNK N   1      38.813  11.791  12.043  1.00  0.00     0.188 HD
ATOM     19  HN  UNK N   1      37.942  13.824  10.789  1.00  0.00     0.188 HD
ENDBRANCH   8   9
ENDBRANCH   7   8
ENDBRANCH   1   7
BRANCH   2  20
HETATM   20  C   UNK N   1      31.454  16.953   7.479  0.00  0.00     0.036 A 
HETATM   21  C   UNK N   1      31.579  17.002   6.057  0.00  0.00    -0.035 A 
HETATM   22  C   UNK N   1      30.448  17.255   5.269  0.00  0.00     0.009 A 
HETATM   23  C   UNK N   1      32.866  16.799   5.335  0.00  0.00     0.050 C 
HETATM   24  C   UNK N   1      29.199  17.460   5.852  0.00  0.00     0.001 A 
HETATM   25  C   UNK N   1      29.061  17.408   7.234  0.00  0.00     0.002 A 
HETATM   26  C   UNK N   1      30.174  17.158   8.035  0.00  0.00     0.030 A 
ENDBRANCH   2  20
TORSDOF 4
ENDMDL
MODEL 7
REMARK VINA RESULT:      -6.8      1.575      2.055
REMARK  4 active torsions:
REMARK  status: ('A' for Active; 'I' for Inactive)
REMARK    1  A    between atoms: N_1  and  C_10 
REMARK    2  A    between atoms: N_2  and  C_20 
REMARK    3  A    between atoms: C_10  and  C_13 
REMARK    4  A    between atoms: C_13  and  C_15 
ROOT
HETATM    1  N   UNK N   1      35.404  14.135  12.916  0.00  0.00     0.092 N 
HETATM    2  N   UNK N   1      35.675  12.041  14.740  0.00  0.00    -0.377 N 
HETATM    3  C   UNK N   1      35.310  12.774  12.402  0.00  0.00     0.292 C 
HETATM    4  C   UNK N   1      36.507  14.167  13.864  0.00  0.00     0.292 C 
HETATM    5  C   UNK N   1      34.854  11.856  13.547  0.00  0.00     0.153 C 
HETATM    6  C   UNK N   1      36.077  13.394  15.096  0.00  0.00     0.153 C 
ENDROOT
BRANCH   1   7
HETATM    7  C   UNK N   1      35.669  15.097  11.858  0.00  0.00     0.280 C 
BRANCH   7   8
HETATM    8  C   UNK N   1      34.484  15.040  10.904  0.00  0.00     0.108 C 
BRANCH   8   9
HETATM    9  C   UNK N   1      34.449  16.144   9.905  0.00  0.00     0.101 A 
HETATM   10  N   UNK N   1      33.905  16.043   8.682  0.00  0.00    -0.324 N 
HETATM   11  C   UNK N   1      33.206  14.913   8.071  0.00  0.00     0.131 C 
HETATM   12  C   UNK N   1      34.166  17.221   8.102  0.00  0.00     0.099 A 
HETATM   13  C   UNK N   1      32.529  15.342   6.761  0.00  0.00     0.021 C 
HETATM   14  C   UNK N   1      33.441  16.254   5.936  0.00  0.00     0.009 C 
HETATM   15  C   UNK N   1      33.789  17.544   6.691  0.00  0.00     0.078 C 
HETATM   16  N   UNK N   1      34.833  18.035   8.943  0.00  0.00    -0.287 N 
HETATM   17  N   UNK N   1      35.014  17.359  10.073  0.00  0.00    -0.287 N 
ATOM     18  HN  UNK N   1      35.142  18.987   8.749  1.00  0.00     0.188 HD
ATOM     19  HN  UNK N   1      35.490  17.695  10.911  1.00  0.00     0.188 HD
ENDBRANCH   8   9
ENDBRANCH   7   8
ENDBRANCH   1   7
BRANCH   2  20
HETATM   20  C   UNK N   1      35.888  10.988  15.702  0.00  0.00     0.036 A 
HETATM   21  C   UNK N   1      37.020  10.118  15.692  0.00  0.00    -0.035 A 
HETATM   22  C   UNK N   1      37.126   9.106  16.656  0.00  0.00     0.009 A 
HETATM   23  C   UNK N   1      38.125  10.213  14.697  0.00  0.00     0.050 C 
HETATM   24  C   UNK N   1      36.143   8.935  17.628  0.00  0.00     0.001 A 
HETATM   25  C   UNK N   1      35.039   9.779  17.654  0.00  0.00     0.002 A 
HETATM   26  C   UNK N   1      34.914  10.791  16.703  0.00  0.00     0.030 A 
ENDBRANCH   2  20
TORSDOF 4
ENDMDL
MODEL 8
REMARK VINA RESULT:      -6.7      1.197      8.759
REMARK  4 active torsions:
REMARK  status: ('A' for Active; 'I' for Inactive)
REMARK    1  A    between atoms: N_1  and  C_10 
REMARK    2  A    between atoms: N_2  and  C_20 
REMARK    3  A    between atoms: C_10  and  C_13 
REMARK    4  A    between atoms: C_13  and  C_15 
ROOT
HETATM    1  N   UNK N   1      36.291  13.521  12.084  0.00  0.00     0.092 N 
HETATM    2  N   UNK N   1      35.416  15.135   9.983  0.00  0.00    -0.377 N 
HETATM    3  C   UNK N   1      37.118  13.577  10.884  0.00  0.00     0.292 C 
HETATM    4  C   UNK N   1      34.905  13.424  11.654  0.00  0.00     0.292 C 
HETATM    5  C   UNK N   1      36.846  14.912  10.173  0.00  0.00     0.153 C 
HETATM    6  C   UNK N   1      34.512  14.765  11.062  0.00  0.00     0.153 C 
ENDROOT
BRANCH   1   7
HETATM    7  C   UNK N   1      36.608  12.365  12.907  0.00  0.00     0.280 C 
BRANCH   7   8
HETATM    8  C   UNK N   1      36.813  12.875  14.326  0.00  0.00     0.108 C 
BRANCH   8   9
HETATM    9  C   UNK N   1      36.360  11.934  15.388  0.00  0.00     0.101 A 
HETATM   10  N   UNK N   1      35.912  12.312  16.595  0.00  0.00    -0.324 N 
HETATM   11  C   UNK N   1      35.714  13.659  17.129  0.00  0.00     0.131 C 
HETATM   12  C   UNK N   1      35.698  11.162  17.246  0.00  0.00     0.099 A 
HETATM   13  C   UNK N   1      34.938  13.607  18.452  0.00  0.00     0.021 C 
HETATM   14  C   UNK N   1      35.430  12.463  19.342  0.00  0.00     0.009 C 
HETATM   15  C   UNK N   1      35.240  11.097  18.668  0.00  0.00     0.078 C 
HETATM   16  N   UNK N   1      35.987  10.104  16.464  0.00  0.00    -0.287 N 
HETATM   17  N   UNK N   1      36.405  10.588  15.299  0.00  0.00    -0.287 N 
ATOM     18  HN  UNK N   1      35.902   9.121  16.718  1.00  0.00     0.188 HD
ATOM     19  HN  UNK N   1      36.704  10.044  14.489  1.00  0.00     0.188 HD
ENDBRANCH   8   9
ENDBRANCH   7   8
ENDBRANCH   1   7
BRANCH   2  20
HETATM   20  C   UNK N   1      34.896  15.926   8.896  0.00  0.00     0.036 A 
HETATM   21  C   UNK N   1      34.643  15.412   7.588  0.00  0.00    -0.035 A 
HETATM   22  C   UNK N   1      34.159  16.266   6.588  0.00  0.00     0.009 A 
HETATM   23  C   UNK N   1      34.866  13.990   7.203  0.00  0.00     0.050 C 
HETATM   24  C   UNK N   1      33.918  17.614   6.849  0.00  0.00     0.001 A 
HETATM   25  C   UNK N   1      34.154  18.126   8.120  0.00  0.00     0.002 A 
HETATM   26  C   UNK N   1      34.636  17.293   9.128  0.00  0.00     0.030 A 
ENDBRANCH   2  20
TORSDOF 4
ENDMDL
MODEL 9
REMARK VINA RESULT:      -6.7      1.883      8.893
REMARK  4 active torsions:
REMARK  status: ('A' for Active; 'I' for Inactive)
REMARK    1  A    between atoms: N_1  and  C_10 
REMARK    2  A    between atoms: N_2  and  C_20 
REMARK    3  A    between atoms: C_10  and  C_13 
REMARK    4  A    between atoms: C_13  and  C_15 
ROOT
HETATM    1  N   UNK N   1      35.032  13.115   9.707  0.00  0.00     0.092 N 
HETATM    2  N   UNK N   1      34.339  14.719   7.532  0.00  0.00    -0.377 N 
HETATM    3  C   UNK N   1      36.005  13.251   8.629  0.00  0.00     0.292 C 
HETATM    4  C   UNK N   1      33.724  12.941   9.095  0.00  0.00     0.292 C 
HETATM    5  C   UNK N   1      35.742  14.582   7.907  0.00  0.00     0.153 C 
HETATM    6  C   UNK N   1      33.327  14.268   8.476  0.00  0.00     0.153 C 
ENDROOT
BRANCH   1   7
HETATM    7  C   UNK N   1      35.312  11.962  10.547  0.00  0.00     0.280 C 
BRANCH   7   8
HETATM    8  C   UNK N   1      36.690  12.184  11.156  0.00  0.00     0.108 C 
BRANCH   8   9
HETATM    9  C   UNK N   1      36.692  13.047  12.370  0.00  0.00     0.101 A 
HETATM   10  N   UNK N   1      36.520  12.594  13.622  0.00  0.00    -0.324 N 
HETATM   11  C   UNK N   1      36.348  11.221  14.094  0.00  0.00     0.131 C 
HETATM   12  C   UNK N   1      36.510  13.699  14.378  0.00  0.00     0.099 A 
HETATM   13  C   UNK N   1      36.451  11.160  15.624  0.00  0.00     0.021 C 
HETATM   14  C   UNK N   1      35.705  12.325  16.279  0.00  0.00     0.009 C 
HETATM   15  C   UNK N   1      36.285  13.681  15.856  0.00  0.00     0.078 C 
HETATM   16  N   UNK N   1      36.688  14.801  13.623  0.00  0.00    -0.287 N 
HETATM   17  N   UNK N   1      36.800  14.393  12.363  0.00  0.00    -0.287 N 
ATOM     18  HN  UNK N   1      36.728  15.764  13.955  1.00  0.00     0.188 HD
ATOM     19  HN  UNK N   1      36.940  14.985  11.544  1.00  0.00     0.188 HD
ENDBRANCH   8   9
ENDBRANCH   7   8
ENDBRANCH   1   7
BRANCH   2  20
HETATM   20  C   UNK N   1      33.916  15.501   6.397  0.00  0.00     0.036 A 
HETATM   21  C   UNK N   1      33.775  16.922   6.416  0.00  0.00    -0.035 A 
HETATM   22  C   UNK N   1      33.333  17.592   5.267  0.00  0.00     0.009 A 
HETATM   23  C   UNK N   1      34.073  17.764   7.609  0.00  0.00     0.050 C 
HETATM   24  C   UNK N   1      33.028  16.892   4.101  0.00  0.00     0.001 A 
HETATM   25  C   UNK N   1      33.166  15.509   4.066  0.00  0.00     0.002 A 
HETATM   26  C   UNK N   1      33.604  14.825   5.199  0.00  0.00     0.030 A 
ENDBRANCH   2  20
TORSDOF 4
ENDMDL
