REMARK  7 active torsions:
REMARK  status: ('A' for Active; 'I' for Inactive)
REMARK    1  A    between atoms: O_1  and  C_14 
REMARK    2  A    between atoms: O_2  and  C_15 
REMARK    3  A    between atoms: N_4  and  C_13 
REMARK       I    between atoms: N_10  and  C_20 
REMARK    4  A    between atoms: C_11  and  C_12 
REMARK    5  A    between atoms: C_11  and  C_14 
REMARK    6  A    between atoms: C_11  and  C_15 
REMARK    7  A    between atoms: C_12  and  C_13 
ROOT
HETATM    1  O   UNK N   1       2.398  -4.481   0.076  0.00  0.00    -0.265 OA
HETATM    2  N   UNK N   1       5.008  -0.870  -0.080  0.00  0.00    -0.327 N 
HETATM    3  N   UNK N   1       2.629  -0.501  -0.066  0.00  0.00    -0.174 N 
HETATM    4  N   UNK N   1       4.949  -3.114   0.015  0.00  0.00    -0.345 N 
ATOM      5  HN  UNK N   1       5.234  -4.093   0.052  1.00  0.00     0.167 HD
HETATM    6  N   UNK N   1       1.331  -2.492   0.022  0.00  0.00    -0.154 N 
ATOM      7  HN  UNK N   1       0.416  -2.942   0.048  1.00  0.00     0.187 HD
HETATM    8  N   UNK N   1       0.234  -0.347  -0.030  0.00  0.00    -0.234 N 
HETATM    9  C   UNK N   1       3.740  -1.275  -0.050  0.00  0.00     0.156 A 
HETATM   10  C   UNK N   1       3.695  -2.618   0.004  0.00  0.00     0.147 A 
HETATM   11  C   UNK N   1       5.748  -2.009  -0.037  0.00  0.00     0.185 A 
HETATM   12  C   UNK N   1       2.472  -3.267   0.037  0.00  0.00     0.290 A 
HETATM   13  C   UNK N   1       1.411  -1.120  -0.025  0.00  0.00     0.680 A 
HETATM   14  H   UNK N   1       2.696   0.480  -0.107  0.00  0.00     0.186 HD
HETATM   15  H   UNK N   1       0.291   0.636  -0.033  0.00  0.00     0.174 HD
HETATM   16  H   UNK N   1      -0.646  -0.789  -0.030  0.00  0.00     0.174 HD
ENDROOT
BRANCH   2  17
HETATM   17  C   UNK N   1       5.433   0.521  -0.168  0.00  0.00     0.132 C 
BRANCH  17  18
HETATM   18  C   UNK N   1       6.912   0.728   0.122  0.00  0.00     0.029 C 
BRANCH  18  19
HETATM   19  C   UNK N   1       7.315   2.161  -0.212  0.00  0.00     0.034 C 
BRANCH  19  20
HETATM   20  C   UNK N   1       6.394   3.169   0.477  0.00  0.00     0.170 C 
BRANCH  20  21
HETATM   21  O   UNK N   1       6.523   4.427  -0.113  0.00  0.00    -0.400 OA
HETATM   22  H   UNK N   1       7.325   4.786  -0.523  0.00  0.00     0.209 HD
ENDBRANCH  20  21
ENDBRANCH  19  20
BRANCH  19  23
HETATM   23  C   UNK N   1       8.757   2.369   0.226  0.00  0.00     0.170 C 
BRANCH  23  24
HETATM   24  O   UNK N   1       9.226   3.613  -0.196  0.00  0.00    -0.400 OA
HETATM   25  H   UNK N   1      10.139   3.764  -0.489  0.00  0.00     0.209 HD
ENDBRANCH  23  24
ENDBRANCH  19  23
ENDBRANCH  18  19
ENDBRANCH  17  18
ENDBRANCH   2  17
TORSDOF 7
