MODEL 1
REMARK VINA RESULT:      -5.6      0.000      0.000
REMARK  7 active torsions:
REMARK  status: ('A' for Active; 'I' for Inactive)
REMARK    1  A    between atoms: O_1  and  C_14 
REMARK    2  A    between atoms: O_2  and  C_15 
REMARK    3  A    between atoms: N_4  and  C_13 
REMARK       I    between atoms: N_10  and  C_20 
REMARK    4  A    between atoms: C_11  and  C_12 
REMARK    5  A    between atoms: C_11  and  C_14 
REMARK    6  A    between atoms: C_11  and  C_15 
REMARK    7  A    between atoms: C_12  and  C_13 
ROOT
HETATM    1  O   UNK N   1      24.903  23.272  -8.495  0.00  0.00    -0.265 OA
HETATM    2  N   UNK N   1      28.682  22.505  -6.257  0.00  0.00    -0.327 N 
HETATM    3  N   UNK N   1      27.316  24.338  -5.502  0.00  0.00    -0.174 N 
HETATM    4  N   UNK N   1      27.361  21.843  -7.949  0.00  0.00    -0.345 N 
ATOM      5  HN  UNK N   1      26.991  21.330  -8.750  1.00  0.00     0.167 HD
HETATM    6  N   UNK N   1      25.324  24.657  -6.762  0.00  0.00    -0.154 N 
ATOM      7  HN  UNK N   1      24.462  25.178  -6.923  1.00  0.00     0.187 HD
HETATM    8  N   UNK N   1      25.809  26.107  -4.900  0.00  0.00    -0.234 N 
HETATM    9  C   UNK N   1      27.612  23.295  -6.313  0.00  0.00     0.156 A 
HETATM   10  C   UNK N   1      26.816  22.907  -7.326  0.00  0.00     0.147 A 
HETATM   11  C   UNK N   1      28.520  21.611  -7.267  0.00  0.00     0.185 A 
HETATM   12  C   UNK N   1      25.639  23.592  -7.580  0.00  0.00     0.290 A 
HETATM   13  C   UNK N   1      26.155  25.023  -5.729  0.00  0.00     0.680 A 
HETATM   14  H   UNK N   1      27.920  24.597  -4.770  0.00  0.00     0.186 HD
HETATM   15  H   UNK N   1      26.389  26.351  -4.142  0.00  0.00     0.174 HD
HETATM   16  H   UNK N   1      24.989  26.622  -5.077  0.00  0.00     0.174 HD
ENDROOT
BRANCH   2  17
HETATM   17  C   UNK N   1      29.771  22.651  -5.300  0.00  0.00     0.132 C 
BRANCH  17  18
HETATM   18  C   UNK N   1      30.295  21.327  -4.764  0.00  0.00     0.029 C 
BRANCH  18  19
HETATM   19  C   UNK N   1      30.806  21.506  -3.337  0.00  0.00     0.034 C 
BRANCH  19  20
HETATM   20  C   UNK N   1      32.324  21.334  -3.268  0.00  0.00     0.170 C 
BRANCH  20  21
HETATM   21  O   UNK N   1      32.739  21.213  -1.941  0.00  0.00    -0.400 OA
HETATM   22  H   UNK N   1      32.197  21.382  -1.155  0.00  0.00     0.209 HD
ENDBRANCH  20  21
ENDBRANCH  19  20
BRANCH  19  23
HETATM   23  C   UNK N   1      30.402  22.890  -2.852  0.00  0.00     0.170 C 
BRANCH  23  24
HETATM   24  O   UNK N   1      30.476  22.966  -1.461  0.00  0.00    -0.400 OA
HETATM   25  H   UNK N   1      31.281  22.756  -0.961  0.00  0.00     0.209 HD
ENDBRANCH  23  24
ENDBRANCH  19  23
ENDBRANCH  18  19
ENDBRANCH  17  18
ENDBRANCH   2  17
TORSDOF 7
ENDMDL
MODEL 2
REMARK VINA RESULT:      -5.6     18.930     21.793
REMARK  7 active torsions:
REMARK  status: ('A' for Active; 'I' for Inactive)
REMARK    1  A    between atoms: O_1  and  C_14 
REMARK    2  A    between atoms: O_2  and  C_15 
REMARK    3  A    between atoms: N_4  and  C_13 
REMARK       I    between atoms: N_10  and  C_20 
REMARK    4  A    between atoms: C_11  and  C_12 
REMARK    5  A    between atoms: C_11  and  C_14 
REMARK    6  A    between atoms: C_11  and  C_15 
REMARK    7  A    between atoms: C_12  and  C_13 
ROOT
HETATM    1  O   UNK N   1      34.852  11.806  15.887  0.00  0.00    -0.265 OA
HETATM    2  N   UNK N   1      35.757  13.709  11.957  0.00  0.00    -0.327 N 
HETATM    3  N   UNK N   1      36.701  14.742  13.917  0.00  0.00    -0.174 N 
HETATM    4  N   UNK N   1      34.704  12.022  13.004  0.00  0.00    -0.345 N 
ATOM      5  HN  UNK N   1      34.144  11.188  13.183  1.00  0.00     0.167 HD
HETATM    6  N   UNK N   1      36.160  13.646  15.957  0.00  0.00    -0.154 N 
ATOM      7  HN  UNK N   1      36.237  13.595  16.973  1.00  0.00     0.187 HD
HETATM    8  N   UNK N   1      37.558  15.608  15.984  0.00  0.00    -0.234 N 
HETATM    9  C   UNK N   1      35.970  13.804  13.268  0.00  0.00     0.156 A 
HETATM   10  C   UNK N   1      35.341  12.799  13.903  0.00  0.00     0.147 A 
HETATM   11  C   UNK N   1      34.977  12.607  11.801  0.00  0.00     0.185 A 
HETATM   12  C   UNK N   1      35.419  12.698  15.282  0.00  0.00     0.290 A 
HETATM   13  C   UNK N   1      36.798  14.656  15.277  0.00  0.00     0.680 A 
HETATM   14  H   UNK N   1      37.149  15.465  13.422  0.00  0.00     0.186 HD
HETATM   15  H   UNK N   1      38.040  16.314  15.496  0.00  0.00     0.174 HD
HETATM   16  H   UNK N   1      37.607  15.568  16.967  0.00  0.00     0.174 HD
ENDROOT
BRANCH   2  17
HETATM   17  C   UNK N   1      36.264  14.646  10.964  0.00  0.00     0.132 C 
BRANCH  17  18
HETATM   18  C   UNK N   1      35.410  15.895  10.809  0.00  0.00     0.029 C 
BRANCH  18  19
HETATM   19  C   UNK N   1      34.641  15.843   9.492  0.00  0.00     0.034 C 
BRANCH  19  20
HETATM   20  C   UNK N   1      33.392  14.969   9.616  0.00  0.00     0.170 C 
BRANCH  20  21
HETATM   21  O   UNK N   1      32.799  15.143  10.867  0.00  0.00    -0.400 OA
HETATM   22  H   UNK N   1      33.265  15.273  11.707  0.00  0.00     0.209 HD
ENDBRANCH  20  21
ENDBRANCH  19  20
BRANCH  19  23
HETATM   23  C   UNK N   1      34.262  17.264   9.101  0.00  0.00     0.170 C 
BRANCH  23  24
HETATM   24  O   UNK N   1      32.876  17.402   9.028  0.00  0.00    -0.400 OA
HETATM   25  H   UNK N   1      32.264  16.923   9.610  0.00  0.00     0.209 HD
ENDBRANCH  23  24
ENDBRANCH  19  23
ENDBRANCH  18  19
ENDBRANCH  17  18
ENDBRANCH   2  17
TORSDOF 7
ENDMDL
MODEL 3
REMARK VINA RESULT:      -5.5     10.439     11.200
REMARK  7 active torsions:
REMARK  status: ('A' for Active; 'I' for Inactive)
REMARK    1  A    between atoms: O_1  and  C_14 
REMARK    2  A    between atoms: O_2  and  C_15 
REMARK    3  A    between atoms: N_4  and  C_13 
REMARK       I    between atoms: N_10  and  C_20 
REMARK    4  A    between atoms: C_11  and  C_12 
REMARK    5  A    between atoms: C_11  and  C_14 
REMARK    6  A    between atoms: C_11  and  C_15 
REMARK    7  A    between atoms: C_12  and  C_13 
ROOT
HETATM    1  O   UNK N   1      19.462  17.572   3.422  0.00  0.00    -0.265 OA
HETATM    2  N   UNK N   1      23.484  19.455   3.812  0.00  0.00    -0.327 N 
HETATM    3  N   UNK N   1      21.970  20.429   2.215  0.00  0.00    -0.174 N 
HETATM    4  N   UNK N   1      22.116  17.832   4.549  0.00  0.00    -0.345 N 
ATOM      5  HN  UNK N   1      21.746  17.031   5.061  1.00  0.00     0.167 HD
HETATM    6  N   UNK N   1      19.854  19.352   2.089  0.00  0.00    -0.154 N 
ATOM      7  HN  UNK N   1      18.923  19.291   1.676  1.00  0.00     0.187 HD
HETATM    8  N   UNK N   1      20.313  21.259   0.690  0.00  0.00    -0.234 N 
HETATM    9  C   UNK N   1      22.323  19.533   3.166  0.00  0.00     0.156 A 
HETATM   10  C   UNK N   1      21.498  18.563   3.598  0.00  0.00     0.147 A 
HETATM   11  C   UNK N   1      23.349  18.405   4.665  0.00  0.00     0.185 A 
HETATM   12  C   UNK N   1      20.228  18.445   3.059  0.00  0.00     0.290 A 
HETATM   13  C   UNK N   1      20.718  20.338   1.675  0.00  0.00     0.680 A 
HETATM   14  H   UNK N   1      22.598  21.127   1.919  0.00  0.00     0.186 HD
HETATM   15  H   UNK N   1      20.920  21.984   0.415  0.00  0.00     0.174 HD
HETATM   16  H   UNK N   1      19.422  21.180   0.277  0.00  0.00     0.174 HD
ENDROOT
BRANCH   2  17
HETATM   17  C   UNK N   1      24.625  20.331   3.579  0.00  0.00     0.132 C 
BRANCH  17  18
HETATM   18  C   UNK N   1      25.945  19.591   3.430  0.00  0.00     0.029 C 
BRANCH  18  19
HETATM   19  C   UNK N   1      26.983  20.175   4.383  0.00  0.00     0.034 C 
BRANCH  19  20
HETATM   20  C   UNK N   1      26.314  20.898   5.553  0.00  0.00     0.170 C 
BRANCH  20  21
HETATM   21  O   UNK N   1      26.507  20.187   6.738  0.00  0.00    -0.400 OA
HETATM   22  H   UNK N   1      25.919  20.192   7.509  0.00  0.00     0.209 HD
ENDBRANCH  20  21
ENDBRANCH  19  20
BRANCH  19  23
HETATM   23  C   UNK N   1      27.862  19.041   4.890  0.00  0.00     0.170 C 
BRANCH  23  24
HETATM   24  O   UNK N   1      28.543  18.435   3.833  0.00  0.00    -0.400 OA
HETATM   25  H   UNK N   1      29.225  18.889   3.312  0.00  0.00     0.209 HD
ENDBRANCH  23  24
ENDBRANCH  19  23
ENDBRANCH  18  19
ENDBRANCH  17  18
ENDBRANCH   2  17
TORSDOF 7
ENDMDL
MODEL 4
REMARK VINA RESULT:      -5.5     15.080     16.153
REMARK  7 active torsions:
REMARK  status: ('A' for Active; 'I' for Inactive)
REMARK    1  A    between atoms: O_1  and  C_14 
REMARK    2  A    between atoms: O_2  and  C_15 
REMARK    3  A    between atoms: N_4  and  C_13 
REMARK       I    between atoms: N_10  and  C_20 
REMARK    4  A    between atoms: C_11  and  C_12 
REMARK    5  A    between atoms: C_11  and  C_14 
REMARK    6  A    between atoms: C_11  and  C_15 
REMARK    7  A    between atoms: C_12  and  C_13 
ROOT
HETATM    1  O   UNK N   1      19.973  13.889   9.380  0.00  0.00    -0.265 OA
HETATM    2  N   UNK N   1      21.609  17.038   6.680  0.00  0.00    -0.327 N 
HETATM    3  N   UNK N   1      19.741  17.650   8.070  0.00  0.00    -0.174 N 
HETATM    4  N   UNK N   1      21.804  14.913   7.386  0.00  0.00    -0.345 N 
ATOM      5  HN  UNK N   1      22.128  13.952   7.497  1.00  0.00     0.167 HD
HETATM    6  N   UNK N   1      18.950  15.900   9.473  0.00  0.00    -0.154 N 
ATOM      7  HN  UNK N   1      18.292  15.573  10.181  1.00  0.00     0.187 HD
HETATM    8  N   UNK N   1      17.892  18.064   9.544  0.00  0.00    -0.234 N 
HETATM    9  C   UNK N   1      20.676  16.792   7.598  0.00  0.00     0.156 A 
HETATM   10  C   UNK N   1      20.784  15.521   8.024  0.00  0.00     0.147 A 
HETATM   11  C   UNK N   1      22.302  15.876   6.556  0.00  0.00     0.185 A 
HETATM   12  C   UNK N   1      19.908  15.037   8.982  0.00  0.00     0.290 A 
HETATM   13  C   UNK N   1      18.871  17.197   9.023  0.00  0.00     0.680 A 
HETATM   14  H   UNK N   1      19.688  18.575   7.737  0.00  0.00     0.186 HD
HETATM   15  H   UNK N   1      17.855  19.001   9.244  0.00  0.00     0.174 HD
HETATM   16  H   UNK N   1      17.245  17.734  10.209  0.00  0.00     0.174 HD
ENDROOT
BRANCH   2  17
HETATM   17  C   UNK N   1      21.771  18.305   5.980  0.00  0.00     0.132 C 
BRANCH  17  18
HETATM   18  C   UNK N   1      21.891  18.159   4.471  0.00  0.00     0.029 C 
BRANCH  18  19
HETATM   19  C   UNK N   1      21.159  19.303   3.775  0.00  0.00     0.034 C 
BRANCH  19  20
HETATM   20  C   UNK N   1      22.108  20.106   2.885  0.00  0.00     0.170 C 
BRANCH  20  21
HETATM   21  O   UNK N   1      21.703  21.440   2.823  0.00  0.00    -0.400 OA
HETATM   22  H   UNK N   1      21.524  21.946   2.016  0.00  0.00     0.209 HD
ENDBRANCH  20  21
ENDBRANCH  19  20
BRANCH  19  23
HETATM   23  C   UNK N   1      20.024  18.715   2.950  0.00  0.00     0.170 C 
BRANCH  23  24
HETATM   24  O   UNK N   1      19.525  19.659   2.053  0.00  0.00    -0.400 OA
HETATM   25  H   UNK N   1      19.725  19.645   1.103  0.00  0.00     0.209 HD
ENDBRANCH  23  24
ENDBRANCH  19  23
ENDBRANCH  18  19
ENDBRANCH  17  18
ENDBRANCH   2  17
TORSDOF 7
ENDMDL
MODEL 5
REMARK VINA RESULT:      -5.5     17.163     18.174
REMARK  7 active torsions:
REMARK  status: ('A' for Active; 'I' for Inactive)
REMARK    1  A    between atoms: O_1  and  C_14 
REMARK    2  A    between atoms: O_2  and  C_15 
REMARK    3  A    between atoms: N_4  and  C_13 
REMARK       I    between atoms: N_10  and  C_20 
REMARK    4  A    between atoms: C_11  and  C_12 
REMARK    5  A    between atoms: C_11  and  C_14 
REMARK    6  A    between atoms: C_11  and  C_15 
REMARK    7  A    between atoms: C_12  and  C_13 
ROOT
HETATM    1  O   UNK N   1      20.985  17.723   6.940  0.00  0.00    -0.265 OA
HETATM    2  N   UNK N   1      21.310  13.768   8.972  0.00  0.00    -0.327 N 
HETATM    3  N   UNK N   1      23.031  14.327   7.384  0.00  0.00    -0.174 N 
HETATM    4  N   UNK N   1      20.120  15.664   8.781  0.00  0.00    -0.345 N 
ATOM      5  HN  UNK N   1      19.401  16.377   8.908  1.00  0.00     0.167 HD
HETATM    6  N   UNK N   1      22.764  16.458   6.362  0.00  0.00    -0.154 N 
ATOM      7  HN  UNK N   1      23.100  17.166   5.708  1.00  0.00     0.187 HD
HETATM    8  N   UNK N   1      24.652  15.078   5.780  0.00  0.00    -0.234 N 
HETATM    9  C   UNK N   1      21.897  14.567   8.083  0.00  0.00     0.156 A 
HETATM   10  C   UNK N   1      21.189  15.704   7.960  0.00  0.00     0.147 A 
HETATM   11  C   UNK N   1      20.217  14.451   9.400  0.00  0.00     0.185 A 
HETATM   12  C   UNK N   1      21.610  16.688   7.081  0.00  0.00     0.290 A 
HETATM   13  C   UNK N   1      23.470  15.288   6.517  0.00  0.00     0.680 A 
HETATM   14  H   UNK N   1      23.526  13.484   7.496  0.00  0.00     0.186 HD
HETATM   15  H   UNK N   1      25.174  14.253   5.913  0.00  0.00     0.174 HD
HETATM   16  H   UNK N   1      24.956  15.754   5.133  0.00  0.00     0.174 HD
ENDROOT
BRANCH   2  17
HETATM   17  C   UNK N   1      21.788  12.440   9.336  0.00  0.00     0.132 C 
BRANCH  17  18
HETATM   18  C   UNK N   1      21.690  12.142  10.824  0.00  0.00     0.029 C 
BRANCH  18  19
HETATM   19  C   UNK N   1      23.014  12.464  11.510  0.00  0.00     0.034 C 
BRANCH  19  20
HETATM   20  C   UNK N   1      23.139  11.726  12.844  0.00  0.00     0.170 C 
BRANCH  20  21
HETATM   21  O   UNK N   1      23.938  12.452  13.728  0.00  0.00    -0.400 OA
HETATM   22  H   UNK N   1      24.778  12.157  14.113  0.00  0.00     0.209 HD
ENDBRANCH  20  21
ENDBRANCH  19  20
BRANCH  19  23
HETATM   23  C   UNK N   1      24.148  12.071  10.574  0.00  0.00     0.170 C 
BRANCH  23  24
HETATM   24  O   UNK N   1      25.264  12.880  10.787  0.00  0.00    -0.400 OA
HETATM   25  H   UNK N   1      25.978  12.646  11.402  0.00  0.00     0.209 HD
ENDBRANCH  23  24
ENDBRANCH  19  23
ENDBRANCH  18  19
ENDBRANCH  17  18
ENDBRANCH   2  17
TORSDOF 7
ENDMDL
MODEL 6
REMARK VINA RESULT:      -5.4     13.462     14.181
REMARK  7 active torsions:
REMARK  status: ('A' for Active; 'I' for Inactive)
REMARK    1  A    between atoms: O_1  and  C_14 
REMARK    2  A    between atoms: O_2  and  C_15 
REMARK    3  A    between atoms: N_4  and  C_13 
REMARK       I    between atoms: N_10  and  C_20 
REMARK    4  A    between atoms: C_11  and  C_12 
REMARK    5  A    between atoms: C_11  and  C_14 
REMARK    6  A    between atoms: C_11  and  C_15 
REMARK    7  A    between atoms: C_12  and  C_13 
ROOT
HETATM    1  O   UNK N   1      22.367  21.188   2.687  0.00  0.00    -0.265 OA
HETATM    2  N   UNK N   1      22.340  17.208   4.696  0.00  0.00    -0.327 N 
HETATM    3  N   UNK N   1      20.341  17.853   3.519  0.00  0.00    -0.174 N 
HETATM    4  N   UNK N   1      23.542  19.053   4.250  0.00  0.00    -0.345 N 
ATOM      5  HN  UNK N   1      24.300  19.735   4.219  1.00  0.00     0.167 HD
HETATM    6  N   UNK N   1      20.464  19.990   2.482  0.00  0.00    -0.154 N 
ATOM      7  HN  UNK N   1      20.022  20.721   1.924  1.00  0.00     0.187 HD
HETATM    8  N   UNK N   1      18.454  18.675   2.284  0.00  0.00    -0.234 N 
HETATM    9  C   UNK N   1      21.608  18.041   3.960  0.00  0.00     0.156 A 
HETATM   10  C   UNK N   1      22.319  19.151   3.691  0.00  0.00     0.147 A 
HETATM   11  C   UNK N   1      23.532  17.837   4.868  0.00  0.00     0.185 A 
HETATM   12  C   UNK N   1      21.753  20.167   2.939  0.00  0.00     0.290 A 
HETATM   13  C   UNK N   1      19.766  18.840   2.768  0.00  0.00     0.680 A 
HETATM   14  H   UNK N   1      19.848  17.030   3.735  0.00  0.00     0.186 HD
HETATM   15  H   UNK N   1      17.966  17.839   2.463  0.00  0.00     0.174 HD
HETATM   16  H   UNK N   1      18.025  19.395   1.767  0.00  0.00     0.174 HD
ENDROOT
BRANCH   2  17
HETATM   17  C   UNK N   1      21.880  15.919   5.195  0.00  0.00     0.132 C 
BRANCH  17  18
HETATM   18  C   UNK N   1      21.992  15.773   6.706  0.00  0.00     0.029 C 
BRANCH  18  19
HETATM   19  C   UNK N   1      20.639  15.389   7.296  0.00  0.00     0.034 C 
BRANCH  19  20
HETATM   20  C   UNK N   1      20.806  14.595   8.592  0.00  0.00     0.170 C 
BRANCH  20  21
HETATM   21  O   UNK N   1      19.586  14.493   9.261  0.00  0.00    -0.400 OA
HETATM   22  H   UNK N   1      19.390  14.832  10.148  0.00  0.00     0.209 HD
ENDBRANCH  20  21
ENDBRANCH  19  20
BRANCH  19  23
HETATM   23  C   UNK N   1      19.846  16.663   7.550  0.00  0.00     0.170 C 
BRANCH  23  24
HETATM   24  O   UNK N   1      20.334  17.332   8.672  0.00  0.00    -0.400 OA
HETATM   25  H   UNK N   1      20.341  16.942   9.561  0.00  0.00     0.209 HD
ENDBRANCH  23  24
ENDBRANCH  19  23
ENDBRANCH  18  19
ENDBRANCH  17  18
ENDBRANCH   2  17
TORSDOF 7
ENDMDL
MODEL 7
REMARK VINA RESULT:      -5.3     14.008     16.458
REMARK  7 active torsions:
REMARK  status: ('A' for Active; 'I' for Inactive)
REMARK    1  A    between atoms: O_1  and  C_14 
REMARK    2  A    between atoms: O_2  and  C_15 
REMARK    3  A    between atoms: N_4  and  C_13 
REMARK       I    between atoms: N_10  and  C_20 
REMARK    4  A    between atoms: C_11  and  C_12 
REMARK    5  A    between atoms: C_11  and  C_14 
REMARK    6  A    between atoms: C_11  and  C_15 
REMARK    7  A    between atoms: C_12  and  C_13 
ROOT
HETATM    1  O   UNK N   1      32.492  17.537   4.792  0.00  0.00    -0.265 OA
HETATM    2  N   UNK N   1      34.881  14.842   7.420  0.00  0.00    -0.327 N 
HETATM    3  N   UNK N   1      32.990  15.949   8.417  0.00  0.00    -0.174 N 
HETATM    4  N   UNK N   1      34.648  15.688   5.351  0.00  0.00    -0.345 N 
ATOM      5  HN  UNK N   1      34.798  15.896   4.364  1.00  0.00     0.167 HD
HETATM    6  N   UNK N   1      31.785  17.359   6.929  0.00  0.00    -0.154 N 
ATOM      7  HN  UNK N   1      31.011  18.003   6.764  1.00  0.00     0.187 HD
HETATM    8  N   UNK N   1      31.061  17.133   9.216  0.00  0.00    -0.234 N 
HETATM    9  C   UNK N   1      33.825  15.653   7.393  0.00  0.00     0.156 A 
HETATM   10  C   UNK N   1      33.680  16.167   6.159  0.00  0.00     0.147 A 
HETATM   11  C   UNK N   1      35.382  14.867   6.157  0.00  0.00     0.185 A 
HETATM   12  C   UNK N   1      32.644  17.048   5.896  0.00  0.00     0.290 A 
HETATM   13  C   UNK N   1      31.956  16.810   8.178  0.00  0.00     0.680 A 
HETATM   14  H   UNK N   1      33.124  15.557   9.310  0.00  0.00     0.186 HD
HETATM   15  H   UNK N   1      31.165  16.717  10.102  0.00  0.00     0.174 HD
HETATM   16  H   UNK N   1      30.332  17.775   9.056  0.00  0.00     0.174 HD
ENDROOT
BRANCH   2  17
HETATM   17  C   UNK N   1      35.353  14.133   8.602  0.00  0.00     0.132 C 
BRANCH  17  18
HETATM   18  C   UNK N   1      36.332  14.935   9.446  0.00  0.00     0.029 C 
BRANCH  18  19
HETATM   19  C   UNK N   1      35.803  15.074  10.870  0.00  0.00     0.034 C 
BRANCH  19  20
HETATM   20  C   UNK N   1      35.473  16.531  11.197  0.00  0.00     0.170 C 
BRANCH  20  21
HETATM   21  O   UNK N   1      35.322  17.270  10.022  0.00  0.00    -0.400 OA
HETATM   22  H   UNK N   1      35.993  17.391   9.333  0.00  0.00     0.209 HD
ENDBRANCH  20  21
ENDBRANCH  19  20
BRANCH  19  23
HETATM   23  C   UNK N   1      34.564  14.202  11.010  0.00  0.00     0.170 C 
BRANCH  23  24
HETATM   24  O   UNK N   1      33.433  14.986  11.237  0.00  0.00    -0.400 OA
HETATM   25  H   UNK N   1      33.279  15.835  10.793  0.00  0.00     0.209 HD
ENDBRANCH  23  24
ENDBRANCH  19  23
ENDBRANCH  18  19
ENDBRANCH  17  18
ENDBRANCH   2  17
TORSDOF 7
ENDMDL
MODEL 8
REMARK VINA RESULT:      -5.3     12.057     13.754
REMARK  7 active torsions:
REMARK  status: ('A' for Active; 'I' for Inactive)
REMARK    1  A    between atoms: O_1  and  C_14 
REMARK    2  A    between atoms: O_2  and  C_15 
REMARK    3  A    between atoms: N_4  and  C_13 
REMARK       I    between atoms: N_10  and  C_20 
REMARK    4  A    between atoms: C_11  and  C_12 
REMARK    5  A    between atoms: C_11  and  C_14 
REMARK    6  A    between atoms: C_11  and  C_15 
REMARK    7  A    between atoms: C_12  and  C_13 
ROOT
HETATM    1  O   UNK N   1      26.699  18.304   4.280  0.00  0.00    -0.265 OA
HETATM    2  N   UNK N   1      30.823  17.108   5.479  0.00  0.00    -0.327 N 
HETATM    3  N   UNK N   1      29.342  17.838   7.232  0.00  0.00    -0.174 N 
HETATM    4  N   UNK N   1      29.379  17.334   3.773  0.00  0.00    -0.345 N 
ATOM      5  HN  UNK N   1      28.972  17.333   2.837  1.00  0.00     0.167 HD
HETATM    6  N   UNK N   1      27.168  18.448   6.484  0.00  0.00    -0.154 N 
ATOM      7  HN  UNK N   1      26.231  18.787   6.698  1.00  0.00     0.187 HD
HETATM    8  N   UNK N   1      27.711  18.580   8.828  0.00  0.00    -0.234 N 
HETATM    9  C   UNK N   1      29.659  17.555   5.946  0.00  0.00     0.156 A 
HETATM   10  C   UNK N   1      28.788  17.696   4.930  0.00  0.00     0.147 A 
HETATM   11  C   UNK N   1      30.642  16.972   4.139  0.00  0.00     0.185 A 
HETATM   12  C   UNK N   1      27.506  18.157   5.179  0.00  0.00     0.290 A 
HETATM   13  C   UNK N   1      28.079  18.286   7.501  0.00  0.00     0.680 A 
HETATM   14  H   UNK N   1      30.003  17.725   7.952  0.00  0.00     0.186 HD
HETATM   15  H   UNK N   1      28.353  18.435   9.561  0.00  0.00     0.174 HD
HETATM   16  H   UNK N   1      26.812  18.931   9.024  0.00  0.00     0.174 HD
ENDROOT
BRANCH   2  17
HETATM   17  C   UNK N   1      32.006  16.867   6.295  0.00  0.00     0.132 C 
BRANCH  17  18
HETATM   18  C   UNK N   1      31.896  15.636   7.182  0.00  0.00     0.029 C 
BRANCH  18  19
HETATM   19  C   UNK N   1      32.071  16.029   8.646  0.00  0.00     0.034 C 
BRANCH  19  20
HETATM   20  C   UNK N   1      32.864  14.968   9.412  0.00  0.00     0.170 C 
BRANCH  20  21
HETATM   21  O   UNK N   1      32.616  15.072  10.781  0.00  0.00    -0.400 OA
HETATM   22  H   UNK N   1      33.242  14.863  11.492  0.00  0.00     0.209 HD
ENDBRANCH  20  21
ENDBRANCH  19  20
BRANCH  19  23
HETATM   23  C   UNK N   1      32.784  17.371   8.701  0.00  0.00     0.170 C 
BRANCH  23  24
HETATM   24  O   UNK N   1      33.897  17.305   9.539  0.00  0.00    -0.400 OA
HETATM   25  H   UNK N   1      34.193  18.049  10.087  0.00  0.00     0.209 HD
ENDBRANCH  23  24
ENDBRANCH  19  23
ENDBRANCH  18  19
ENDBRANCH  17  18
ENDBRANCH   2  17
TORSDOF 7
ENDMDL
MODEL 9
REMARK VINA RESULT:      -5.3     14.062     16.623
REMARK  7 active torsions:
REMARK  status: ('A' for Active; 'I' for Inactive)
REMARK    1  A    between atoms: O_1  and  C_14 
REMARK    2  A    between atoms: O_2  and  C_15 
REMARK    3  A    between atoms: N_4  and  C_13 
REMARK       I    between atoms: N_10  and  C_20 
REMARK    4  A    between atoms: C_11  and  C_12 
REMARK    5  A    between atoms: C_11  and  C_14 
REMARK    6  A    between atoms: C_11  and  C_15 
REMARK    7  A    between atoms: C_12  and  C_13 
ROOT
HETATM    1  O   UNK N   1      35.258  13.299   8.221  0.00  0.00    -0.265 OA
HETATM    2  N   UNK N   1      31.806  16.062   7.654  0.00  0.00    -0.327 N 
HETATM    3  N   UNK N   1      33.466  16.703   9.275  0.00  0.00    -0.174 N 
HETATM    4  N   UNK N   1      32.770  14.140   7.003  0.00  0.00    -0.345 N 
ATOM      5  HN  UNK N   1      32.954  13.259   6.523  1.00  0.00     0.167 HD
HETATM    6  N   UNK N   1      35.264  15.162   9.496  0.00  0.00    -0.154 N 
ATOM      7  HN  UNK N   1      36.143  14.898   9.941  1.00  0.00     0.187 HD
HETATM    8  N   UNK N   1      35.234  17.168  10.831  0.00  0.00    -0.234 N 
HETATM    9  C   UNK N   1      32.936  15.885   8.335  0.00  0.00     0.156 A 
HETATM   10  C   UNK N   1      33.519  14.735   7.954  0.00  0.00     0.147 A 
HETATM   11  C   UNK N   1      31.712  14.984   6.832  0.00  0.00     0.185 A 
HETATM   12  C   UNK N   1      34.711  14.339   8.537  0.00  0.00     0.290 A 
HETATM   13  C   UNK N   1      34.647  16.337   9.857  0.00  0.00     0.680 A 
HETATM   14  H   UNK N   1      33.014  17.539   9.533  0.00  0.00     0.186 HD
HETATM   15  H   UNK N   1      34.808  18.023  11.069  0.00  0.00     0.174 HD
HETATM   16  H   UNK N   1      36.069  16.894  11.275  0.00  0.00     0.174 HD
ENDROOT
BRANCH   2  17
HETATM   17  C   UNK N   1      30.900  17.190   7.828  0.00  0.00     0.132 C 
BRANCH  17  18
HETATM   18  C   UNK N   1      29.833  17.289   6.748  0.00  0.00     0.029 C 
BRANCH  18  19
HETATM   19  C   UNK N   1      28.480  17.611   7.377  0.00  0.00     0.034 C 
BRANCH  19  20
HETATM   20  C   UNK N   1      28.649  18.217   8.771  0.00  0.00     0.170 C 
BRANCH  20  21
HETATM   21  O   UNK N   1      27.447  18.154   9.477  0.00  0.00    -0.400 OA
HETATM   22  H   UNK N   1      27.345  17.919  10.412  0.00  0.00     0.209 HD
ENDBRANCH  20  21
ENDBRANCH  19  20
BRANCH  19  23
HETATM   23  C   UNK N   1      27.742  18.575   6.461  0.00  0.00     0.170 C 
BRANCH  23  24
HETATM   24  O   UNK N   1      27.231  19.651   7.187  0.00  0.00    -0.400 OA
HETATM   25  H   UNK N   1      26.343  20.015   7.041  0.00  0.00     0.209 HD
ENDBRANCH  23  24
ENDBRANCH  19  23
ENDBRANCH  18  19
ENDBRANCH  17  18
ENDBRANCH   2  17
TORSDOF 7
ENDMDL
