MODEL 1
REMARK VINA RESULT:      -7.7      0.000      0.000
REMARK  5 active torsions:
REMARK  status: ('A' for Active; 'I' for Inactive)
REMARK    1  A    between atoms: O_5  and  C_20 
REMARK    2  A    between atoms: C_16  and  N_10 
REMARK       I    between atoms: N_10  and  C_21 
REMARK    3  A    between atoms: C_15  and  C_20 
REMARK    4  A    between atoms: C_21  and  C_22 
REMARK    5  A    between atoms: C_23  and  C_25 
ROOT
HETATM    1  O   UNK N   1      20.966  17.511   7.809  0.00  0.00    -0.267 OA
HETATM    2  N   UNK N   1      22.305  17.441   6.033  0.00  0.00    -0.342 N 
HETATM    3  C   UNK N   1      21.371  16.883   6.843  0.00  0.00     0.257 C 
HETATM    4  H   UNK N   1      22.743  18.275   6.318  0.00  0.00     0.163 HD
ENDROOT
BRANCH   3   5
HETATM    5  C   UNK N   1      20.954  15.482   6.673  0.00  0.00     0.092 A 
HETATM    6  C   UNK N   1      21.411  14.228   7.145  0.00  0.00     0.088 A 
HETATM    7  N   UNK N   1      20.610  13.294   6.582  0.00  0.00    -0.259 N 
HETATM    8  O   UNK N   1      19.729  13.882   5.828  0.00  0.00    -0.241 OA
ATOM      9  HN  UNK N   1      20.685  12.287   6.726  1.00  0.00     0.195 HD
HETATM   10  C   UNK N   1      19.888  15.172   5.854  0.00  0.00     0.090 A 
HETATM   11  C   UNK N   1      19.046  16.130   5.078  0.00  0.00     0.080 C 
BRANCH   6  12
HETATM   12  C   UNK N   1      22.509  13.779   8.110  0.00  0.00     0.054 A 
HETATM   13  C   UNK N   1      22.322  13.281   9.442  0.00  0.00     0.049 A 
HETATM   14 Cl   UNK N   1      20.799  13.101  10.264  0.00  0.00    -0.083 Cl
HETATM   15  C   UNK N   1      23.425  12.874  10.202  0.00  0.00     0.025 A 
HETATM   16  C   UNK N   1      24.715  12.938   9.701  0.00  0.00     0.005 A 
HETATM   17  C   UNK N   1      24.928  13.416   8.422  0.00  0.00     0.043 A 
HETATM   18  C   UNK N   1      23.859  13.831   7.630  0.00  0.00     0.130 A 
HETATM   19  F   UNK N   1      24.162  14.280   6.386  0.00  0.00    -0.205 F 
ENDBRANCH   6  12
ENDBRANCH   3   5
BRANCH   2  20
HETATM   20  C   UNK N   1      22.681  16.854   4.764  0.00  0.00     0.199 A 
HETATM   21  C   UNK N   1      24.255  17.023   4.406  0.00  0.00     0.160 A 
HETATM   22  S   UNK N   1      25.417  17.696   5.660  0.00  0.00    -0.135 SA
HETATM   23  N   UNK N   1      23.890  18.117   3.576  0.00  0.00    -0.219 NA
HETATM   24  C   UNK N   1      25.795  19.170   4.619  0.00  0.00     0.029 C 
HETATM   25  C   UNK N   1      24.574  19.362   3.740  0.00  0.00     0.182 C 
HETATM   26  C   UNK N   1      26.010  20.382   5.500  0.00  0.00     0.029 C 
HETATM   27  C   UNK N   1      27.029  18.907   3.772  0.00  0.00     0.029 C 
HETATM   28  C   UNK N   1      22.611  17.982   3.796  0.00  0.00     0.227 A 
HETATM   29  O   UNK N   1      21.770  18.865   3.709  0.00  0.00    -0.277 OA
BRANCH  25  30
HETATM   30  C   UNK N   1      24.300  20.510   2.817  0.00  0.00     0.160 C 
HETATM   31  O   UNK N   1      25.063  20.761   1.901  0.00  0.00    -0.649 OA
BRANCH  30  32
HETATM   32  O   UNK N   1      23.227  21.296   3.030  0.00  0.00    -0.775 OA
HETATM   33  H   UNK N   1      23.204  22.232   3.022  0.00  0.00     0.167 HD
ENDBRANCH  30  32
ENDBRANCH  25  30
ENDBRANCH   2  20
TORSDOF 5
ENDMDL
MODEL 2
REMARK VINA RESULT:      -7.6     14.238     16.276
REMARK  5 active torsions:
REMARK  status: ('A' for Active; 'I' for Inactive)
REMARK    1  A    between atoms: O_5  and  C_20 
REMARK    2  A    between atoms: C_16  and  N_10 
REMARK       I    between atoms: N_10  and  C_21 
REMARK    3  A    between atoms: C_15  and  C_20 
REMARK    4  A    between atoms: C_21  and  C_22 
REMARK    5  A    between atoms: C_23  and  C_25 
ROOT
HETATM    1  O   UNK N   1      25.984  24.028  -3.455  0.00  0.00    -0.267 OA
HETATM    2  N   UNK N   1      28.132  24.321  -3.957  0.00  0.00    -0.342 N 
HETATM    3  C   UNK N   1      26.813  24.513  -4.209  0.00  0.00     0.257 C 
HETATM    4  H   UNK N   1      28.393  23.676  -3.259  0.00  0.00     0.163 HD
ENDROOT
BRANCH   3   5
HETATM    5  C   UNK N   1      26.361  25.158  -5.453  0.00  0.00     0.092 A 
HETATM    6  C   UNK N   1      26.269  26.490  -5.922  0.00  0.00     0.088 A 
HETATM    7  N   UNK N   1      25.720  26.422  -7.158  0.00  0.00    -0.259 N 
HETATM    8  O   UNK N   1      25.485  25.178  -7.454  0.00  0.00    -0.241 OA
ATOM      9  HN  UNK N   1      25.523  27.219  -7.762  1.00  0.00     0.195 HD
HETATM   10  C   UNK N   1      25.851  24.395  -6.482  0.00  0.00     0.090 A 
HETATM   11  C   UNK N   1      25.696  22.911  -6.505  0.00  0.00     0.080 C 
BRANCH   6  12
HETATM   12  C   UNK N   1      26.671  27.857  -5.366  0.00  0.00     0.054 A 
HETATM   13  C   UNK N   1      27.540  28.811  -5.993  0.00  0.00     0.049 A 
HETATM   14 Cl   UNK N   1      28.348  28.610  -7.521  0.00  0.00    -0.083 Cl
HETATM   15  C   UNK N   1      27.795  30.041  -5.377  0.00  0.00     0.025 A 
HETATM   16  C   UNK N   1      27.225  30.375  -4.159  0.00  0.00     0.005 A 
HETATM   17  C   UNK N   1      26.386  29.476  -3.528  0.00  0.00     0.043 A 
HETATM   18  C   UNK N   1      26.105  28.239  -4.106  0.00  0.00     0.130 A 
HETATM   19  F   UNK N   1      25.267  27.423  -3.418  0.00  0.00    -0.205 F 
ENDBRANCH   6  12
ENDBRANCH   3   5
BRANCH   2  20
HETATM   20  C   UNK N   1      29.170  25.029  -4.676  0.00  0.00     0.199 A 
HETATM   21  C   UNK N   1      29.879  24.147  -5.839  0.00  0.00     0.160 A 
HETATM   22  S   UNK N   1      29.198  22.501  -6.288  0.00  0.00    -0.135 SA
HETATM   23  N   UNK N   1      30.940  23.901  -4.928  0.00  0.00    -0.219 NA
HETATM   24  C   UNK N   1      30.736  21.640  -5.747  0.00  0.00     0.029 C 
HETATM   25  C   UNK N   1      31.357  22.551  -4.706  0.00  0.00     0.182 C 
HETATM   26  C   UNK N   1      30.389  20.299  -5.136  0.00  0.00     0.029 C 
HETATM   27  C   UNK N   1      31.674  21.456  -6.928  0.00  0.00     0.029 C 
HETATM   28  C   UNK N   1      30.431  24.645  -3.985  0.00  0.00     0.227 A 
HETATM   29  O   UNK N   1      30.642  24.529  -2.786  0.00  0.00    -0.277 OA
BRANCH  25  30
HETATM   30  C   UNK N   1      32.542  22.253  -3.838  0.00  0.00     0.160 C 
HETATM   31  O   UNK N   1      33.667  22.261  -4.306  0.00  0.00    -0.649 OA
BRANCH  30  32
HETATM   32  O   UNK N   1      32.356  21.928  -2.545  0.00  0.00    -0.775 OA
HETATM   33  H   UNK N   1      32.986  21.552  -1.962  0.00  0.00     0.167 HD
ENDBRANCH  30  32
ENDBRANCH  25  30
ENDBRANCH   2  20
TORSDOF 5
ENDMDL
MODEL 3
REMARK VINA RESULT:      -7.5     10.163     12.573
REMARK  5 active torsions:
REMARK  status: ('A' for Active; 'I' for Inactive)
REMARK    1  A    between atoms: O_5  and  C_20 
REMARK    2  A    between atoms: C_16  and  N_10 
REMARK       I    between atoms: N_10  and  C_21 
REMARK    3  A    between atoms: C_15  and  C_20 
REMARK    4  A    between atoms: C_21  and  C_22 
REMARK    5  A    between atoms: C_23  and  C_25 
ROOT
HETATM    1  O   UNK N   1      31.970  13.409   6.821  0.00  0.00    -0.267 OA
HETATM    2  N   UNK N   1      33.733  14.182   7.938  0.00  0.00    -0.342 N 
HETATM    3  C   UNK N   1      32.730  14.340   7.038  0.00  0.00     0.257 C 
HETATM    4  H   UNK N   1      33.918  13.280   8.288  0.00  0.00     0.163 HD
ENDROOT
BRANCH   3   5
HETATM    5  C   UNK N   1      32.635  15.552   6.209  0.00  0.00     0.092 A 
HETATM    6  C   UNK N   1      31.841  16.724   6.220  0.00  0.00     0.088 A 
HETATM    7  N   UNK N   1      32.218  17.451   5.143  0.00  0.00    -0.259 N 
HETATM    8  O   UNK N   1      33.158  16.817   4.505  0.00  0.00    -0.241 OA
ATOM      9  HN  UNK N   1      31.829  18.354   4.874  1.00  0.00     0.195 HD
HETATM   10  C   UNK N   1      33.441  15.695   5.098  0.00  0.00     0.090 A 
HETATM   11  C   UNK N   1      34.465  14.728   4.603  0.00  0.00     0.080 C 
BRANCH   6  12
HETATM   12  C   UNK N   1      30.768  17.285   7.154  0.00  0.00     0.054 A 
HETATM   13  C   UNK N   1      29.348  17.219   6.958  0.00  0.00     0.049 A 
HETATM   14 Cl   UNK N   1      28.534  16.502   5.598  0.00  0.00    -0.083 Cl
HETATM   15  C   UNK N   1      28.480  17.752   7.918  0.00  0.00     0.025 A 
HETATM   16  C   UNK N   1      28.956  18.353   9.073  0.00  0.00     0.005 A 
HETATM   17  C   UNK N   1      30.319  18.435   9.289  0.00  0.00     0.043 A 
HETATM   18  C   UNK N   1      31.219  17.917   8.358  0.00  0.00     0.130 A 
HETATM   19  F   UNK N   1      32.537  18.038   8.657  0.00  0.00    -0.205 F 
ENDBRANCH   6  12
ENDBRANCH   3   5
BRANCH   2  20
HETATM   20  C   UNK N   1      34.540  15.290   8.403  0.00  0.00     0.199 A 
HETATM   21  C   UNK N   1      36.057  14.872   8.800  0.00  0.00     0.160 A 
HETATM   22  S   UNK N   1      36.671  13.180   8.434  0.00  0.00    -0.135 SA
HETATM   23  N   UNK N   1      35.637  14.856  10.156  0.00  0.00    -0.219 NA
HETATM   24  C   UNK N   1      36.902  12.802  10.223  0.00  0.00     0.029 C 
HETATM   25  C   UNK N   1      35.921  13.701  10.951  0.00  0.00     0.182 C 
HETATM   26  C   UNK N   1      36.581  11.346  10.489  0.00  0.00     0.029 C 
HETATM   27  C   UNK N   1      38.328  13.113  10.643  0.00  0.00     0.029 C 
HETATM   28  C   UNK N   1      34.421  15.243   9.885  0.00  0.00     0.227 A 
HETATM   29  O   UNK N   1      33.429  15.026  10.567  0.00  0.00    -0.277 OA
BRANCH  25  30
HETATM   30  C   UNK N   1      35.594  13.683  12.413  0.00  0.00     0.160 C 
HETATM   31  O   UNK N   1      36.405  14.081  13.231  0.00  0.00    -0.649 OA
BRANCH  30  32
HETATM   32  O   UNK N   1      34.415  13.181  12.827  0.00  0.00    -0.775 OA
HETATM   33  H   UNK N   1      33.693  12.923  12.290  0.00  0.00     0.167 HD
ENDBRANCH  30  32
ENDBRANCH  25  30
ENDBRANCH   2  20
TORSDOF 5
ENDMDL
MODEL 4
REMARK VINA RESULT:      -7.4     14.184     16.592
REMARK  5 active torsions:
REMARK  status: ('A' for Active; 'I' for Inactive)
REMARK    1  A    between atoms: O_5  and  C_20 
REMARK    2  A    between atoms: C_16  and  N_10 
REMARK       I    between atoms: N_10  and  C_21 
REMARK    3  A    between atoms: C_15  and  C_20 
REMARK    4  A    between atoms: C_21  and  C_22 
REMARK    5  A    between atoms: C_23  and  C_25 
ROOT
HETATM    1  O   UNK N   1      25.450  22.683  -6.527  0.00  0.00    -0.267 OA
HETATM    2  N   UNK N   1      27.643  23.027  -6.685  0.00  0.00    -0.342 N 
HETATM    3  C   UNK N   1      26.361  23.361  -6.977  0.00  0.00     0.257 C 
HETATM    4  H   UNK N   1      27.819  22.166  -6.241  0.00  0.00     0.163 HD
ENDROOT
BRANCH   3   5
HETATM    5  C   UNK N   1      26.052  24.424  -7.947  0.00  0.00     0.092 A 
HETATM    6  C   UNK N   1      25.986  25.837  -7.908  0.00  0.00     0.088 A 
HETATM    7  N   UNK N   1      25.598  26.235  -9.142  0.00  0.00    -0.259 N 
HETATM    8  O   UNK N   1      25.433  25.189  -9.898  0.00  0.00    -0.241 OA
ATOM      9  HN  UNK N   1      25.458  27.201  -9.435  1.00  0.00     0.195 HD
HETATM   10  C   UNK N   1      25.694  24.099  -9.239  0.00  0.00     0.090 A 
HETATM   11  C   UNK N   1      25.581  22.729  -9.819  0.00  0.00     0.080 C 
BRANCH   6  12
HETATM   12  C   UNK N   1      26.281  26.898  -6.847  0.00  0.00     0.054 A 
HETATM   13  C   UNK N   1      27.321  27.885  -6.894  0.00  0.00     0.049 A 
HETATM   14 Cl   UNK N   1      28.494  28.076  -8.164  0.00  0.00    -0.083 Cl
HETATM   15  C   UNK N   1      27.452  28.818  -5.859  0.00  0.00     0.025 A 
HETATM   16  C   UNK N   1      26.595  28.820  -4.770  0.00  0.00     0.005 A 
HETATM   17  C   UNK N   1      25.585  27.880  -4.694  0.00  0.00     0.043 A 
HETATM   18  C   UNK N   1      25.418  26.932  -5.703  0.00  0.00     0.130 A 
HETATM   19  F   UNK N   1      24.397  26.052  -5.547  0.00  0.00    -0.205 F 
ENDBRANCH   6  12
ENDBRANCH   3   5
BRANCH   2  20
HETATM   20  C   UNK N   1      28.761  23.890  -7.003  0.00  0.00     0.199 A 
HETATM   21  C   UNK N   1      30.209  23.222  -6.701  0.00  0.00     0.160 A 
HETATM   22  S   UNK N   1      30.325  21.451  -6.230  0.00  0.00    -0.135 SA
HETATM   23  N   UNK N   1      30.231  23.958  -5.487  0.00  0.00    -0.219 NA
HETATM   24  C   UNK N   1      31.012  21.866  -4.571  0.00  0.00     0.029 C 
HETATM   25  C   UNK N   1      30.505  23.263  -4.267  0.00  0.00     0.182 C 
HETATM   26  C   UNK N   1      30.500  20.883  -3.539  0.00  0.00     0.029 C 
HETATM   27  C   UNK N   1      32.530  21.844  -4.614  0.00  0.00     0.029 C 
HETATM   28  C   UNK N   1      29.096  24.557  -5.716  0.00  0.00     0.227 A 
HETATM   29  O   UNK N   1      28.338  25.010  -4.870  0.00  0.00    -0.277 OA
BRANCH  25  30
HETATM   30  C   UNK N   1      30.647  24.013  -2.978  0.00  0.00     0.160 C 
HETATM   31  O   UNK N   1      30.513  23.438  -1.912  0.00  0.00    -0.649 OA
BRANCH  30  32
HETATM   32  O   UNK N   1      30.878  25.339  -2.999  0.00  0.00    -0.775 OA
HETATM   33  H   UNK N   1      31.629  25.786  -2.663  0.00  0.00     0.167 HD
ENDBRANCH  30  32
ENDBRANCH  25  30
ENDBRANCH   2  20
TORSDOF 5
ENDMDL
MODEL 5
REMARK VINA RESULT:      -7.1     14.322     15.776
REMARK  5 active torsions:
REMARK  status: ('A' for Active; 'I' for Inactive)
REMARK    1  A    between atoms: O_5  and  C_20 
REMARK    2  A    between atoms: C_16  and  N_10 
REMARK       I    between atoms: N_10  and  C_21 
REMARK    3  A    between atoms: C_15  and  C_20 
REMARK    4  A    between atoms: C_21  and  C_22 
REMARK    5  A    between atoms: C_23  and  C_25 
ROOT
HETATM    1  O   UNK N   1      29.073  24.381  -7.986  0.00  0.00    -0.267 OA
HETATM    2  N   UNK N   1      29.693  22.972  -6.380  0.00  0.00    -0.342 N 
HETATM    3  C   UNK N   1      28.746  23.531  -7.173  0.00  0.00     0.257 C 
HETATM    4  H   UNK N   1      30.597  23.363  -6.372  0.00  0.00     0.163 HD
ENDROOT
BRANCH   3   5
HETATM    5  C   UNK N   1      27.316  23.250  -6.966  0.00  0.00     0.092 A 
HETATM    6  C   UNK N   1      26.270  23.838  -6.215  0.00  0.00     0.088 A 
HETATM    7  N   UNK N   1      25.176  23.067  -6.418  0.00  0.00    -0.259 N 
HETATM    8  O   UNK N   1      25.483  22.088  -7.217  0.00  0.00    -0.241 OA
ATOM      9  HN  UNK N   1      24.255  23.229  -6.011  1.00  0.00     0.195 HD
HETATM   10  C   UNK N   1      26.732  22.156  -7.571  0.00  0.00     0.090 A 
HETATM   11  C   UNK N   1      27.397  21.166  -8.468  0.00  0.00     0.080 C 
BRANCH   6  12
HETATM   12  C   UNK N   1      26.147  25.082  -5.335  0.00  0.00     0.054 A 
HETATM   13  C   UNK N   1      26.568  25.205  -3.969  0.00  0.00     0.049 A 
HETATM   14 Cl   UNK N   1      27.293  23.951  -3.004  0.00  0.00    -0.083 Cl
HETATM   15  C   UNK N   1      26.420  26.422  -3.294  0.00  0.00     0.025 A 
HETATM   16  C   UNK N   1      25.870  27.533  -3.914  0.00  0.00     0.005 A 
HETATM   17  C   UNK N   1      25.453  27.445  -5.228  0.00  0.00     0.043 A 
HETATM   18  C   UNK N   1      25.581  26.252  -5.938  0.00  0.00     0.130 A 
HETATM   19  F   UNK N   1      25.149  26.261  -7.224  0.00  0.00    -0.205 F 
ENDBRANCH   6  12
ENDBRANCH   3   5
BRANCH   2  20
HETATM   20  C   UNK N   1      29.425  21.821  -5.544  0.00  0.00     0.199 A 
HETATM   21  C   UNK N   1      30.481  21.636  -4.326  0.00  0.00     0.160 A 
HETATM   22  S   UNK N   1      31.722  22.945  -3.978  0.00  0.00    -0.135 SA
HETATM   23  N   UNK N   1      31.143  20.665  -5.124  0.00  0.00    -0.219 NA
HETATM   24  C   UNK N   1      33.125  21.815  -4.366  0.00  0.00     0.029 C 
HETATM   25  C   UNK N   1      32.555  20.784  -5.321  0.00  0.00     0.182 C 
HETATM   26  C   UNK N   1      34.243  22.590  -5.032  0.00  0.00     0.029 C 
HETATM   27  C   UNK N   1      33.627  21.150  -3.096  0.00  0.00     0.029 C 
HETATM   28  C   UNK N   1      30.286  20.744  -6.104  0.00  0.00     0.227 A 
HETATM   29  O   UNK N   1      30.506  20.471  -7.275  0.00  0.00    -0.277 OA
BRANCH  25  30
HETATM   30  C   UNK N   1      33.313  19.725  -6.063  0.00  0.00     0.160 C 
HETATM   31  O   UNK N   1      33.909  18.853  -5.455  0.00  0.00    -0.649 OA
BRANCH  30  32
HETATM   32  O   UNK N   1      33.372  19.765  -7.408  0.00  0.00    -0.775 OA
HETATM   33  H   UNK N   1      32.915  19.211  -8.009  0.00  0.00     0.167 HD
ENDBRANCH  30  32
ENDBRANCH  25  30
ENDBRANCH   2  20
TORSDOF 5
ENDMDL
MODEL 6
REMARK VINA RESULT:      -7.1     13.940     15.814
REMARK  5 active torsions:
REMARK  status: ('A' for Active; 'I' for Inactive)
REMARK    1  A    between atoms: O_5  and  C_20 
REMARK    2  A    between atoms: C_16  and  N_10 
REMARK       I    between atoms: N_10  and  C_21 
REMARK    3  A    between atoms: C_15  and  C_20 
REMARK    4  A    between atoms: C_21  and  C_22 
REMARK    5  A    between atoms: C_23  and  C_25 
ROOT
HETATM    1  O   UNK N   1      26.206  23.736  -3.143  0.00  0.00    -0.267 OA
HETATM    2  N   UNK N   1      28.377  23.952  -3.579  0.00  0.00    -0.342 N 
HETATM    3  C   UNK N   1      27.085  24.326  -3.751  0.00  0.00     0.257 C 
HETATM    4  H   UNK N   1      28.569  23.123  -3.083  0.00  0.00     0.163 HD
ENDROOT
BRANCH   3   5
HETATM    5  C   UNK N   1      26.709  25.320  -4.770  0.00  0.00     0.092 A 
HETATM    6  C   UNK N   1      26.564  25.316  -6.178  0.00  0.00     0.088 A 
HETATM    7  N   UNK N   1      26.230  26.580  -6.530  0.00  0.00    -0.259 N 
HETATM    8  O   UNK N   1      26.165  27.320  -5.462  0.00  0.00    -0.241 OA
ATOM      9  HN  UNK N   1      26.057  26.902  -7.482  1.00  0.00     0.195 HD
HETATM   10  C   UNK N   1      26.434  26.620  -4.399  0.00  0.00     0.090 A 
HETATM   11  C   UNK N   1      26.460  27.183  -3.018  0.00  0.00     0.080 C 
BRANCH   6  12
HETATM   12  C   UNK N   1      26.666  24.247  -7.266  0.00  0.00     0.054 A 
HETATM   13  C   UNK N   1      27.437  24.329  -8.473  0.00  0.00     0.049 A 
HETATM   14 Cl   UNK N   1      28.411  25.680  -8.975  0.00  0.00    -0.083 Cl
HETATM   15  C   UNK N   1      27.460  23.254  -9.368  0.00  0.00     0.025 A 
HETATM   16  C   UNK N   1      26.748  22.090  -9.122  0.00  0.00     0.005 A 
HETATM   17  C   UNK N   1      25.993  21.981  -7.969  0.00  0.00     0.043 A 
HETATM   18  C   UNK N   1      25.943  23.029  -7.051  0.00  0.00     0.130 A 
HETATM   19  F   UNK N   1      25.180  22.831  -5.946  0.00  0.00    -0.205 F 
ENDBRANCH   6  12
ENDBRANCH   3   5
BRANCH   2  20
HETATM   20  C   UNK N   1      29.485  24.727  -4.096  0.00  0.00     0.199 A 
HETATM   21  C   UNK N   1      30.260  24.016  -5.332  0.00  0.00     0.160 A 
HETATM   22  S   UNK N   1      29.577  22.488  -6.089  0.00  0.00    -0.135 SA
HETATM   23  N   UNK N   1      31.241  23.591  -4.397  0.00  0.00    -0.219 NA
HETATM   24  C   UNK N   1      31.047  21.498  -5.583  0.00  0.00     0.029 C 
HETATM   25  C   UNK N   1      31.608  22.209  -4.366  0.00  0.00     0.182 C 
HETATM   26  C   UNK N   1      30.622  20.090  -5.223  0.00  0.00     0.029 C 
HETATM   27  C   UNK N   1      32.070  21.470  -6.706  0.00  0.00     0.029 C 
HETATM   28  C   UNK N   1      30.678  24.193  -3.386  0.00  0.00     0.227 A 
HETATM   29  O   UNK N   1      30.792  23.881  -2.210  0.00  0.00    -0.277 OA
BRANCH  25  30
HETATM   30  C   UNK N   1      32.714  21.734  -3.474  0.00  0.00     0.160 C 
HETATM   31  O   UNK N   1      33.853  21.645  -3.898  0.00  0.00    -0.649 OA
BRANCH  30  32
HETATM   32  O   UNK N   1      32.438  21.360  -2.210  0.00  0.00    -0.775 OA
HETATM   33  H   UNK N   1      32.978  20.844  -1.644  0.00  0.00     0.167 HD
ENDBRANCH  30  32
ENDBRANCH  25  30
ENDBRANCH   2  20
TORSDOF 5
ENDMDL
MODEL 7
REMARK VINA RESULT:      -7.0     11.697     13.580
REMARK  5 active torsions:
REMARK  status: ('A' for Active; 'I' for Inactive)
REMARK    1  A    between atoms: O_5  and  C_20 
REMARK    2  A    between atoms: C_16  and  N_10 
REMARK       I    between atoms: N_10  and  C_21 
REMARK    3  A    between atoms: C_15  and  C_20 
REMARK    4  A    between atoms: C_21  and  C_22 
REMARK    5  A    between atoms: C_23  and  C_25 
ROOT
HETATM    1  O   UNK N   1      34.828  11.114   9.223  0.00  0.00    -0.267 OA
HETATM    2  N   UNK N   1      34.404  13.277   9.527  0.00  0.00    -0.342 N 
HETATM    3  C   UNK N   1      35.181  12.179   9.703  0.00  0.00     0.257 C 
HETATM    4  H   UNK N   1      33.503  13.164   9.143  0.00  0.00     0.163 HD
ENDROOT
BRANCH   3   5
HETATM    5  C   UNK N   1      36.355  12.213  10.590  0.00  0.00     0.092 A 
HETATM    6  C   UNK N   1      36.562  12.222  11.990  0.00  0.00     0.088 A 
HETATM    7  N   UNK N   1      37.901  12.303  12.177  0.00  0.00    -0.259 N 
HETATM    8  O   UNK N   1      38.494  12.340  11.020  0.00  0.00    -0.241 OA
ATOM      9  HN  UNK N   1      38.371  12.330  13.081  1.00  0.00     0.195 HD
HETATM   10  C   UNK N   1      37.625  12.285  10.054  0.00  0.00     0.090 A 
HETATM   11  C   UNK N   1      37.985  12.325   8.607  0.00  0.00     0.080 C 
BRANCH   6  12
HETATM   12  C   UNK N   1      35.649  12.127  13.213  0.00  0.00     0.054 A 
HETATM   13  C   UNK N   1      34.630  11.144  13.442  0.00  0.00     0.049 A 
HETATM   14 Cl   UNK N   1      34.194   9.851  12.362  0.00  0.00    -0.083 Cl
HETATM   15  C   UNK N   1      33.889  11.161  14.628  0.00  0.00     0.025 A 
HETATM   16  C   UNK N   1      34.110  12.117  15.608  0.00  0.00     0.005 A 
HETATM   17  C   UNK N   1      35.083  13.080  15.416  0.00  0.00     0.043 A 
HETATM   18  C   UNK N   1      35.844  13.098  14.248  0.00  0.00     0.130 A 
HETATM   19  F   UNK N   1      36.779  14.077  14.149  0.00  0.00    -0.205 F 
ENDBRANCH   6  12
ENDBRANCH   3   5
BRANCH   2  20
HETATM   20  C   UNK N   1      34.848  14.608   9.881  0.00  0.00     0.199 A 
HETATM   21  C   UNK N   1      33.703  15.746   9.713  0.00  0.00     0.160 A 
HETATM   22  S   UNK N   1      31.972  15.262   9.336  0.00  0.00    -0.135 SA
HETATM   23  N   UNK N   1      34.301  16.083   8.470  0.00  0.00    -0.219 NA
HETATM   24  C   UNK N   1      32.010  16.131   7.711  0.00  0.00     0.029 C 
HETATM   25  C   UNK N   1      33.471  16.158   7.307  0.00  0.00     0.182 C 
HETATM   26  C   UNK N   1      31.194  15.361   6.695  0.00  0.00     0.029 C 
HETATM   27  C   UNK N   1      31.469  17.543   7.862  0.00  0.00     0.029 C 
HETATM   28  C   UNK N   1      35.269  15.217   8.590  0.00  0.00     0.227 A 
HETATM   29  O   UNK N   1      35.895  14.708   7.672  0.00  0.00    -0.277 OA
BRANCH  25  30
HETATM   30  C   UNK N   1      34.036  16.615   5.996  0.00  0.00     0.160 C 
HETATM   31  O   UNK N   1      34.071  17.801   5.720  0.00  0.00    -0.649 OA
BRANCH  30  32
HETATM   32  O   UNK N   1      34.464  15.705   5.101  0.00  0.00    -0.775 OA
HETATM   33  H   UNK N   1      35.319  15.646   4.722  0.00  0.00     0.167 HD
ENDBRANCH  30  32
ENDBRANCH  25  30
ENDBRANCH   2  20
TORSDOF 5
ENDMDL
MODEL 8
REMARK VINA RESULT:      -6.9      6.004      8.180
REMARK  5 active torsions:
REMARK  status: ('A' for Active; 'I' for Inactive)
REMARK    1  A    between atoms: O_5  and  C_20 
REMARK    2  A    between atoms: C_16  and  N_10 
REMARK       I    between atoms: N_10  and  C_21 
REMARK    3  A    between atoms: C_15  and  C_20 
REMARK    4  A    between atoms: C_21  and  C_22 
REMARK    5  A    between atoms: C_23  and  C_25 
ROOT
HETATM    1  O   UNK N   1      30.726  16.535   2.965  0.00  0.00    -0.267 OA
HETATM    2  N   UNK N   1      28.767  16.527   4.020  0.00  0.00    -0.342 N 
HETATM    3  C   UNK N   1      30.065  16.147   3.915  0.00  0.00     0.257 C 
HETATM    4  H   UNK N   1      28.344  16.985   3.257  0.00  0.00     0.163 HD
ENDROOT
BRANCH   3   5
HETATM    5  C   UNK N   1      30.644  15.154   4.835  0.00  0.00     0.092 A 
HETATM    6  C   UNK N   1      31.527  15.198   5.940  0.00  0.00     0.088 A 
HETATM    7  N   UNK N   1      31.706  13.916   6.336  0.00  0.00    -0.259 N 
HETATM    8  O   UNK N   1      31.011  13.129   5.569  0.00  0.00    -0.241 OA
ATOM      9  HN  UNK N   1      32.292  13.614   7.114  1.00  0.00     0.195 HD
HETATM   10  C   UNK N   1      30.364  13.814   4.671  0.00  0.00     0.090 A 
HETATM   11  C   UNK N   1      29.491  13.201   3.628  0.00  0.00     0.080 C 
BRANCH   6  12
HETATM   12  C   UNK N   1      32.218  16.317   6.721  0.00  0.00     0.054 A 
HETATM   13  C   UNK N   1      31.699  17.001   7.870  0.00  0.00     0.049 A 
HETATM   14 Cl   UNK N   1      30.152  16.722   8.616  0.00  0.00    -0.083 Cl
HETATM   15  C   UNK N   1      32.461  17.989   8.504  0.00  0.00     0.025 A 
HETATM   16  C   UNK N   1      33.725  18.334   8.050  0.00  0.00     0.005 A 
HETATM   17  C   UNK N   1      34.251  17.694   6.944  0.00  0.00     0.043 A 
HETATM   18  C   UNK N   1      33.526  16.705   6.282  0.00  0.00     0.130 A 
HETATM   19  F   UNK N   1      34.124  16.129   5.209  0.00  0.00    -0.205 F 
ENDBRANCH   6  12
ENDBRANCH   3   5
BRANCH   2  20
HETATM   20  C   UNK N   1      27.980  16.284   5.211  0.00  0.00     0.199 A 
HETATM   21  C   UNK N   1      26.417  16.690   5.057  0.00  0.00     0.160 A 
HETATM   22  S   UNK N   1      25.751  17.178   3.416  0.00  0.00    -0.135 SA
HETATM   23  N   UNK N   1      26.723  17.899   5.735  0.00  0.00    -0.219 NA
HETATM   24  C   UNK N   1      25.355  18.879   4.005  0.00  0.00     0.029 C 
HETATM   25  C   UNK N   1      26.317  19.139   5.149  0.00  0.00     0.182 C 
HETATM   26  C   UNK N   1      25.580  19.877   2.889  0.00  0.00     0.029 C 
HETATM   27  C   UNK N   1      23.917  18.943   4.489  0.00  0.00     0.029 C 
HETATM   28  C   UNK N   1      27.975  17.588   5.927  0.00  0.00     0.227 A 
HETATM   29  O   UNK N   1      28.896  18.376   6.088  0.00  0.00    -0.277 OA
BRANCH  25  30
HETATM   30  C   UNK N   1      26.522  20.431   5.879  0.00  0.00     0.160 C 
HETATM   31  O   UNK N   1      27.218  21.308   5.398  0.00  0.00    -0.649 OA
BRANCH  30  32
HETATM   32  O   UNK N   1      25.969  20.605   7.095  0.00  0.00    -0.775 OA
HETATM   33  H   UNK N   1      25.471  19.979   7.582  0.00  0.00     0.167 HD
ENDBRANCH  30  32
ENDBRANCH  25  30
ENDBRANCH   2  20
TORSDOF 5
ENDMDL
MODEL 9
REMARK VINA RESULT:      -6.7     12.592     15.437
REMARK  5 active torsions:
REMARK  status: ('A' for Active; 'I' for Inactive)
REMARK    1  A    between atoms: O_5  and  C_20 
REMARK    2  A    between atoms: C_16  and  N_10 
REMARK       I    between atoms: N_10  and  C_21 
REMARK    3  A    between atoms: C_15  and  C_20 
REMARK    4  A    between atoms: C_21  and  C_22 
REMARK    5  A    between atoms: C_23  and  C_25 
ROOT
HETATM    1  O   UNK N   1      33.734  12.051   8.748  0.00  0.00    -0.267 OA
HETATM    2  N   UNK N   1      35.184  12.484  10.380  0.00  0.00    -0.342 N 
HETATM    3  C   UNK N   1      34.785  12.572   9.087  0.00  0.00     0.257 C 
HETATM    4  H   UNK N   1      34.695  11.881  10.987  0.00  0.00     0.163 HD
ENDROOT
BRANCH   3   5
HETATM    5  C   UNK N   1      35.666  13.145   8.056  0.00  0.00     0.092 A 
HETATM    6  C   UNK N   1      35.710  14.358   7.327  0.00  0.00     0.088 A 
HETATM    7  N   UNK N   1      36.763  14.257   6.482  0.00  0.00    -0.259 N 
HETATM    8  O   UNK N   1      37.337  13.102   6.650  0.00  0.00    -0.241 OA
ATOM      9  HN  UNK N   1      37.059  14.972   5.819  1.00  0.00     0.195 HD
HETATM   10  C   UNK N   1      36.730  12.414   7.570  0.00  0.00     0.090 A 
HETATM   11  C   UNK N   1      37.135  11.039   7.985  0.00  0.00     0.080 C 
BRANCH   6  12
HETATM   12  C   UNK N   1      34.894  15.651   7.342  0.00  0.00     0.054 A 
HETATM   13  C   UNK N   1      34.154  16.205   6.245  0.00  0.00     0.049 A 
HETATM   14 Cl   UNK N   1      34.040  15.534   4.644  0.00  0.00    -0.083 Cl
HETATM   15  C   UNK N   1      33.424  17.387   6.415  0.00  0.00     0.025 A 
HETATM   16  C   UNK N   1      33.392  18.052   7.630  0.00  0.00     0.005 A 
HETATM   17  C   UNK N   1      34.098  17.546   8.705  0.00  0.00     0.043 A 
HETATM   18  C   UNK N   1      34.838  16.371   8.580  0.00  0.00     0.130 A 
HETATM   19  F   UNK N   1      35.494  15.946   9.689  0.00  0.00    -0.205 F 
ENDBRANCH   6  12
ENDBRANCH   3   5
BRANCH   2  20
HETATM   20  C   UNK N   1      36.300  13.244  10.902  0.00  0.00     0.199 A 
HETATM   21  C   UNK N   1      37.282  12.385  11.868  0.00  0.00     0.160 A 
HETATM   22  S   UNK N   1      37.053  10.570  12.031  0.00  0.00    -0.135 SA
HETATM   23  N   UNK N   1      36.611  12.970  12.974  0.00  0.00    -0.219 NA
HETATM   24  C   UNK N   1      36.654  10.712  13.825  0.00  0.00     0.029 C 
HETATM   25  C   UNK N   1      36.104  12.114  14.002  0.00  0.00     0.182 C 
HETATM   26  C   UNK N   1      35.611   9.682  14.205  0.00  0.00     0.029 C 
HETATM   27  C   UNK N   1      37.912  10.521  14.656  0.00  0.00     0.029 C 
HETATM   28  C   UNK N   1      35.839  13.717  12.236  0.00  0.00     0.227 A 
HETATM   29  O   UNK N   1      34.743  14.155  12.555  0.00  0.00    -0.277 OA
BRANCH  25  30
HETATM   30  C   UNK N   1      35.486  12.691  15.239  0.00  0.00     0.160 C 
HETATM   31  O   UNK N   1      36.172  12.920  16.220  0.00  0.00    -0.649 OA
BRANCH  30  32
HETATM   32  O   UNK N   1      34.159  12.914  15.281  0.00  0.00    -0.775 OA
HETATM   33  H   UNK N   1      33.717  13.595  15.747  0.00  0.00     0.167 HD
ENDBRANCH  30  32
ENDBRANCH  25  30
ENDBRANCH   2  20
TORSDOF 5
ENDMDL
