REMARK  2 active torsions:
REMARK  status: ('A' for Active; 'I' for Inactive)
REMARK    1  A    between atoms: C_6  and  O_1 
REMARK    2  A    between atoms: C_2  and  C_13 
ROOT
HETATM    1  C   UNK N   1       6.184   0.852  -0.296  0.00  0.00     0.009 C 
HETATM    2  C   UNK N   1       6.047  -0.628   0.106  0.00  0.00     0.003 C 
HETATM    3  C   UNK N   1       4.775  -1.326  -0.375  0.00  0.00    -0.000 C 
HETATM    4  C   UNK N   1       3.599  -0.650   0.374  0.00  0.00     0.026 C 
HETATM    5  C   UNK N   1       7.470   1.158   0.525  0.00  0.00     0.128 C 
HETATM    6  C   UNK N   1       7.411  -1.192  -0.228  0.00  0.00     0.010 C 
HETATM    7  C   UNK N   1       4.951   1.668   0.126  0.00  0.00     0.047 C 
HETATM    8  C   UNK N   1       8.354  -0.076   0.259  0.00  0.00     0.052 C 
HETATM    9  C   UNK N   1       2.263  -1.239  -0.146  0.00  0.00     0.023 C 
HETATM   10  C   UNK N   1       4.838  -2.803   0.070  0.00  0.00     0.010 C 
HETATM   11  C   UNK N   1       3.674   0.892   0.411  0.00  0.00    -0.083 C 
HETATM   12  C   UNK N   1       3.506  -3.561   0.180  0.00  0.00     0.034 C 
HETATM   13  C   UNK N   1       2.260  -2.756  -0.072  0.00  0.00    -0.079 C 
HETATM   14  C   UNK N   1       1.074  -0.753   0.694  0.00  0.00     0.010 C 
HETATM   15  C   UNK N   1       8.211   2.391   0.240  0.00  0.00    -0.078 C 
HETATM   16  C   UNK N   1      -0.265  -1.297   0.177  0.00  0.00     0.004 C 
HETATM   17  C   UNK N   1       1.104  -3.416  -0.233  0.00  0.00    -0.024 C 
HETATM   18  C   UNK N   1       2.762   1.555   1.122  0.00  0.00     0.015 C 
HETATM   19  C   UNK N   1      -0.183  -2.678  -0.497  0.00  0.00     0.027 C 
HETATM   20  C   UNK N   1       8.792   3.423   0.015  0.00  0.00     0.015 C 
ENDROOT
BRANCH   5  21
HETATM   21  O   UNK N   1       7.138   1.205   1.888  0.00  0.00    -0.377 OA
HETATM   22  H   UNK N   1       7.052   1.419   2.829  0.00  0.00     0.211 HD
ENDBRANCH   5  21
BRANCH   1  23
HETATM   23  C   UNK N   1       6.398   1.012  -1.831  0.00  0.00     0.010 C 
HETATM   24  C   UNK N   1       6.576   2.461  -2.287  0.00  0.00     0.006 C 
ENDBRANCH   1  23
TORSDOF 2
