MODEL 1
REMARK VINA RESULT:      -7.6      0.000      0.000
REMARK  2 active torsions:
REMARK  status: ('A' for Active; 'I' for Inactive)
REMARK    1  A    between atoms: C_6  and  O_1 
REMARK    2  A    between atoms: C_2  and  C_13 
ROOT
HETATM    1  C   UNK N   1      32.652  16.322   8.352  0.00  0.00     0.009 C 
HETATM    2  C   UNK N   1      31.739  15.444   7.478  0.00  0.00     0.003 C 
HETATM    3  C   UNK N   1      30.990  16.176   6.365  0.00  0.00    -0.000 C 
HETATM    4  C   UNK N   1      29.990  17.128   7.068  0.00  0.00     0.026 C 
HETATM    5  C   UNK N   1      33.034  15.230   9.393  0.00  0.00     0.128 C 
HETATM    6  C   UNK N   1      32.622  14.256   7.162  0.00  0.00     0.010 C 
HETATM    7  C   UNK N   1      31.888  17.520   8.940  0.00  0.00     0.047 C 
HETATM    8  C   UNK N   1      33.314  13.996   8.513  0.00  0.00     0.052 C 
HETATM    9  C   UNK N   1      29.267  17.983   5.996  0.00  0.00     0.023 C 
HETATM   10  C   UNK N   1      30.177  15.136   5.565  0.00  0.00     0.010 C 
HETATM   11  C   UNK N   1      30.591  17.917   8.251  0.00  0.00    -0.083 C 
HETATM   12  C   UNK N   1      28.969  15.651   4.766  0.00  0.00     0.034 C 
HETATM   13  C   UNK N   1      28.647  17.112   4.918  0.00  0.00    -0.079 C 
HETATM   14  C   UNK N   1      28.126  18.804   6.613  0.00  0.00     0.010 C 
HETATM   15  C   UNK N   1      34.161  15.482  10.297  0.00  0.00    -0.078 C 
HETATM   16  C   UNK N   1      27.416  19.685   5.576  0.00  0.00     0.004 C 
HETATM   17  C   UNK N   1      27.770  17.657   4.062  0.00  0.00    -0.024 C 
HETATM   18  C   UNK N   1      29.780  18.682   8.982  0.00  0.00     0.015 C 
HETATM   19  C   UNK N   1      27.404  19.116   4.146  0.00  0.00     0.027 C 
HETATM   20  C   UNK N   1      35.070  15.716  11.053  0.00  0.00     0.015 C 
ENDROOT
BRANCH   5  21
HETATM   21  O   UNK N   1      31.923  14.973  10.211  0.00  0.00    -0.377 OA
HETATM   22  H   UNK N   1      31.099  15.013  10.718  0.00  0.00     0.211 HD
ENDBRANCH   5  21
BRANCH   1  23
HETATM   23  C   UNK N   1      33.882  16.847   7.552  0.00  0.00     0.010 C 
HETATM   24  C   UNK N   1      34.287  18.280   7.903  0.00  0.00     0.006 C 
ENDBRANCH   1  23
TORSDOF 2
ENDMDL
MODEL 2
REMARK VINA RESULT:      -7.4      8.173     13.108
REMARK  2 active torsions:
REMARK  status: ('A' for Active; 'I' for Inactive)
REMARK    1  A    between atoms: C_6  and  O_1 
REMARK    2  A    between atoms: C_2  and  C_13 
ROOT
HETATM    1  C   UNK N   1      35.686  12.284  15.038  0.00  0.00     0.009 C 
HETATM    2  C   UNK N   1      36.594  11.140  15.526  0.00  0.00     0.003 C 
HETATM    3  C   UNK N   1      35.974  10.203  16.562  0.00  0.00    -0.000 C 
HETATM    4  C   UNK N   1      35.761  11.050  17.842  0.00  0.00     0.026 C 
HETATM    5  C   UNK N   1      36.752  13.028  14.184  0.00  0.00     0.128 C 
HETATM    6  C   UNK N   1      37.166  10.595  14.235  0.00  0.00     0.010 C 
HETATM    7  C   UNK N   1      35.129  13.103  16.215  0.00  0.00     0.047 C 
HETATM    8  C   UNK N   1      37.465  11.881  13.442  0.00  0.00     0.052 C 
HETATM    9  C   UNK N   1      35.035  10.187  18.905  0.00  0.00     0.023 C 
HETATM   10  C   UNK N   1      37.001   9.097  16.887  0.00  0.00     0.010 C 
HETATM   11  C   UNK N   1      35.145  12.443  17.585  0.00  0.00    -0.083 C 
HETATM   12  C   UNK N   1      36.848   8.369  18.232  0.00  0.00     0.034 C 
HETATM   13  C   UNK N   1      35.759   8.872  19.140  0.00  0.00    -0.079 C 
HETATM   14  C   UNK N   1      34.972  10.905  20.259  0.00  0.00     0.010 C 
HETATM   15  C   UNK N   1      36.305  14.052  13.235  0.00  0.00    -0.078 C 
HETATM   16  C   UNK N   1      34.227  10.083  21.320  0.00  0.00     0.004 C 
HETATM   17  C   UNK N   1      35.424   8.123  20.200  0.00  0.00    -0.024 C 
HETATM   18  C   UNK N   1      35.022  13.282  18.613  0.00  0.00     0.015 C 
HETATM   19  C   UNK N   1      34.338   8.558  21.149  0.00  0.00     0.027 C 
HETATM   20  C   UNK N   1      35.924  14.913  12.481  0.00  0.00     0.015 C 
ENDROOT
BRANCH   5  21
HETATM   21  O   UNK N   1      37.663  13.660  15.044  0.00  0.00    -0.377 OA
HETATM   22  H   UNK N   1      38.292  14.259  15.473  0.00  0.00     0.211 HD
ENDBRANCH   5  21
BRANCH   1  23
HETATM   23  C   UNK N   1      34.498  11.748  14.185  0.00  0.00     0.010 C 
HETATM   24  C   UNK N   1      33.522  10.864  14.962  0.00  0.00     0.006 C 
ENDBRANCH   1  23
TORSDOF 2
ENDMDL
MODEL 3
REMARK VINA RESULT:      -7.2     11.901     15.862
REMARK  2 active torsions:
REMARK  status: ('A' for Active; 'I' for Inactive)
REMARK    1  A    between atoms: C_6  and  O_1 
REMARK    2  A    between atoms: C_2  and  C_13 
ROOT
HETATM    1  C   UNK N   1      27.871  23.618  -6.824  0.00  0.00     0.009 C 
HETATM    2  C   UNK N   1      28.004  23.580  -5.291  0.00  0.00     0.003 C 
HETATM    3  C   UNK N   1      29.413  23.319  -4.758  0.00  0.00    -0.000 C 
HETATM    4  C   UNK N   1      29.774  21.871  -5.177  0.00  0.00     0.026 C 
HETATM    5  C   UNK N   1      26.319  23.725  -6.882  0.00  0.00     0.128 C 
HETATM    6  C   UNK N   1      27.229  24.806  -4.858  0.00  0.00     0.010 C 
HETATM    7  C   UNK N   1      28.446  22.348  -7.473  0.00  0.00     0.047 C 
HETATM    8  C   UNK N   1      26.001  24.761  -5.786  0.00  0.00     0.052 C 
HETATM    9  C   UNK N   1      31.237  21.575  -4.760  0.00  0.00     0.023 C 
HETATM   10  C   UNK N   1      29.362  23.371  -3.216  0.00  0.00     0.010 C 
HETATM   11  C   UNK N   1      29.419  21.528  -6.640  0.00  0.00    -0.083 C 
HETATM   12  C   UNK N   1      30.479  22.644  -2.452  0.00  0.00     0.034 C 
HETATM   13  C   UNK N   1      31.465  21.874  -3.288  0.00  0.00    -0.079 C 
HETATM   14  C   UNK N   1      31.588  20.095  -4.970  0.00  0.00     0.010 C 
HETATM   15  C   UNK N   1      25.686  24.107  -8.149  0.00  0.00    -0.078 C 
HETATM   16  C   UNK N   1      33.044  19.784  -4.595  0.00  0.00     0.004 C 
HETATM   17  C   UNK N   1      32.587  21.435  -2.698  0.00  0.00    -0.024 C 
HETATM   18  C   UNK N   1      29.597  20.275  -7.059  0.00  0.00     0.015 C 
HETATM   19  C   UNK N   1      33.623  20.665  -3.474  0.00  0.00     0.027 C 
HETATM   20  C   UNK N   1      25.179  24.392  -9.204  0.00  0.00     0.015 C 
ENDROOT
BRANCH   5  21
HETATM   21  O   UNK N   1      25.766  22.486  -6.524  0.00  0.00    -0.377 OA
HETATM   22  H   UNK N   1      25.423  21.580  -6.498  0.00  0.00     0.211 HD
ENDBRANCH   5  21
BRANCH   1  23
HETATM   23  C   UNK N   1      28.582  24.865  -7.431  0.00  0.00     0.010 C 
HETATM   24  C   UNK N   1      29.350  24.577  -8.722  0.00  0.00     0.006 C 
ENDBRANCH   1  23
TORSDOF 2
ENDMDL
MODEL 4
REMARK VINA RESULT:      -7.2      6.247     10.792
REMARK  2 active torsions:
REMARK  status: ('A' for Active; 'I' for Inactive)
REMARK    1  A    between atoms: C_6  and  O_1 
REMARK    2  A    between atoms: C_2  and  C_13 
ROOT
HETATM    1  C   UNK N   1      35.842  13.200  12.020  0.00  0.00     0.009 C 
HETATM    2  C   UNK N   1      35.653  13.948  13.352  0.00  0.00     0.003 C 
HETATM    3  C   UNK N   1      36.035  13.164  14.607  0.00  0.00    -0.000 C 
HETATM    4  C   UNK N   1      35.022  11.996  14.715  0.00  0.00     0.026 C 
HETATM    5  C   UNK N   1      35.189  14.272  11.100  0.00  0.00     0.128 C 
HETATM    6  C   UNK N   1      36.272  15.299  13.067  0.00  0.00     0.010 C 
HETATM    7  C   UNK N   1      35.118  11.843  12.026  0.00  0.00     0.047 C 
HETATM    8  C   UNK N   1      35.770  15.593  11.641  0.00  0.00     0.052 C 
HETATM    9  C   UNK N   1      35.416  11.094  15.912  0.00  0.00     0.023 C 
HETATM   10  C   UNK N   1      35.834  14.084  15.830  0.00  0.00     0.010 C 
HETATM   11  C   UNK N   1      34.764  11.257  13.385  0.00  0.00    -0.083 C 
HETATM   12  C   UNK N   1      35.639  13.406  17.195  0.00  0.00     0.034 C 
HETATM   13  C   UNK N   1      35.574  11.903  17.188  0.00  0.00    -0.079 C 
HETATM   14  C   UNK N   1      34.342  10.034  16.191  0.00  0.00     0.010 C 
HETATM   15  C   UNK N   1      35.393  14.177   9.651  0.00  0.00    -0.078 C 
HETATM   16  C   UNK N   1      34.725   9.107  17.352  0.00  0.00     0.004 C 
HETATM   17  C   UNK N   1      35.656  11.262  18.363  0.00  0.00    -0.024 C 
HETATM   18  C   UNK N   1      33.830  10.306  13.358  0.00  0.00     0.015 C 
HETATM   19  C   UNK N   1      35.606   9.758  18.433  0.00  0.00     0.027 C 
HETATM   20  C   UNK N   1      35.544  14.067   8.460  0.00  0.00     0.015 C 
ENDROOT
BRANCH   5  21
HETATM   21  O   UNK N   1      33.800  14.260  11.304  0.00  0.00    -0.377 OA
HETATM   22  H   UNK N   1      32.889  14.060  11.564  0.00  0.00     0.211 HD
ENDBRANCH   5  21
BRANCH   1  23
HETATM   23  C   UNK N   1      37.349  12.970  11.699  0.00  0.00     0.010 C 
HETATM   24  C   UNK N   1      37.658  11.591  11.115  0.00  0.00     0.006 C 
ENDBRANCH   1  23
TORSDOF 2
ENDMDL
MODEL 5
REMARK VINA RESULT:      -7.1     12.099     13.894
REMARK  2 active torsions:
REMARK  status: ('A' for Active; 'I' for Inactive)
REMARK    1  A    between atoms: C_6  and  O_1 
REMARK    2  A    between atoms: C_2  and  C_13 
ROOT
HETATM    1  C   UNK N   1      31.825  21.834  -5.091  0.00  0.00     0.009 C 
HETATM    2  C   UNK N   1      30.555  21.489  -5.892  0.00  0.00     0.003 C 
HETATM    3  C   UNK N   1      29.558  22.634  -6.071  0.00  0.00    -0.000 C 
HETATM    4  C   UNK N   1      29.005  22.953  -4.659  0.00  0.00     0.026 C 
HETATM    5  C   UNK N   1      32.410  20.394  -5.026  0.00  0.00     0.128 C 
HETATM    6  C   UNK N   1      31.108  20.752  -7.092  0.00  0.00     0.010 C 
HETATM    7  C   UNK N   1      31.480  22.443  -3.722  0.00  0.00     0.047 C 
HETATM    8  C   UNK N   1      32.197  19.867  -6.459  0.00  0.00     0.052 C 
HETATM    9  C   UNK N   1      28.063  24.180  -4.750  0.00  0.00     0.023 C 
HETATM   10  C   UNK N   1      28.388  22.123  -6.937  0.00  0.00     0.010 C 
HETATM   11  C   UNK N   1      30.085  23.026  -3.557  0.00  0.00    -0.083 C 
HETATM   12  C   UNK N   1      27.051  22.872  -6.825  0.00  0.00     0.034 C 
HETATM   13  C   UNK N   1      26.993  23.980  -5.808  0.00  0.00    -0.079 C 
HETATM   14  C   UNK N   1      27.332  24.423  -3.422  0.00  0.00     0.010 C 
HETATM   15  C   UNK N   1      33.808  20.219  -4.618  0.00  0.00    -0.078 C 
HETATM   16  C   UNK N   1      26.418  25.654  -3.478  0.00  0.00     0.004 C 
HETATM   17  C   UNK N   1      25.946  24.817  -5.846  0.00  0.00    -0.024 C 
HETATM   18  C   UNK N   1      29.693  23.192  -2.294  0.00  0.00     0.015 C 
HETATM   19  C   UNK N   1      25.824  25.954  -4.865  0.00  0.00     0.027 C 
HETATM   20  C   UNK N   1      34.949  20.090  -4.251  0.00  0.00     0.015 C 
ENDROOT
BRANCH   5  21
HETATM   21  O   UNK N   1      31.641  19.631  -4.133  0.00  0.00    -0.377 OA
HETATM   22  H   UNK N   1      30.934  19.198  -3.633  0.00  0.00     0.211 HD
ENDBRANCH   5  21
BRANCH   1  23
HETATM   23  C   UNK N   1      32.743  22.822  -5.870  0.00  0.00     0.010 C 
HETATM   24  C   UNK N   1      33.104  24.085  -5.087  0.00  0.00     0.006 C 
ENDBRANCH   1  23
TORSDOF 2
ENDMDL
MODEL 6
REMARK VINA RESULT:      -7.0     13.740     16.510
REMARK  2 active torsions:
REMARK  status: ('A' for Active; 'I' for Inactive)
REMARK    1  A    between atoms: C_6  and  O_1 
REMARK    2  A    between atoms: C_2  and  C_13 
ROOT
HETATM    1  C   UNK N   1      27.147  24.742  -6.160  0.00  0.00     0.009 C 
HETATM    2  C   UNK N   1      27.958  23.850  -5.202  0.00  0.00     0.003 C 
HETATM    3  C   UNK N   1      29.072  23.028  -5.852  0.00  0.00    -0.000 C 
HETATM    4  C   UNK N   1      28.370  22.002  -6.777  0.00  0.00     0.026 C 
HETATM    5  C   UNK N   1      26.081  25.214  -5.129  0.00  0.00     0.128 C 
HETATM    6  C   UNK N   1      28.259  24.784  -4.050  0.00  0.00     0.010 C 
HETATM    7  C   UNK N   1      26.579  23.935  -7.338  0.00  0.00     0.047 C 
HETATM    8  C   UNK N   1      26.924  25.531  -3.878  0.00  0.00     0.052 C 
HETATM    9  C   UNK N   1      29.448  21.201  -7.553  0.00  0.00     0.023 C 
HETATM   10  C   UNK N   1      29.805  22.246  -4.741  0.00  0.00     0.010 C 
HETATM   11  C   UNK N   1      27.238  22.598  -7.641  0.00  0.00    -0.083 C 
HETATM   12  C   UNK N   1      30.581  20.989  -5.162  0.00  0.00     0.034 C 
HETATM   13  C   UNK N   1      30.472  20.594  -6.610  0.00  0.00    -0.079 C 
HETATM   14  C   UNK N   1      28.823  20.039  -8.336  0.00  0.00     0.010 C 
HETATM   15  C   UNK N   1      25.225  26.354  -5.473  0.00  0.00    -0.078 C 
HETATM   16  C   UNK N   1      29.867  19.251  -9.139  0.00  0.00     0.004 C 
HETATM   17  C   UNK N   1      31.318  19.663  -7.076  0.00  0.00    -0.024 C 
HETATM   18  C   UNK N   1      26.509  21.771  -8.391  0.00  0.00     0.015 C 
HETATM   19  C   UNK N   1      31.274  19.224  -8.516  0.00  0.00     0.027 C 
HETATM   20  C   UNK N   1      24.509  27.273  -5.783  0.00  0.00     0.015 C 
ENDROOT
BRANCH   5  21
HETATM   21  O   UNK N   1      25.217  24.145  -4.847  0.00  0.00    -0.377 OA
HETATM   22  H   UNK N   1      24.612  23.504  -4.444  0.00  0.00     0.211 HD
ENDBRANCH   5  21
BRANCH   1  23
HETATM   23  C   UNK N   1      28.007  25.916  -6.716  0.00  0.00     0.010 C 
HETATM   24  C   UNK N   1      27.712  26.268  -8.175  0.00  0.00     0.006 C 
ENDBRANCH   1  23
TORSDOF 2
ENDMDL
MODEL 7
REMARK VINA RESULT:      -6.9      5.294      7.789
REMARK  2 active torsions:
REMARK  status: ('A' for Active; 'I' for Inactive)
REMARK    1  A    between atoms: C_6  and  O_1 
REMARK    2  A    between atoms: C_2  and  C_13 
ROOT
HETATM    1  C   UNK N   1      26.099  18.832   4.315  0.00  0.00     0.009 C 
HETATM    2  C   UNK N   1      26.728  17.485   3.912  0.00  0.00     0.003 C 
HETATM    3  C   UNK N   1      25.953  16.683   2.868  0.00  0.00    -0.000 C 
HETATM    4  C   UNK N   1      24.624  16.260   3.543  0.00  0.00     0.026 C 
HETATM    5  C   UNK N   1      27.092  19.175   5.462  0.00  0.00     0.128 C 
HETATM    6  C   UNK N   1      28.179  17.850   3.686  0.00  0.00     0.010 C 
HETATM    7  C   UNK N   1      24.639  18.660   4.768  0.00  0.00     0.047 C 
HETATM    8  C   UNK N   1      28.462  18.809   4.857  0.00  0.00     0.052 C 
HETATM    9  C   UNK N   1      23.738  15.529   2.502  0.00  0.00     0.023 C 
HETATM   10  C   UNK N   1      26.756  15.403   2.551  0.00  0.00     0.010 C 
HETATM   11  C   UNK N   1      23.926  17.389   4.331  0.00  0.00    -0.083 C 
HETATM   12  C   UNK N   1      25.979  14.214   1.962  0.00  0.00     0.034 C 
HETATM   13  C   UNK N   1      24.490  14.389   1.837  0.00  0.00    -0.079 C 
HETATM   14  C   UNK N   1      22.495  14.914   3.160  0.00  0.00     0.010 C 
HETATM   15  C   UNK N   1      27.114  20.543   5.989  0.00  0.00    -0.078 C 
HETATM   16  C   UNK N   1      21.585  14.213   2.143  0.00  0.00     0.004 C 
HETATM   17  C   UNK N   1      23.808  13.493   1.108  0.00  0.00    -0.024 C 
HETATM   18  C   UNK N   1      22.831  17.092   5.031  0.00  0.00     0.015 C 
HETATM   19  C   UNK N   1      22.316  13.608   0.932  0.00  0.00     0.027 C 
HETATM   20  C   UNK N   1      27.099  21.664   6.433  0.00  0.00     0.015 C 
ENDROOT
BRANCH   5  21
HETATM   21  O   UNK N   1      26.830  18.336   6.556  0.00  0.00    -0.377 OA
HETATM   22  H   UNK N   1      26.434  17.759   7.226  0.00  0.00     0.211 HD
ENDBRANCH   5  21
BRANCH   1  23
HETATM   23  C   UNK N   1      26.150  19.861   3.146  0.00  0.00     0.010 C 
HETATM   24  C   UNK N   1      24.803  20.512   2.830  0.00  0.00     0.006 C 
ENDBRANCH   1  23
TORSDOF 2
ENDMDL
MODEL 8
REMARK VINA RESULT:      -6.9      7.650     11.037
REMARK  2 active torsions:
REMARK  status: ('A' for Active; 'I' for Inactive)
REMARK    1  A    between atoms: C_6  and  O_1 
REMARK    2  A    between atoms: C_2  and  C_13 
ROOT
HETATM    1  C   UNK N   1      21.330  16.188   5.091  0.00  0.00     0.009 C 
HETATM    2  C   UNK N   1      22.769  15.948   5.584  0.00  0.00     0.003 C 
HETATM    3  C   UNK N   1      22.986  14.663   6.383  0.00  0.00    -0.000 C 
HETATM    4  C   UNK N   1      22.188  14.831   7.701  0.00  0.00     0.026 C 
HETATM    5  C   UNK N   1      21.556  17.618   4.522  0.00  0.00     0.128 C 
HETATM    6  C   UNK N   1      23.597  16.240   4.352  0.00  0.00     0.010 C 
HETATM    7  C   UNK N   1      20.318  16.116   6.246  0.00  0.00     0.047 C 
HETATM    8  C   UNK N   1      22.900  17.488   3.779  0.00  0.00     0.052 C 
HETATM    9  C   UNK N   1      22.277  13.516   8.517  0.00  0.00     0.023 C 
HETATM   10  C   UNK N   1      24.484  14.565   6.742  0.00  0.00     0.010 C 
HETATM   11  C   UNK N   1      20.764  15.399   7.512  0.00  0.00    -0.083 C 
HETATM   12  C   UNK N   1      24.863  13.688   7.945  0.00  0.00     0.034 C 
HETATM   13  C   UNK N   1      23.719  13.081   8.712  0.00  0.00    -0.079 C 
HETATM   14  C   UNK N   1      21.673  13.686   9.917  0.00  0.00     0.010 C 
HETATM   15  C   UNK N   1      20.536  18.194   3.640  0.00  0.00    -0.078 C 
HETATM   16  C   UNK N   1      21.719  12.387  10.733  0.00  0.00     0.004 C 
HETATM   17  C   UNK N   1      23.997  12.120   9.604  0.00  0.00    -0.024 C 
HETATM   18  C   UNK N   1      20.042  15.675   8.597  0.00  0.00     0.015 C 
HETATM   19  C   UNK N   1      22.902  11.460  10.403  0.00  0.00     0.027 C 
HETATM   20  C   UNK N   1      19.674  18.666   2.941  0.00  0.00     0.015 C 
ENDROOT
BRANCH   5  21
HETATM   21  O   UNK N   1      21.703  18.515   5.591  0.00  0.00    -0.377 OA
HETATM   22  H   UNK N   1      21.934  19.250   6.178  0.00  0.00     0.211 HD
ENDBRANCH   5  21
BRANCH   1  23
HETATM   23  C   UNK N   1      20.922  15.161   3.993  0.00  0.00     0.010 C 
HETATM   24  C   UNK N   1      19.468  14.694   4.087  0.00  0.00     0.006 C 
ENDBRANCH   1  23
TORSDOF 2
ENDMDL
MODEL 9
REMARK VINA RESULT:      -6.8      2.787      3.870
REMARK  2 active torsions:
REMARK  status: ('A' for Active; 'I' for Inactive)
REMARK    1  A    between atoms: C_6  and  O_1 
REMARK    2  A    between atoms: C_2  and  C_13 
ROOT
HETATM    1  C   UNK N   1      31.133  15.860   4.660  0.00  0.00     0.009 C 
HETATM    2  C   UNK N   1      29.693  15.853   4.116  0.00  0.00     0.003 C 
HETATM    3  C   UNK N   1      28.990  17.210   4.097  0.00  0.00    -0.000 C 
HETATM    4  C   UNK N   1      28.802  17.623   5.578  0.00  0.00     0.026 C 
HETATM    5  C   UNK N   1      31.352  14.320   4.650  0.00  0.00     0.128 C 
HETATM    6  C   UNK N   1      29.818  15.030   2.852  0.00  0.00     0.010 C 
HETATM    7  C   UNK N   1      31.207  16.505   6.054  0.00  0.00     0.047 C 
HETATM    8  C   UNK N   1      30.757  13.893   3.294  0.00  0.00     0.052 C 
HETATM    9  C   UNK N   1      28.187  19.044   5.634  0.00  0.00     0.023 C 
HETATM   10  C   UNK N   1      27.590  17.019   3.474  0.00  0.00     0.010 C 
HETATM   11  C   UNK N   1      30.051  17.406   6.460  0.00  0.00    -0.083 C 
HETATM   12  C   UNK N   1      26.521  18.069   3.813  0.00  0.00     0.034 C 
HETATM   13  C   UNK N   1      26.923  19.135   4.796  0.00  0.00    -0.079 C 
HETATM   14  C   UNK N   1      27.796  19.428   7.067  0.00  0.00     0.010 C 
HETATM   15  C   UNK N   1      32.716  13.801   4.798  0.00  0.00    -0.078 C 
HETATM   16  C   UNK N   1      27.215  20.847   7.152  0.00  0.00     0.004 C 
HETATM   17  C   UNK N   1      26.123  20.202   4.933  0.00  0.00    -0.024 C 
HETATM   18  C   UNK N   1      29.952  17.635   7.769  0.00  0.00     0.015 C 
HETATM   19  C   UNK N   1      26.465  21.313   5.891  0.00  0.00     0.027 C 
HETATM   20  C   UNK N   1      33.839  13.389   4.950  0.00  0.00     0.015 C 
ENDROOT
BRANCH   5  21
HETATM   21  O   UNK N   1      30.600  13.748   5.688  0.00  0.00    -0.377 OA
HETATM   22  H   UNK N   1      30.098  13.162   6.275  0.00  0.00     0.211 HD
ENDBRANCH   5  21
BRANCH   1  23
HETATM   23  C   UNK N   1      32.105  16.612   3.701  0.00  0.00     0.010 C 
HETATM   24  C   UNK N   1      33.069  17.562   4.411  0.00  0.00     0.006 C 
ENDBRANCH   1  23
TORSDOF 2
ENDMDL
