MODEL 1
REMARK VINA RESULT:      -6.5      0.000      0.000
REMARK  5 active torsions:
REMARK  status: ('A' for Active; 'I' for Inactive)
REMARK    1  A    between atoms: C_11  and  O_1 
REMARK    2  A    between atoms: O_2  and  C_17 
REMARK    3  A    between atoms: O_2  and  C_24 
REMARK    4  A    between atoms: N_8  and  C_22 
REMARK       I    between atoms: N_9  and  C_24 
REMARK    5  A    between atoms: C_14  and  C_17 
ROOT
HETATM    1  O   UNK N   1      28.144  17.923   3.777  0.00  0.00    -0.285 OA
HETATM    2  O   UNK N   1      29.530  18.458   8.859  0.00  0.00    -0.285 OA
HETATM    3  N   UNK N   1      30.445  14.109   5.566  0.00  0.00    -0.403 N 
HETATM    4  N   UNK N   1      30.646  16.704   4.736  0.00  0.00    -0.341 N 
HETATM    5  C   UNK N   1      31.764  14.734   5.370  0.00  0.00     0.158 A 
HETATM    6  C   UNK N   1      31.728  16.265   5.573  0.00  0.00     0.168 A 
HETATM    7  C   UNK N   1      30.897  14.446   4.205  0.00  0.00     0.122 A 
HETATM    8  C   UNK N   1      30.211  15.741   3.776  0.00  0.00     0.153 C 
HETATM    9  C   UNK N   1      31.294  16.796   6.969  0.00  0.00     0.107 A 
HETATM   10  C   UNK N   1      29.710  17.467   5.470  0.00  0.00     0.095 A 
HETATM   11  C   UNK N   1      30.047  17.582   6.734  0.00  0.00     0.036 A 
HETATM   12  C   UNK N   1      28.462  18.070   4.947  0.00  0.00     0.207 A 
HETATM   13  C   UNK N   1      29.214  18.356   7.684  0.00  0.00     0.207 A 
HETATM   14  C   UNK N   1      27.614  18.873   5.876  0.00  0.00     0.021 A 
HETATM   15  C   UNK N   1      27.978  19.014   7.176  0.00  0.00     0.087 A 
HETATM   16  C   UNK N   1      26.367  19.522   5.360  0.00  0.00     0.055 C 
HETATM   17  H   UNK N   1      29.736  13.724   6.190  0.00  0.00     0.154 HD
ENDROOT
BRANCH   9  18
HETATM   18  C   UNK N   1      32.068  16.663   8.275  0.00  0.00     0.195 C 
BRANCH  18  19
HETATM   19  O   UNK N   1      32.779  17.815   8.516  0.00  0.00    -0.303 OA
BRANCH  19  20
HETATM   20  C   UNK N   1      34.131  17.871   8.470  0.00  0.00     0.358 C 
HETATM   21  O   UNK N   1      34.702  18.427   7.541  0.00  0.00    -0.239 OA
HETATM   22  N   UNK N   1      34.853  17.313   9.457  0.00  0.00    -0.346 N 
HETATM   23  H   UNK N   1      34.488  16.778  10.199  0.00  0.00     0.161 HD
HETATM   24  H   UNK N   1      35.828  17.450   9.437  0.00  0.00     0.161 HD
ENDBRANCH  19  20
ENDBRANCH  18  19
ENDBRANCH   9  18
BRANCH   6  25
HETATM   25  O   UNK N   1      32.915  16.891   5.125  0.00  0.00    -0.362 OA
HETATM   26  C   UNK N   1      33.969  15.962   5.136  0.00  0.00     0.204 C 
ENDBRANCH   6  25
BRANCH  15  27
HETATM   27  N   UNK N   1      27.184  19.784   8.062  0.00  0.00    -0.395 N 
HETATM   28  H   UNK N   1      26.786  20.639   7.781  0.00  0.00     0.156 HD
HETATM   29  H   UNK N   1      27.026  19.456   8.978  0.00  0.00     0.156 HD
ENDBRANCH  15  27
TORSDOF 5
ENDMDL
MODEL 2
REMARK VINA RESULT:      -6.4      7.653      9.276
REMARK  5 active torsions:
REMARK  status: ('A' for Active; 'I' for Inactive)
REMARK    1  A    between atoms: C_11  and  O_1 
REMARK    2  A    between atoms: O_2  and  C_17 
REMARK    3  A    between atoms: O_2  and  C_24 
REMARK    4  A    between atoms: N_8  and  C_22 
REMARK       I    between atoms: N_9  and  C_24 
REMARK    5  A    between atoms: C_14  and  C_17 
ROOT
HETATM    1  O   UNK N   1      19.534  14.318   9.781  0.00  0.00    -0.285 OA
HETATM    2  O   UNK N   1      22.989  16.170   6.223  0.00  0.00    -0.285 OA
HETATM    3  N   UNK N   1      24.043  12.839  10.510  0.00  0.00    -0.403 N 
HETATM    4  N   UNK N   1      21.807  12.640   8.952  0.00  0.00    -0.341 N 
HETATM    5  C   UNK N   1      23.921  11.768   9.506  0.00  0.00     0.158 A 
HETATM    6  C   UNK N   1      23.010  12.168   8.324  0.00  0.00     0.168 A 
HETATM    7  C   UNK N   1      23.061  11.759  10.712  0.00  0.00     0.122 A 
HETATM    8  C   UNK N   1      21.680  12.285  10.330  0.00  0.00     0.153 C 
HETATM    9  C   UNK N   1      23.435  13.398   7.472  0.00  0.00     0.107 A 
HETATM   10  C   UNK N   1      21.473  13.938   8.506  0.00  0.00     0.095 A 
HETATM   11  C   UNK N   1      22.342  14.402   7.638  0.00  0.00     0.036 A 
HETATM   12  C   UNK N   1      20.313  14.748   8.945  0.00  0.00     0.207 A 
HETATM   13  C   UNK N   1      22.178  15.742   7.027  0.00  0.00     0.207 A 
HETATM   14  C   UNK N   1      20.110  16.093   8.331  0.00  0.00     0.021 A 
HETATM   15  C   UNK N   1      20.994  16.561   7.413  0.00  0.00     0.087 A 
HETATM   16  C   UNK N   1      18.924  16.915   8.733  0.00  0.00     0.055 C 
HETATM   17  H   UNK N   1      24.485  13.700  10.831  0.00  0.00     0.154 HD
ENDROOT
BRANCH   9  18
HETATM   18  C   UNK N   1      24.640  13.492   6.547  0.00  0.00     0.195 C 
BRANCH  18  19
HETATM   19  O   UNK N   1      25.628  14.242   7.140  0.00  0.00    -0.303 OA
BRANCH  19  20
HETATM   20  C   UNK N   1      26.357  15.166   6.471  0.00  0.00     0.358 C 
HETATM   21  O   UNK N   1      27.337  14.834   5.816  0.00  0.00    -0.239 OA
HETATM   22  N   UNK N   1      25.998  16.461   6.522  0.00  0.00    -0.346 N 
HETATM   23  H   UNK N   1      25.278  16.831   7.083  0.00  0.00     0.161 HD
HETATM   24  H   UNK N   1      26.496  17.091   5.952  0.00  0.00     0.161 HD
ENDBRANCH  19  20
ENDBRANCH  18  19
ENDBRANCH   9  18
BRANCH   6  25
HETATM   25  O   UNK N   1      22.677  11.060   7.509  0.00  0.00    -0.362 OA
HETATM   26  C   UNK N   1      23.722  10.122   7.543  0.00  0.00     0.204 C 
ENDBRANCH   6  25
BRANCH  15  27
HETATM   27  N   UNK N   1      20.803  17.833   6.817  0.00  0.00    -0.395 N 
HETATM   28  H   UNK N   1      20.181  17.956   6.064  0.00  0.00     0.156 HD
HETATM   29  H   UNK N   1      21.302  18.608   7.165  0.00  0.00     0.156 HD
ENDBRANCH  15  27
TORSDOF 5
ENDMDL
MODEL 3
REMARK VINA RESULT:      -6.3     12.128     14.436
REMARK  5 active torsions:
REMARK  status: ('A' for Active; 'I' for Inactive)
REMARK    1  A    between atoms: C_11  and  O_1 
REMARK    2  A    between atoms: O_2  and  C_17 
REMARK    3  A    between atoms: O_2  and  C_24 
REMARK    4  A    between atoms: N_8  and  C_22 
REMARK       I    between atoms: N_9  and  C_24 
REMARK    5  A    between atoms: C_14  and  C_17 
ROOT
HETATM    1  O   UNK N   1      29.317  21.547  -7.442  0.00  0.00    -0.285 OA
HETATM    2  O   UNK N   1      25.140  24.166  -5.513  0.00  0.00    -0.285 OA
HETATM    3  N   UNK N   1      29.638  22.512  -2.751  0.00  0.00    -0.403 N 
HETATM    4  N   UNK N   1      29.706  23.518  -5.290  0.00  0.00    -0.341 N 
HETATM    5  C   UNK N   1      30.104  23.886  -3.001  0.00  0.00     0.158 A 
HETATM    6  C   UNK N   1      29.474  24.503  -4.270  0.00  0.00     0.168 A 
HETATM    7  C   UNK N   1      30.913  22.732  -3.454  0.00  0.00     0.122 A 
HETATM    8  C   UNK N   1      30.680  22.531  -4.950  0.00  0.00     0.153 C 
HETATM    9  C   UNK N   1      27.925  24.647  -4.306  0.00  0.00     0.107 A 
HETATM   10  C   UNK N   1      28.502  23.154  -5.933  0.00  0.00     0.095 A 
HETATM   11  C   UNK N   1      27.465  23.791  -5.439  0.00  0.00     0.036 A 
HETATM   12  C   UNK N   1      28.349  22.159  -7.019  0.00  0.00     0.207 A 
HETATM   13  C   UNK N   1      26.101  23.573  -5.976  0.00  0.00     0.207 A 
HETATM   14  C   UNK N   1      26.991  21.934  -7.595  0.00  0.00     0.021 A 
HETATM   15  C   UNK N   1      25.923  22.614  -7.102  0.00  0.00     0.087 A 
HETATM   16  C   UNK N   1      26.819  20.959  -8.719  0.00  0.00     0.055 C 
HETATM   17  H   UNK N   1      28.939  21.874  -2.368  0.00  0.00     0.154 HD
ENDROOT
BRANCH   9  18
HETATM   18  C   UNK N   1      27.079  25.586  -3.456  0.00  0.00     0.195 C 
BRANCH  18  19
HETATM   19  O   UNK N   1      26.931  26.793  -4.099  0.00  0.00    -0.303 OA
BRANCH  19  20
HETATM   20  C   UNK N   1      25.747  27.443  -4.183  0.00  0.00     0.358 C 
HETATM   21  O   UNK N   1      25.382  28.196  -3.290  0.00  0.00    -0.239 OA
HETATM   22  N   UNK N   1      24.964  27.263  -5.262  0.00  0.00    -0.346 N 
HETATM   23  H   UNK N   1      25.135  26.620  -5.989  0.00  0.00     0.161 HD
HETATM   24  H   UNK N   1      24.155  27.819  -5.332  0.00  0.00     0.161 HD
ENDBRANCH  19  20
ENDBRANCH  18  19
ENDBRANCH   9  18
BRANCH   6  25
HETATM   25  O   UNK N   1      30.118  25.701  -4.658  0.00  0.00    -0.362 OA
HETATM   26  C   UNK N   1      30.733  26.286  -3.539  0.00  0.00     0.204 C 
ENDBRANCH   6  25
BRANCH  15  27
HETATM   27  N   UNK N   1      24.632  22.414  -7.650  0.00  0.00    -0.395 N 
HETATM   28  H   UNK N   1      24.213  23.089  -8.232  0.00  0.00     0.156 HD
HETATM   29  H   UNK N   1      24.144  21.583  -7.445  0.00  0.00     0.156 HD
ENDBRANCH  15  27
TORSDOF 5
ENDMDL
MODEL 4
REMARK VINA RESULT:      -6.1      8.398     10.783
REMARK  5 active torsions:
REMARK  status: ('A' for Active; 'I' for Inactive)
REMARK    1  A    between atoms: C_11  and  O_1 
REMARK    2  A    between atoms: O_2  and  C_17 
REMARK    3  A    between atoms: O_2  and  C_24 
REMARK    4  A    between atoms: N_8  and  C_22 
REMARK       I    between atoms: N_9  and  C_24 
REMARK    5  A    between atoms: C_14  and  C_17 
ROOT
HETATM    1  O   UNK N   1      23.687  12.300   6.727  0.00  0.00    -0.285 OA
HETATM    2  O   UNK N   1      20.097  14.673   9.809  0.00  0.00    -0.285 OA
HETATM    3  N   UNK N   1      23.318  17.027   5.978  0.00  0.00    -0.403 N 
HETATM    4  N   UNK N   1      22.147  14.577   5.674  0.00  0.00    -0.341 N 
HETATM    5  C   UNK N   1      22.139  16.861   5.112  0.00  0.00     0.158 A 
HETATM    6  C   UNK N   1      21.240  15.685   5.555  0.00  0.00     0.168 A 
HETATM    7  C   UNK N   1      23.440  16.271   4.720  0.00  0.00     0.122 A 
HETATM    8  C   UNK N   1      23.415  14.780   5.050  0.00  0.00     0.153 C 
HETATM    9  C   UNK N   1      20.620  15.751   6.979  0.00  0.00     0.107 A 
HETATM   10  C   UNK N   1      22.057  13.979   6.951  0.00  0.00     0.095 A 
HETATM   11  C   UNK N   1      21.180  14.582   7.719  0.00  0.00     0.036 A 
HETATM   12  C   UNK N   1      22.848  12.826   7.441  0.00  0.00     0.207 A 
HETATM   13  C   UNK N   1      20.912  14.109   9.098  0.00  0.00     0.207 A 
HETATM   14  C   UNK N   1      22.585  12.315   8.818  0.00  0.00     0.021 A 
HETATM   15  C   UNK N   1      21.658  12.921   9.602  0.00  0.00     0.087 A 
HETATM   16  C   UNK N   1      23.348  11.127   9.321  0.00  0.00     0.055 C 
HETATM   17  H   UNK N   1      23.741  17.397   6.830  0.00  0.00     0.154 HD
ENDROOT
BRANCH   9  18
HETATM   18  C   UNK N   1      19.550  16.721   7.462  0.00  0.00     0.195 C 
BRANCH  18  19
HETATM   19  O   UNK N   1      20.127  17.716   8.218  0.00  0.00    -0.303 OA
BRANCH  19  20
HETATM   20  C   UNK N   1      19.485  18.337   9.234  0.00  0.00     0.358 C 
HETATM   21  O   UNK N   1      20.031  19.233   9.863  0.00  0.00    -0.239 OA
HETATM   22  N   UNK N   1      18.232  17.967   9.554  0.00  0.00    -0.346 N 
HETATM   23  H   UNK N   1      17.743  17.208   9.160  0.00  0.00     0.161 HD
HETATM   24  H   UNK N   1      17.764  18.499  10.238  0.00  0.00     0.161 HD
ENDBRANCH  19  20
ENDBRANCH  18  19
ENDBRANCH   9  18
BRANCH   6  25
HETATM   25  O   UNK N   1      20.270  15.358   4.579  0.00  0.00    -0.362 OA
HETATM   26  C   UNK N   1      19.940  16.508   3.841  0.00  0.00     0.204 C 
ENDBRANCH   6  25
BRANCH  15  27
HETATM   27  N   UNK N   1      21.394  12.435  10.907  0.00  0.00    -0.395 N 
HETATM   28  H   UNK N   1      20.487  12.460  11.288  0.00  0.00     0.156 HD
HETATM   29  H   UNK N   1      22.134  12.065  11.442  0.00  0.00     0.156 HD
ENDBRANCH  15  27
TORSDOF 5
ENDMDL
MODEL 5
REMARK VINA RESULT:      -6.1     12.269     14.696
REMARK  5 active torsions:
REMARK  status: ('A' for Active; 'I' for Inactive)
REMARK    1  A    between atoms: C_11  and  O_1 
REMARK    2  A    between atoms: O_2  and  C_17 
REMARK    3  A    between atoms: O_2  and  C_24 
REMARK    4  A    between atoms: N_8  and  C_22 
REMARK       I    between atoms: N_9  and  C_24 
REMARK    5  A    between atoms: C_14  and  C_17 
ROOT
HETATM    1  O   UNK N   1      24.898  23.353  -7.728  0.00  0.00    -0.285 OA
HETATM    2  O   UNK N   1      29.780  22.297  -5.975  0.00  0.00    -0.285 OA
HETATM    3  N   UNK N   1      27.451  27.270  -6.640  0.00  0.00    -0.403 N 
HETATM    4  N   UNK N   1      26.114  25.087  -5.684  0.00  0.00    -0.341 N 
HETATM    5  C   UNK N   1      27.147  27.145  -5.204  0.00  0.00     0.158 A 
HETATM    6  C   UNK N   1      27.035  25.673  -4.749  0.00  0.00     0.168 A 
HETATM    7  C   UNK N   1      26.055  27.368  -6.179  0.00  0.00     0.122 A 
HETATM    8  C   UNK N   1      25.365  26.033  -6.448  0.00  0.00     0.153 C 
HETATM    9  C   UNK N   1      28.289  24.769  -4.921  0.00  0.00     0.107 A 
HETATM   10  C   UNK N   1      26.666  23.939  -6.294  0.00  0.00     0.095 A 
HETATM   11  C   UNK N   1      27.884  23.691  -5.871  0.00  0.00     0.036 A 
HETATM   12  C   UNK N   1      26.017  23.088  -7.317  0.00  0.00     0.207 A 
HETATM   13  C   UNK N   1      28.648  22.523  -6.369  0.00  0.00     0.207 A 
HETATM   14  C   UNK N   1      26.753  21.892  -7.821  0.00  0.00     0.021 A 
HETATM   15  C   UNK N   1      28.002  21.620  -7.363  0.00  0.00     0.087 A 
HETATM   16  C   UNK N   1      26.101  20.996  -8.830  0.00  0.00     0.055 C 
HETATM   17  H   UNK N   1      28.132  27.280  -7.400  0.00  0.00     0.154 HD
ENDROOT
BRANCH   9  18
HETATM   18  C   UNK N   1      29.603  24.881  -4.158  0.00  0.00     0.195 C 
BRANCH  18  19
HETATM   19  O   UNK N   1      29.521  24.177  -2.980  0.00  0.00    -0.303 OA
BRANCH  19  20
HETATM   20  C   UNK N   1      30.480  23.316  -2.566  0.00  0.00     0.358 C 
HETATM   21  O   UNK N   1      30.520  22.937  -1.403  0.00  0.00    -0.239 OA
HETATM   22  N   UNK N   1      31.396  22.869  -3.443  0.00  0.00    -0.346 N 
HETATM   23  H   UNK N   1      31.492  23.178  -4.374  0.00  0.00     0.161 HD
HETATM   24  H   UNK N   1      32.022  22.177  -3.130  0.00  0.00     0.161 HD
ENDBRANCH  19  20
ENDBRANCH  18  19
ENDBRANCH   9  18
BRANCH   6  25
HETATM   25  O   UNK N   1      26.482  25.557  -3.452  0.00  0.00    -0.362 OA
HETATM   26  C   UNK N   1      26.354  26.833  -2.880  0.00  0.00     0.204 C 
ENDBRANCH   6  25
BRANCH  15  27
HETATM   27  N   UNK N   1      28.704  20.481  -7.829  0.00  0.00    -0.395 N 
HETATM   28  H   UNK N   1      29.163  20.484  -8.699  0.00  0.00     0.156 HD
HETATM   29  H   UNK N   1      28.733  19.670  -7.269  0.00  0.00     0.156 HD
ENDBRANCH  15  27
TORSDOF 5
ENDMDL
MODEL 6
REMARK VINA RESULT:      -6.1      4.913      7.006
REMARK  5 active torsions:
REMARK  status: ('A' for Active; 'I' for Inactive)
REMARK    1  A    between atoms: C_11  and  O_1 
REMARK    2  A    between atoms: O_2  and  C_17 
REMARK    3  A    between atoms: O_2  and  C_24 
REMARK    4  A    between atoms: N_8  and  C_22 
REMARK       I    between atoms: N_9  and  C_24 
REMARK    5  A    between atoms: C_14  and  C_17 
ROOT
HETATM    1  O   UNK N   1      34.516  14.451   6.159  0.00  0.00    -0.285 OA
HETATM    2  O   UNK N   1      35.103  17.299  10.583  0.00  0.00    -0.285 OA
HETATM    3  N   UNK N   1      33.752  11.950  10.185  0.00  0.00    -0.403 N 
HETATM    4  N   UNK N   1      35.596  13.169   8.579  0.00  0.00    -0.341 N 
HETATM    5  C   UNK N   1      35.193  11.732  10.397  0.00  0.00     0.158 A 
HETATM    6  C   UNK N   1      36.048  12.928   9.921  0.00  0.00     0.168 A 
HETATM    7  C   UNK N   1      34.528  11.187   9.192  0.00  0.00     0.122 A 
HETATM    8  C   UNK N   1      34.834  12.104   8.010  0.00  0.00     0.153 C 
HETATM    9  C   UNK N   1      35.799  14.306  10.599  0.00  0.00     0.107 A 
HETATM   10  C   UNK N   1      35.199  14.514   8.407  0.00  0.00     0.095 A 
HETATM   11  C   UNK N   1      35.328  15.213   9.511  0.00  0.00     0.036 A 
HETATM   12  C   UNK N   1      34.665  15.123   7.167  0.00  0.00     0.207 A 
HETATM   13  C   UNK N   1      34.983  16.654   9.554  0.00  0.00     0.207 A 
HETATM   14  C   UNK N   1      34.329  16.577   7.174  0.00  0.00     0.021 A 
HETATM   15  C   UNK N   1      34.489  17.306   8.308  0.00  0.00     0.087 A 
HETATM   16  C   UNK N   1      33.822  17.222   5.921  0.00  0.00     0.055 C 
HETATM   17  H   UNK N   1      32.864  12.344  10.497  0.00  0.00     0.154 HD
ENDROOT
BRANCH   9  18
HETATM   18  C   UNK N   1      36.116  14.681  12.041  0.00  0.00     0.195 C 
BRANCH  18  19
HETATM   19  O   UNK N   1      35.089  14.283  12.864  0.00  0.00    -0.303 OA
BRANCH  19  20
HETATM   20  C   UNK N   1      35.233  13.332  13.816  0.00  0.00     0.358 C 
HETATM   21  O   UNK N   1      34.463  12.382  13.871  0.00  0.00    -0.239 OA
HETATM   22  N   UNK N   1      36.235  13.430  14.708  0.00  0.00    -0.346 N 
HETATM   23  H   UNK N   1      36.850  14.194  14.792  0.00  0.00     0.161 HD
HETATM   24  H   UNK N   1      36.363  12.676  15.328  0.00  0.00     0.161 HD
ENDBRANCH  19  20
ENDBRANCH  18  19
ENDBRANCH   9  18
BRANCH   6  25
HETATM   25  O   UNK N   1      37.426  12.613   9.873  0.00  0.00    -0.362 OA
HETATM   26  C   UNK N   1      37.726  11.668  10.869  0.00  0.00     0.204 C 
ENDBRANCH   6  25
BRANCH  15  27
HETATM   27  N   UNK N   1      34.183  18.689   8.321  0.00  0.00    -0.395 N 
HETATM   28  H   UNK N   1      34.773  19.339   8.765  0.00  0.00     0.156 HD
HETATM   29  H   UNK N   1      33.363  19.006   7.875  0.00  0.00     0.156 HD
ENDBRANCH  15  27
TORSDOF 5
ENDMDL
MODEL 7
REMARK VINA RESULT:      -6.1      5.634      9.737
REMARK  5 active torsions:
REMARK  status: ('A' for Active; 'I' for Inactive)
REMARK    1  A    between atoms: C_11  and  O_1 
REMARK    2  A    between atoms: O_2  and  C_17 
REMARK    3  A    between atoms: O_2  and  C_24 
REMARK    4  A    between atoms: N_8  and  C_22 
REMARK       I    between atoms: N_9  and  C_24 
REMARK    5  A    between atoms: C_14  and  C_17 
ROOT
HETATM    1  O   UNK N   1      26.230  16.578   5.437  0.00  0.00    -0.285 OA
HETATM    2  O   UNK N   1      23.666  20.623   3.182  0.00  0.00    -0.285 OA
HETATM    3  N   UNK N   1      21.895  15.413   3.735  0.00  0.00    -0.403 N 
HETATM    4  N   UNK N   1      23.300  16.747   5.662  0.00  0.00    -0.341 N 
HETATM    5  C   UNK N   1      21.215  15.937   4.931  0.00  0.00     0.158 A 
HETATM    6  C   UNK N   1      21.933  17.169   5.526  0.00  0.00     0.168 A 
HETATM    7  C   UNK N   1      22.161  14.803   5.049  0.00  0.00     0.122 A 
HETATM    8  C   UNK N   1      23.495  15.336   5.566  0.00  0.00     0.153 C 
HETATM    9  C   UNK N   1      22.070  18.428   4.624  0.00  0.00     0.107 A 
HETATM   10  C   UNK N   1      24.178  17.644   5.015  0.00  0.00     0.095 A 
HETATM   11  C   UNK N   1      23.537  18.636   4.440  0.00  0.00     0.036 A 
HETATM   12  C   UNK N   1      25.652  17.526   4.929  0.00  0.00     0.207 A 
HETATM   13  C   UNK N   1      24.265  19.705   3.716  0.00  0.00     0.207 A 
HETATM   14  C   UNK N   1      26.414  18.598   4.225  0.00  0.00     0.021 A 
HETATM   15  C   UNK N   1      25.752  19.639   3.655  0.00  0.00     0.087 A 
HETATM   16  C   UNK N   1      27.908  18.519   4.158  0.00  0.00     0.055 C 
HETATM   17  H   UNK N   1      22.061  15.447   2.728  0.00  0.00     0.154 HD
ENDROOT
BRANCH   9  18
HETATM   18  C   UNK N   1      20.944  19.339   4.154  0.00  0.00     0.195 C 
BRANCH  18  19
HETATM   19  O   UNK N   1      20.770  19.206   2.796  0.00  0.00    -0.303 OA
BRANCH  19  20
HETATM   20  C   UNK N   1      19.937  18.293   2.245  0.00  0.00     0.358 C 
HETATM   21  O   UNK N   1      20.380  17.287   1.707  0.00  0.00    -0.239 OA
HETATM   22  N   UNK N   1      18.607  18.492   2.292  0.00  0.00    -0.346 N 
HETATM   23  H   UNK N   1      18.164  19.305   2.629  0.00  0.00     0.161 HD
HETATM   24  H   UNK N   1      18.029  17.767   1.961  0.00  0.00     0.161 HD
ENDBRANCH  19  20
ENDBRANCH  18  19
ENDBRANCH   9  18
BRANCH   6  25
HETATM   25  O   UNK N   1      21.444  17.501   6.812  0.00  0.00    -0.362 OA
HETATM   26  C   UNK N   1      20.283  16.757   7.080  0.00  0.00     0.204 C 
ENDBRANCH   6  25
BRANCH  15  27
HETATM   27  N   UNK N   1      26.469  20.667   2.993  0.00  0.00    -0.395 N 
HETATM   28  H   UNK N   1      26.894  20.512   2.119  0.00  0.00     0.156 HD
HETATM   29  H   UNK N   1      26.543  21.553   3.417  0.00  0.00     0.156 HD
ENDBRANCH  15  27
TORSDOF 5
ENDMDL
MODEL 8
REMARK VINA RESULT:      -6.0     12.700     15.731
REMARK  5 active torsions:
REMARK  status: ('A' for Active; 'I' for Inactive)
REMARK    1  A    between atoms: C_11  and  O_1 
REMARK    2  A    between atoms: O_2  and  C_17 
REMARK    3  A    between atoms: O_2  and  C_24 
REMARK    4  A    between atoms: N_8  and  C_22 
REMARK       I    between atoms: N_9  and  C_24 
REMARK    5  A    between atoms: C_14  and  C_17 
ROOT
HETATM    1  O   UNK N   1      29.850  23.276  -3.885  0.00  0.00    -0.285 OA
HETATM    2  O   UNK N   1      28.505  20.838  -8.388  0.00  0.00    -0.285 OA
HETATM    3  N   UNK N   1      25.329  24.117  -5.265  0.00  0.00    -0.403 N 
HETATM    4  N   UNK N   1      27.979  24.585  -5.743  0.00  0.00    -0.341 N 
HETATM    5  C   UNK N   1      25.747  25.162  -6.214  0.00  0.00     0.158 A 
HETATM    6  C   UNK N   1      27.118  24.860  -6.860  0.00  0.00     0.168 A 
HETATM    7  C   UNK N   1      25.996  25.332  -4.764  0.00  0.00     0.122 A 
HETATM    8  C   UNK N   1      27.458  24.997  -4.479  0.00  0.00     0.153 C 
HETATM    9  C   UNK N   1      27.247  23.555  -7.697  0.00  0.00     0.107 A 
HETATM   10  C   UNK N   1      28.620  23.334  -5.888  0.00  0.00     0.095 A 
HETATM   11  C   UNK N   1      28.270  22.724  -6.996  0.00  0.00     0.036 A 
HETATM   12  C   UNK N   1      29.563  22.712  -4.930  0.00  0.00     0.207 A 
HETATM   13  C   UNK N   1      28.835  21.403  -7.358  0.00  0.00     0.207 A 
HETATM   14  C   UNK N   1      30.165  21.392  -5.277  0.00  0.00     0.021 A 
HETATM   15  C   UNK N   1      29.823  20.773  -6.437  0.00  0.00     0.087 A 
HETATM   16  C   UNK N   1      31.149  20.760  -4.340  0.00  0.00     0.055 C 
HETATM   17  H   UNK N   1      24.895  23.211  -5.085  0.00  0.00     0.154 HD
ENDROOT
BRANCH   9  18
HETATM   18  C   UNK N   1      26.578  23.261  -9.033  0.00  0.00     0.195 C 
BRANCH  18  19
HETATM   19  O   UNK N   1      25.265  22.905  -8.830  0.00  0.00    -0.303 OA
BRANCH  19  20
HETATM   20  C   UNK N   1      24.898  21.797  -8.146  0.00  0.00     0.358 C 
HETATM   21  O   UNK N   1      24.175  21.879  -7.162  0.00  0.00    -0.239 OA
HETATM   22  N   UNK N   1      25.330  20.590  -8.555  0.00  0.00    -0.346 N 
HETATM   23  H   UNK N   1      25.975  20.432  -9.282  0.00  0.00     0.161 HD
HETATM   24  H   UNK N   1      24.972  19.800  -8.089  0.00  0.00     0.161 HD
ENDBRANCH  19  20
ENDBRANCH  18  19
ENDBRANCH   9  18
BRANCH   6  25
HETATM   25  O   UNK N   1      27.639  25.977  -7.554  0.00  0.00    -0.362 OA
HETATM   26  C   UNK N   1      26.585  26.700  -8.138  0.00  0.00     0.204 C 
ENDBRANCH   6  25
BRANCH  15  27
HETATM   27  N   UNK N   1      30.398  19.525  -6.779  0.00  0.00    -0.395 N 
HETATM   28  H   UNK N   1      30.766  18.925  -6.090  0.00  0.00     0.156 HD
HETATM   29  H   UNK N   1      30.430  19.251  -7.725  0.00  0.00     0.156 HD
ENDBRANCH  15  27
TORSDOF 5
ENDMDL
MODEL 9
REMARK VINA RESULT:      -5.9      2.230      4.991
REMARK  5 active torsions:
REMARK  status: ('A' for Active; 'I' for Inactive)
REMARK    1  A    between atoms: C_11  and  O_1 
REMARK    2  A    between atoms: O_2  and  C_17 
REMARK    3  A    between atoms: O_2  and  C_24 
REMARK    4  A    between atoms: N_8  and  C_22 
REMARK       I    between atoms: N_9  and  C_24 
REMARK    5  A    between atoms: C_14  and  C_17 
ROOT
HETATM    1  O   UNK N   1      32.149  17.881   8.038  0.00  0.00    -0.285 OA
HETATM    2  O   UNK N   1      27.232  16.618   6.536  0.00  0.00    -0.285 OA
HETATM    3  N   UNK N   1      31.595  17.591   3.279  0.00  0.00    -0.403 N 
HETATM    4  N   UNK N   1      31.744  16.223   5.639  0.00  0.00    -0.341 N 
HETATM    5  C   UNK N   1      31.731  16.125   3.289  0.00  0.00     0.158 A 
HETATM    6  C   UNK N   1      31.139  15.485   4.565  0.00  0.00     0.168 A 
HETATM    7  C   UNK N   1      32.856  16.980   3.732  0.00  0.00     0.122 A 
HETATM    8  C   UNK N   1      32.880  17.000   5.259  0.00  0.00     0.153 C 
HETATM    9  C   UNK N   1      29.623  15.697   4.839  0.00  0.00     0.107 A 
HETATM   10  C   UNK N   1      30.765  16.753   6.509  0.00  0.00     0.095 A 
HETATM   11  C   UNK N   1      29.546  16.454   6.123  0.00  0.00     0.036 A 
HETATM   12  C   UNK N   1      31.011  17.580   7.713  0.00  0.00     0.207 A 
HETATM   13  C   UNK N   1      28.363  16.896   6.900  0.00  0.00     0.207 A 
HETATM   14  C   UNK N   1      29.841  18.021   8.527  0.00  0.00     0.021 A 
HETATM   15  C   UNK N   1      28.582  17.688   8.143  0.00  0.00     0.087 A 
HETATM   16  C   UNK N   1      30.069  18.828   9.769  0.00  0.00     0.055 C 
HETATM   17  H   UNK N   1      31.034  18.424   3.093  0.00  0.00     0.154 HD
ENDROOT
BRANCH   9  18
HETATM   18  C   UNK N   1      28.464  15.119   4.038  0.00  0.00     0.195 C 
BRANCH  18  19
HETATM   19  O   UNK N   1      28.014  16.048   3.129  0.00  0.00    -0.303 OA
BRANCH  19  20
HETATM   20  C   UNK N   1      26.716  16.419   3.035  0.00  0.00     0.358 C 
HETATM   21  O   UNK N   1      25.958  15.851   2.259  0.00  0.00    -0.239 OA
HETATM   22  N   UNK N   1      26.252  17.419   3.805  0.00  0.00    -0.346 N 
HETATM   23  H   UNK N   1      26.801  17.984   4.397  0.00  0.00     0.161 HD
HETATM   24  H   UNK N   1      25.285  17.602   3.775  0.00  0.00     0.161 HD
ENDBRANCH  19  20
ENDBRANCH  18  19
ENDBRANCH   9  18
BRANCH   6  25
HETATM   25  O   UNK N   1      31.508  14.126   4.701  0.00  0.00    -0.362 OA
HETATM   26  C   UNK N   1      31.742  13.574   3.430  0.00  0.00     0.204 C 
ENDBRANCH   6  25
BRANCH  15  27
HETATM   27  N   UNK N   1      27.466  18.094   8.915  0.00  0.00    -0.395 N 
HETATM   28  H   UNK N   1      26.618  18.358   8.489  0.00  0.00     0.156 HD
HETATM   29  H   UNK N   1      27.540  18.113   9.898  0.00  0.00     0.156 HD
ENDBRANCH  15  27
TORSDOF 5
ENDMDL
