MODEL 1
REMARK VINA RESULT:      -8.1      0.000      0.000
REMARK  4 active torsions:
REMARK  status: ('A' for Active; 'I' for Inactive)
REMARK    1  A    between atoms: O_1  and  C_26 
REMARK    2  A    between atoms: C_15  and  C_17 
REMARK    3  A    between atoms: C_17  and  C_19 
REMARK    4  A    between atoms: C_25  and  C_26 
ROOT
HETATM    1  C   UNK N   1      32.018  16.115   4.987  0.00  0.00    -0.020 C 
HETATM    2  C   UNK N   1      32.969  17.204   7.638  0.00  0.00    -0.020 C 
HETATM    3  C   UNK N   1      33.435  15.925   5.521  0.00  0.00     0.015 C 
HETATM    4  C   UNK N   1      33.846  17.097   6.387  0.00  0.00     0.015 C 
HETATM    5  C   UNK N   1      31.056  16.564   6.072  0.00  0.00    -0.042 A 
HETATM    6  C   UNK N   1      31.490  17.029   7.331  0.00  0.00    -0.043 A 
HETATM    7  C   UNK N   1      32.007  17.119   3.844  0.00  0.00     0.020 C 
HETATM    8  C   UNK N   1      31.593  14.762   4.433  0.00  0.00     0.020 C 
HETATM    9  C   UNK N   1      33.227  18.591   8.202  0.00  0.00     0.020 C 
HETATM   10  C   UNK N   1      33.403  16.174   8.668  0.00  0.00     0.020 C 
HETATM   11  C   UNK N   1      29.695  16.488   5.819  0.00  0.00     0.021 A 
HETATM   12  C   UNK N   1      30.524  17.355   8.302  0.00  0.00     0.016 A 
HETATM   13  C   UNK N   1      28.710  16.808   6.754  0.00  0.00    -0.019 A 
HETATM   14  C   UNK N   1      29.150  17.253   8.035  0.00  0.00    -0.050 A 
HETATM   15  C   UNK N   1      28.210  17.622   9.133  0.00  0.00     0.049 C 
ENDROOT
BRANCH  13  16
HETATM   16  C   UNK N   1      27.259  16.672   6.322  0.00  0.00    -0.025 C 
HETATM   17  C   UNK N   1      26.519  15.647   6.758  0.00  0.00     0.025 C 
BRANCH  16  18
HETATM   18  C   UNK N   1      26.586  17.723   5.466  0.00  0.00    -0.026 A 
HETATM   19  C   UNK N   1      25.293  17.518   4.960  0.00  0.00     0.013 A 
HETATM   20  C   UNK N   1      24.678  18.439   4.125  0.00  0.00     0.019 A 
HETATM   21  C   UNK N   1      25.345  19.610   3.767  0.00  0.00     0.037 A 
HETATM   22  C   UNK N   1      26.624  19.859   4.284  0.00  0.00     0.019 A 
HETATM   23  C   UNK N   1      27.239  18.926   5.136  0.00  0.00     0.013 A 
BRANCH  21  24
HETATM   24  C   UNK N   1      24.699  20.549   2.830  0.00  0.00     0.176 C 
HETATM   25  O   UNK N   1      25.278  20.905   1.816  0.00  0.00    -0.646 OA
BRANCH  24  26
HETATM   26  O   UNK N   1      23.474  21.041   3.102  0.00  0.00    -0.773 OA
HETATM   27  H   UNK N   1      23.185  21.232   3.973  0.00  0.00     0.167 HD
ENDBRANCH  24  26
ENDBRANCH  21  24
ENDBRANCH  16  18
ENDBRANCH  13  16
TORSDOF 4
ENDMDL
MODEL 2
REMARK VINA RESULT:      -8.1      5.140      9.047
REMARK  4 active torsions:
REMARK  status: ('A' for Active; 'I' for Inactive)
REMARK    1  A    between atoms: O_1  and  C_26 
REMARK    2  A    between atoms: C_15  and  C_17 
REMARK    3  A    between atoms: C_17  and  C_19 
REMARK    4  A    between atoms: C_25  and  C_26 
ROOT
HETATM    1  C   UNK N   1      29.057  17.656   8.586  0.00  0.00    -0.020 C 
HETATM    2  C   UNK N   1      28.906  16.893   5.668  0.00  0.00    -0.020 C 
HETATM    3  C   UNK N   1      27.793  17.132   7.913  0.00  0.00     0.015 C 
HETATM    4  C   UNK N   1      27.756  17.530   6.452  0.00  0.00     0.015 C 
HETATM    5  C   UNK N   1      30.298  17.396   7.749  0.00  0.00    -0.042 A 
HETATM    6  C   UNK N   1      30.236  16.992   6.400  0.00  0.00    -0.043 A 
HETATM    7  C   UNK N   1      28.934  19.146   8.870  0.00  0.00     0.020 C 
HETATM    8  C   UNK N   1      29.157  16.927   9.918  0.00  0.00     0.020 C 
HETATM    9  C   UNK N   1      28.975  17.649   4.352  0.00  0.00     0.020 C 
HETATM   10  C   UNK N   1      28.592  15.436   5.373  0.00  0.00     0.020 C 
HETATM   11  C   UNK N   1      31.539  17.536   8.350  0.00  0.00     0.021 A 
HETATM   12  C   UNK N   1      31.437  16.701   5.724  0.00  0.00     0.016 A 
HETATM   13  C   UNK N   1      32.749  17.264   7.711  0.00  0.00    -0.019 A 
HETATM   14  C   UNK N   1      32.684  16.831   6.355  0.00  0.00    -0.050 A 
HETATM   15  C   UNK N   1      33.895  16.498   5.550  0.00  0.00     0.049 C 
ENDROOT
BRANCH  13  16
HETATM   16  C   UNK N   1      34.027  17.469   8.508  0.00  0.00    -0.025 C 
HETATM   17  C   UNK N   1      34.776  18.561   8.313  0.00  0.00     0.025 C 
BRANCH  16  18
HETATM   18  C   UNK N   1      34.446  16.504   9.594  0.00  0.00    -0.026 A 
HETATM   19  C   UNK N   1      33.874  15.224   9.680  0.00  0.00     0.013 A 
HETATM   20  C   UNK N   1      34.197  14.344  10.702  0.00  0.00     0.019 A 
HETATM   21  C   UNK N   1      35.115  14.718  11.681  0.00  0.00     0.037 A 
HETATM   22  C   UNK N   1      35.729  15.977  11.603  0.00  0.00     0.019 A 
HETATM   23  C   UNK N   1      35.404  16.862  10.562  0.00  0.00     0.013 A 
BRANCH  21  24
HETATM   24  C   UNK N   1      35.401  13.792  12.793  0.00  0.00     0.176 C 
HETATM   25  O   UNK N   1      36.408  13.931  13.469  0.00  0.00    -0.646 OA
BRANCH  24  26
HETATM   26  O   UNK N   1      34.563  12.769  13.054  0.00  0.00    -0.773 OA
HETATM   27  H   UNK N   1      34.573  12.298  13.864  0.00  0.00     0.167 HD
ENDBRANCH  24  26
ENDBRANCH  21  24
ENDBRANCH  16  18
ENDBRANCH  13  16
TORSDOF 4
ENDMDL
MODEL 3
REMARK VINA RESULT:      -8.1      4.119      7.918
REMARK  4 active torsions:
REMARK  status: ('A' for Active; 'I' for Inactive)
REMARK    1  A    between atoms: O_1  and  C_26 
REMARK    2  A    between atoms: C_15  and  C_17 
REMARK    3  A    between atoms: C_17  and  C_19 
REMARK    4  A    between atoms: C_25  and  C_26 
ROOT
HETATM    1  C   UNK N   1      26.954  19.389   4.801  0.00  0.00    -0.020 C 
HETATM    2  C   UNK N   1      25.608  16.708   4.452  0.00  0.00    -0.020 C 
HETATM    3  C   UNK N   1      25.475  19.141   5.083  0.00  0.00     0.015 C 
HETATM    4  C   UNK N   1      24.929  18.054   4.182  0.00  0.00     0.015 C 
HETATM    5  C   UNK N   1      27.739  18.093   4.699  0.00  0.00    -0.042 A 
HETATM    6  C   UNK N   1      27.118  16.833   4.585  0.00  0.00    -0.043 A 
HETATM    7  C   UNK N   1      27.127  20.195   3.522  0.00  0.00     0.020 C 
HETATM    8  C   UNK N   1      27.468  20.228   5.963  0.00  0.00     0.020 C 
HETATM    9  C   UNK N   1      25.257  15.826   3.267  0.00  0.00     0.020 C 
HETATM   10  C   UNK N   1      25.034  16.079   5.711  0.00  0.00     0.020 C 
HETATM   11  C   UNK N   1      29.123  18.156   4.748  0.00  0.00     0.021 A 
HETATM   12  C   UNK N   1      27.925  15.679   4.571  0.00  0.00     0.016 A 
HETATM   13  C   UNK N   1      29.955  17.036   4.730  0.00  0.00    -0.019 A 
HETATM   14  C   UNK N   1      29.325  15.761   4.641  0.00  0.00    -0.050 A 
HETATM   15  C   UNK N   1      30.086  14.479   4.619  0.00  0.00     0.049 C 
ENDROOT
BRANCH  13  16
HETATM   16  C   UNK N   1      31.455  17.273   4.790  0.00  0.00    -0.025 C 
HETATM   17  C   UNK N   1      32.131  17.596   3.681  0.00  0.00     0.025 C 
BRANCH  16  18
HETATM   18  C   UNK N   1      32.211  17.238   6.100  0.00  0.00    -0.026 A 
HETATM   19  C   UNK N   1      33.589  17.502   6.142  0.00  0.00     0.013 A 
HETATM   20  C   UNK N   1      34.316  17.418   7.321  0.00  0.00     0.019 A 
HETATM   21  C   UNK N   1      33.679  17.064   8.509  0.00  0.00     0.037 A 
HETATM   22  C   UNK N   1      32.296  16.827   8.505  0.00  0.00     0.019 A 
HETATM   23  C   UNK N   1      31.564  16.921   7.310  0.00  0.00     0.013 A 
BRANCH  21  24
HETATM   24  C   UNK N   1      34.478  16.920   9.740  0.00  0.00     0.176 C 
HETATM   25  O   UNK N   1      35.441  17.643   9.938  0.00  0.00    -0.646 OA
BRANCH  24  26
HETATM   26  O   UNK N   1      34.163  15.971  10.645  0.00  0.00    -0.773 OA
HETATM   27  H   UNK N   1      33.387  15.449  10.584  0.00  0.00     0.167 HD
ENDBRANCH  24  26
ENDBRANCH  21  24
ENDBRANCH  16  18
ENDBRANCH  13  16
TORSDOF 4
ENDMDL
MODEL 4
REMARK VINA RESULT:      -7.8      4.938      8.439
REMARK  4 active torsions:
REMARK  status: ('A' for Active; 'I' for Inactive)
REMARK    1  A    between atoms: O_1  and  C_26 
REMARK    2  A    between atoms: C_15  and  C_17 
REMARK    3  A    between atoms: C_17  and  C_19 
REMARK    4  A    between atoms: C_25  and  C_26 
ROOT
HETATM    1  C   UNK N   1      31.378  16.227   3.807  0.00  0.00    -0.020 C 
HETATM    2  C   UNK N   1      28.608  16.696   4.915  0.00  0.00    -0.020 C 
HETATM    3  C   UNK N   1      30.134  16.379   2.938  0.00  0.00     0.015 C 
HETATM    4  C   UNK N   1      28.906  15.868   3.662  0.00  0.00     0.015 C 
HETATM    5  C   UNK N   1      31.143  16.708   5.229  0.00  0.00    -0.042 A 
HETATM    6  C   UNK N   1      29.856  16.975   5.739  0.00  0.00    -0.043 A 
HETATM    7  C   UNK N   1      31.844  14.779   3.827  0.00  0.00     0.020 C 
HETATM    8  C   UNK N   1      32.461  17.064   3.141  0.00  0.00     0.020 C 
HETATM    9  C   UNK N   1      27.619  15.875   5.724  0.00  0.00     0.020 C 
HETATM   10  C   UNK N   1      27.946  18.007   4.528  0.00  0.00     0.020 C 
HETATM   11  C   UNK N   1      32.244  16.916   6.045  0.00  0.00     0.021 A 
HETATM   12  C   UNK N   1      29.738  17.489   7.045  0.00  0.00     0.016 A 
HETATM   13  C   UNK N   1      32.165  17.417   7.345  0.00  0.00    -0.019 A 
HETATM   14  C   UNK N   1      30.866  17.712   7.850  0.00  0.00    -0.050 A 
HETATM   15  C   UNK N   1      30.632  18.258   9.218  0.00  0.00     0.049 C 
ENDROOT
BRANCH  13  16
HETATM   16  C   UNK N   1      33.466  17.587   8.112  0.00  0.00    -0.025 C 
HETATM   17  C   UNK N   1      34.246  18.651   7.890  0.00  0.00     0.025 C 
BRANCH  16  18
HETATM   18  C   UNK N   1      33.876  16.620   9.201  0.00  0.00    -0.026 A 
HETATM   19  C   UNK N   1      34.918  16.934  10.088  0.00  0.00     0.013 A 
HETATM   20  C   UNK N   1      35.352  16.040  11.055  0.00  0.00     0.019 A 
HETATM   21  C   UNK N   1      34.749  14.789  11.170  0.00  0.00     0.037 A 
HETATM   22  C   UNK N   1      33.682  14.459  10.321  0.00  0.00     0.019 A 
HETATM   23  C   UNK N   1      33.242  15.371   9.348  0.00  0.00     0.013 A 
BRANCH  21  24
HETATM   24  C   UNK N   1      35.263  13.829  12.164  0.00  0.00     0.176 C 
HETATM   25  O   UNK N   1      36.464  13.709  12.342  0.00  0.00    -0.646 OA
BRANCH  24  26
HETATM   26  O   UNK N   1      34.408  13.059  12.867  0.00  0.00    -0.773 OA
HETATM   27  H   UNK N   1      33.514  13.299  13.017  0.00  0.00     0.167 HD
ENDBRANCH  24  26
ENDBRANCH  21  24
ENDBRANCH  16  18
ENDBRANCH  13  16
TORSDOF 4
ENDMDL
MODEL 5
REMARK VINA RESULT:      -7.7     10.318     14.330
REMARK  4 active torsions:
REMARK  status: ('A' for Active; 'I' for Inactive)
REMARK    1  A    between atoms: O_1  and  C_26 
REMARK    2  A    between atoms: C_15  and  C_17 
REMARK    3  A    between atoms: C_17  and  C_19 
REMARK    4  A    between atoms: C_25  and  C_26 
ROOT
HETATM    1  C   UNK N   1      26.194  24.524  -6.289  0.00  0.00    -0.020 C 
HETATM    2  C   UNK N   1      27.529  27.196  -6.734  0.00  0.00    -0.020 C 
HETATM    3  C   UNK N   1      25.895  25.432  -7.479  0.00  0.00     0.015 C 
HETATM    4  C   UNK N   1      26.076  26.888  -7.104  0.00  0.00     0.015 C 
HETATM    5  C   UNK N   1      27.477  24.919  -5.579  0.00  0.00    -0.042 A 
HETATM    6  C   UNK N   1      28.133  26.144  -5.816  0.00  0.00    -0.043 A 
HETATM    7  C   UNK N   1      25.036  24.538  -5.302  0.00  0.00     0.020 C 
HETATM    8  C   UNK N   1      26.316  23.117  -6.856  0.00  0.00     0.020 C 
HETATM    9  C   UNK N   1      27.498  28.545  -6.035  0.00  0.00     0.020 C 
HETATM   10  C   UNK N   1      28.371  27.322  -7.992  0.00  0.00     0.020 C 
HETATM   11  C   UNK N   1      28.035  24.022  -4.681  0.00  0.00     0.021 A 
HETATM   12  C   UNK N   1      29.358  26.393  -5.167  0.00  0.00     0.016 A 
HETATM   13  C   UNK N   1      29.242  24.238  -4.015  0.00  0.00    -0.019 A 
HETATM   14  C   UNK N   1      29.918  25.465  -4.276  0.00  0.00    -0.050 A 
HETATM   15  C   UNK N   1      31.219  25.826  -3.641  0.00  0.00     0.049 C 
ENDROOT
BRANCH  13  16
HETATM   16  C   UNK N   1      29.721  23.156  -3.060  0.00  0.00    -0.025 C 
HETATM   17  C   UNK N   1      29.168  23.035  -1.848  0.00  0.00     0.025 C 
BRANCH  16  18
HETATM   18  C   UNK N   1      30.763  22.140  -3.472  0.00  0.00    -0.026 A 
HETATM   19  C   UNK N   1      30.517  21.244  -4.526  0.00  0.00     0.013 A 
HETATM   20  C   UNK N   1      31.431  20.265  -4.883  0.00  0.00     0.019 A 
HETATM   21  C   UNK N   1      32.636  20.149  -4.192  0.00  0.00     0.037 A 
HETATM   22  C   UNK N   1      32.925  21.051  -3.158  0.00  0.00     0.019 A 
HETATM   23  C   UNK N   1      31.999  22.046  -2.804  0.00  0.00     0.013 A 
BRANCH  21  24
HETATM   24  C   UNK N   1      33.569  19.063  -4.547  0.00  0.00     0.176 C 
HETATM   25  O   UNK N   1      34.132  19.063  -5.629  0.00  0.00    -0.646 OA
BRANCH  24  26
HETATM   26  O   UNK N   1      33.787  18.050  -3.685  0.00  0.00    -0.773 OA
HETATM   27  H   UNK N   1      33.118  17.441  -3.437  0.00  0.00     0.167 HD
ENDBRANCH  24  26
ENDBRANCH  21  24
ENDBRANCH  16  18
ENDBRANCH  13  16
TORSDOF 4
ENDMDL
MODEL 6
REMARK VINA RESULT:      -7.6      4.745      7.518
REMARK  4 active torsions:
REMARK  status: ('A' for Active; 'I' for Inactive)
REMARK    1  A    between atoms: O_1  and  C_26 
REMARK    2  A    between atoms: C_15  and  C_17 
REMARK    3  A    between atoms: C_17  and  C_19 
REMARK    4  A    between atoms: C_25  and  C_26 
ROOT
HETATM    1  C   UNK N   1      27.704  17.257   4.763  0.00  0.00    -0.020 C 
HETATM    2  C   UNK N   1      26.107  19.788   4.362  0.00  0.00    -0.020 C 
HETATM    3  C   UNK N   1      28.317  18.653   4.765  0.00  0.00     0.015 C 
HETATM    4  C   UNK N   1      27.539  19.585   3.860  0.00  0.00     0.015 C 
HETATM    5  C   UNK N   1      26.193  17.297   4.919  0.00  0.00    -0.042 A 
HETATM    6  C   UNK N   1      25.445  18.484   4.781  0.00  0.00    -0.043 A 
HETATM    7  C   UNK N   1      28.067  16.514   3.486  0.00  0.00     0.020 C 
HETATM    8  C   UNK N   1      28.335  16.519   5.936  0.00  0.00     0.020 C 
HETATM    9  C   UNK N   1      25.349  20.411   3.202  0.00  0.00     0.020 C 
HETATM   10  C   UNK N   1      26.097  20.764   5.526  0.00  0.00     0.020 C 
HETATM   11  C   UNK N   1      25.532  16.121   5.237  0.00  0.00     0.021 A 
HETATM   12  C   UNK N   1      24.057  18.441   5.017  0.00  0.00     0.016 A 
HETATM   13  C   UNK N   1      24.159  16.039   5.471  0.00  0.00    -0.019 A 
HETATM   14  C   UNK N   1      23.407  17.245   5.357  0.00  0.00    -0.050 A 
HETATM   15  C   UNK N   1      21.934  17.308   5.585  0.00  0.00     0.049 C 
ENDROOT
BRANCH  13  16
HETATM   16  C   UNK N   1      23.583  14.673   5.808  0.00  0.00    -0.025 C 
HETATM   17  C   UNK N   1      23.088  13.893   4.841  0.00  0.00     0.025 C 
BRANCH  16  18
HETATM   18  C   UNK N   1      23.629  14.121   7.216  0.00  0.00    -0.026 A 
HETATM   19  C   UNK N   1      24.840  13.691   7.781  0.00  0.00     0.013 A 
HETATM   20  C   UNK N   1      24.899  13.126   9.046  0.00  0.00     0.019 A 
HETATM   21  C   UNK N   1      23.734  12.971   9.796  0.00  0.00     0.037 A 
HETATM   22  C   UNK N   1      22.513  13.423   9.272  0.00  0.00     0.019 A 
HETATM   23  C   UNK N   1      22.461  14.001   7.993  0.00  0.00     0.013 A 
BRANCH  21  24
HETATM   24  C   UNK N   1      23.807  12.314  11.114  0.00  0.00     0.176 C 
HETATM   25  O   UNK N   1      22.806  11.835  11.621  0.00  0.00    -0.646 OA
BRANCH  24  26
HETATM   26  O   UNK N   1      24.979  12.259  11.779  0.00  0.00    -0.773 OA
HETATM   27  H   UNK N   1      25.044  11.978  12.670  0.00  0.00     0.167 HD
ENDBRANCH  24  26
ENDBRANCH  21  24
ENDBRANCH  16  18
ENDBRANCH  13  16
TORSDOF 4
ENDMDL
MODEL 7
REMARK VINA RESULT:      -7.3      9.754     13.476
REMARK  4 active torsions:
REMARK  status: ('A' for Active; 'I' for Inactive)
REMARK    1  A    between atoms: O_1  and  C_26 
REMARK    2  A    between atoms: C_15  and  C_17 
REMARK    3  A    between atoms: C_17  and  C_19 
REMARK    4  A    between atoms: C_25  and  C_26 
ROOT
HETATM    1  C   UNK N   1      36.343   8.884  15.944  0.00  0.00    -0.020 C 
HETATM    2  C   UNK N   1      35.271   9.208  18.749  0.00  0.00    -0.020 C 
HETATM    3  C   UNK N   1      35.686   7.757  16.734  0.00  0.00     0.015 C 
HETATM    4  C   UNK N   1      35.926   7.929  18.220  0.00  0.00     0.015 C 
HETATM    5  C   UNK N   1      36.061  10.247  16.554  0.00  0.00    -0.042 A 
HETATM    6  C   UNK N   1      35.516  10.406  17.844  0.00  0.00    -0.043 A 
HETATM    7  C   UNK N   1      37.847   8.666  15.850  0.00  0.00     0.020 C 
HETATM    8  C   UNK N   1      35.764   8.806  14.539  0.00  0.00     0.020 C 
HETATM    9  C   UNK N   1      35.887   9.449  20.116  0.00  0.00     0.020 C 
HETATM   10  C   UNK N   1      33.777   8.995  18.922  0.00  0.00     0.020 C 
HETATM   11  C   UNK N   1      36.329  11.376  15.796  0.00  0.00     0.021 A 
HETATM   12  C   UNK N   1      35.218  11.705  18.298  0.00  0.00     0.016 A 
HETATM   13  C   UNK N   1      36.054  12.678  16.215  0.00  0.00    -0.019 A 
HETATM   14  C   UNK N   1      35.478  12.836  17.509  0.00  0.00    -0.050 A 
HETATM   15  C   UNK N   1      35.126  14.167  18.083  0.00  0.00     0.049 C 
ENDROOT
BRANCH  13  16
HETATM   16  C   UNK N   1      36.408  13.812  15.266  0.00  0.00    -0.025 C 
HETATM   17  C   UNK N   1      37.230  14.791  15.661  0.00  0.00     0.025 C 
BRANCH  16  18
HETATM   18  C   UNK N   1      35.921  13.827  13.834  0.00  0.00    -0.026 A 
HETATM   19  C   UNK N   1      36.077  14.970  13.033  0.00  0.00     0.013 A 
HETATM   20  C   UNK N   1      35.585  15.029  11.737  0.00  0.00     0.019 A 
HETATM   21  C   UNK N   1      34.915  13.934  11.194  0.00  0.00     0.037 A 
HETATM   22  C   UNK N   1      34.774  12.766  11.958  0.00  0.00     0.019 A 
HETATM   23  C   UNK N   1      35.280  12.708  13.266  0.00  0.00     0.013 A 
BRANCH  21  24
HETATM   24  C   UNK N   1      34.347  14.037   9.837  0.00  0.00     0.176 C 
HETATM   25  O   UNK N   1      35.066  14.296   8.885  0.00  0.00    -0.646 OA
BRANCH  24  26
HETATM   26  O   UNK N   1      33.023  13.870   9.643  0.00  0.00    -0.773 OA
HETATM   27  H   UNK N   1      32.650  13.060   9.355  0.00  0.00     0.167 HD
ENDBRANCH  24  26
ENDBRANCH  21  24
ENDBRANCH  16  18
ENDBRANCH  13  16
TORSDOF 4
ENDMDL
MODEL 8
REMARK VINA RESULT:      -7.3      1.506      3.489
REMARK  4 active torsions:
REMARK  status: ('A' for Active; 'I' for Inactive)
REMARK    1  A    between atoms: O_1  and  C_26 
REMARK    2  A    between atoms: C_15  and  C_17 
REMARK    3  A    between atoms: C_17  and  C_19 
REMARK    4  A    between atoms: C_25  and  C_26 
ROOT
HETATM    1  C   UNK N   1      29.311  17.919   8.550  0.00  0.00    -0.020 C 
HETATM    2  C   UNK N   1      31.389  16.441   6.932  0.00  0.00    -0.020 C 
HETATM    3  C   UNK N   1      30.794  18.275   8.550  0.00  0.00     0.015 C 
HETATM    4  C   UNK N   1      31.644  17.044   8.316  0.00  0.00     0.015 C 
HETATM    5  C   UNK N   1      28.942  17.015   7.386  0.00  0.00    -0.042 A 
HETATM    6  C   UNK N   1      29.908  16.359   6.596  0.00  0.00    -0.043 A 
HETATM    7  C   UNK N   1      28.920  17.253   9.861  0.00  0.00     0.020 C 
HETATM    8  C   UNK N   1      28.562  19.240   8.448  0.00  0.00     0.020 C 
HETATM    9  C   UNK N   1      31.995  15.048   6.973  0.00  0.00     0.020 C 
HETATM   10  C   UNK N   1      32.111  17.252   5.869  0.00  0.00     0.020 C 
HETATM   11  C   UNK N   1      27.600  16.853   7.078  0.00  0.00     0.021 A 
HETATM   12  C   UNK N   1      29.476  15.600   5.491  0.00  0.00     0.016 A 
HETATM   13  C   UNK N   1      27.136  16.103   5.997  0.00  0.00    -0.019 A 
HETATM   14  C   UNK N   1      28.114  15.462   5.182  0.00  0.00    -0.050 A 
HETATM   15  C   UNK N   1      27.763  14.635   3.991  0.00  0.00     0.049 C 
ENDROOT
BRANCH  13  16
HETATM   16  C   UNK N   1      25.632  16.021   5.792  0.00  0.00    -0.025 C 
HETATM   17  C   UNK N   1      24.926  15.037   6.360  0.00  0.00     0.025 C 
BRANCH  16  18
HETATM   18  C   UNK N   1      24.878  17.084   5.023  0.00  0.00    -0.026 A 
HETATM   19  C   UNK N   1      25.556  17.975   4.175  0.00  0.00     0.013 A 
HETATM   20  C   UNK N   1      24.896  18.995   3.506  0.00  0.00     0.019 A 
HETATM   21  C   UNK N   1      23.521  19.158   3.664  0.00  0.00     0.037 A 
HETATM   22  C   UNK N   1      22.811  18.262   4.477  0.00  0.00     0.019 A 
HETATM   23  C   UNK N   1      23.483  17.226   5.146  0.00  0.00     0.013 A 
BRANCH  21  24
HETATM   24  C   UNK N   1      22.847  20.285   2.992  0.00  0.00     0.176 C 
HETATM   25  O   UNK N   1      23.392  21.373   2.916  0.00  0.00    -0.646 OA
BRANCH  24  26
HETATM   26  O   UNK N   1      21.610  20.124   2.479  0.00  0.00    -0.773 OA
HETATM   27  H   UNK N   1      21.099  20.839   2.153  0.00  0.00     0.167 HD
ENDBRANCH  24  26
ENDBRANCH  21  24
ENDBRANCH  16  18
ENDBRANCH  13  16
TORSDOF 4
ENDMDL
MODEL 9
REMARK VINA RESULT:      -7.1      4.767      7.458
REMARK  4 active torsions:
REMARK  status: ('A' for Active; 'I' for Inactive)
REMARK    1  A    between atoms: O_1  and  C_26 
REMARK    2  A    between atoms: C_15  and  C_17 
REMARK    3  A    between atoms: C_17  and  C_19 
REMARK    4  A    between atoms: C_25  and  C_26 
ROOT
HETATM    1  C   UNK N   1      27.066  17.032   5.186  0.00  0.00    -0.020 C 
HETATM    2  C   UNK N   1      26.480  19.897   4.434  0.00  0.00    -0.020 C 
HETATM    3  C   UNK N   1      28.019  18.191   5.460  0.00  0.00     0.015 C 
HETATM    4  C   UNK N   1      27.875  19.268   4.406  0.00  0.00     0.015 C 
HETATM    5  C   UNK N   1      25.665  17.513   4.853  0.00  0.00    -0.042 A 
HETATM    6  C   UNK N   1      25.374  18.859   4.548  0.00  0.00    -0.043 A 
HETATM    7  C   UNK N   1      27.592  16.162   4.053  0.00  0.00     0.020 C 
HETATM    8  C   UNK N   1      27.047  16.194   6.457  0.00  0.00     0.020 C 
HETATM    9  C   UNK N   1      26.347  20.662   3.128  0.00  0.00     0.020 C 
HETATM   10  C   UNK N   1      26.376  20.883   5.585  0.00  0.00     0.020 C 
HETATM   11  C   UNK N   1      24.628  16.592   4.878  0.00  0.00     0.021 A 
HETATM   12  C   UNK N   1      24.033  19.228   4.325  0.00  0.00     0.016 A 
HETATM   13  C   UNK N   1      23.291  16.920   4.655  0.00  0.00    -0.019 A 
HETATM   14  C   UNK N   1      22.994  18.285   4.373  0.00  0.00    -0.050 A 
HETATM   15  C   UNK N   1      21.610  18.780   4.121  0.00  0.00     0.049 C 
ENDROOT
BRANCH  13  16
HETATM   16  C   UNK N   1      22.271  15.794   4.716  0.00  0.00    -0.025 C 
HETATM   17  C   UNK N   1      21.771  15.276   3.588  0.00  0.00     0.025 C 
BRANCH  16  18
HETATM   18  C   UNK N   1      21.859  15.170   6.030  0.00  0.00    -0.026 A 
HETATM   19  C   UNK N   1      21.377  15.964   7.084  0.00  0.00     0.013 A 
HETATM   20  C   UNK N   1      21.049  15.423   8.318  0.00  0.00     0.019 A 
HETATM   21  C   UNK N   1      21.192  14.054   8.541  0.00  0.00     0.037 A 
HETATM   22  C   UNK N   1      21.638  13.230   7.496  0.00  0.00     0.019 A 
HETATM   23  C   UNK N   1      21.961  13.782   6.246  0.00  0.00     0.013 A 
BRANCH  21  24
HETATM   24  C   UNK N   1      20.895  13.506   9.877  0.00  0.00     0.176 C 
HETATM   25  O   UNK N   1      19.750  13.488  10.296  0.00  0.00    -0.646 OA
BRANCH  24  26
HETATM   26  O   UNK N   1      21.894  13.044  10.656  0.00  0.00    -0.773 OA
HETATM   27  H   UNK N   1      22.549  12.451  10.343  0.00  0.00     0.167 HD
ENDBRANCH  24  26
ENDBRANCH  21  24
ENDBRANCH  16  18
ENDBRANCH  13  16
TORSDOF 4
ENDMDL
