MODEL 1
REMARK VINA RESULT:      -7.2      0.000      0.000
REMARK  4 active torsions:
REMARK  status: ('A' for Active; 'I' for Inactive)
REMARK    1  A    between atoms: S_2  and  N_8 
REMARK    2  A    between atoms: S_2  and  C_17 
REMARK    3  A    between atoms: O_3  and  C_9 
REMARK    4  A    between atoms: C_9  and  C_11 
ROOT
HETATM    1  O   UNK N   1      35.288  14.245  18.676  0.00  0.00    -0.268 OA
HETATM    2  N   UNK N   1      34.966  13.753  16.498  0.00  0.00    -0.317 N 
HETATM    3  C   UNK N   1      34.924  12.566  15.643  0.00  0.00     0.193 A 
HETATM    4  C   UNK N   1      35.163  11.464  16.667  0.00  0.00     0.017 A 
HETATM    5  C   UNK N   1      35.296  12.010  17.921  0.00  0.00     0.043 A 
HETATM    6  C   UNK N   1      35.205  13.429  17.781  0.00  0.00     0.255 A 
HETATM    7  C   UNK N   1      35.145  10.077  16.499  0.00  0.00     0.013 A 
HETATM    8  C   UNK N   1      35.419  11.234  19.072  0.00  0.00     0.018 A 
HETATM    9  C   UNK N   1      35.268   9.263  17.643  0.00  0.00     0.001 A 
HETATM   10  C   UNK N   1      35.401   9.840  18.924  0.00  0.00     0.001 A 
HETATM   11  H   UNK N   1      34.836  14.674  16.174  0.00  0.00     0.166 HD
ENDROOT
BRANCH   3  12
HETATM   12  O   UNK N   1      33.636  12.425  15.126  0.00  0.00    -0.363 OA
HETATM   13  H   UNK N   1      32.682  12.302  15.255  0.00  0.00     0.213 HD
ENDBRANCH   3  12
BRANCH   3  14
HETATM   14  C   UNK N   1      35.883  12.733  14.475  0.00  0.00     0.003 A 
HETATM   15  C   UNK N   1      35.548  13.648  13.478  0.00  0.00     0.039 A 
HETATM   16  C   UNK N   1      36.223  13.705  12.267  0.00  0.00     0.101 A 
HETATM   17  C   UNK N   1      37.276  12.807  12.020  0.00  0.00     0.057 A 
HETATM   18 Cl   UNK N   1      38.104  12.770  10.470  0.00  0.00    -0.083 Cl
HETATM   19  C   UNK N   1      37.658  11.903  13.029  0.00  0.00     0.026 A 
HETATM   20  C   UNK N   1      36.963  11.861  14.253  0.00  0.00     0.014 A 
BRANCH  16  21
HETATM   21  S   UNK N   1      35.637  14.938  11.106  0.00  0.00     0.258 S 
HETATM   22  O   UNK N   1      34.245  14.607  11.654  0.00  0.00    -0.201 OA
HETATM   23  O   UNK N   1      35.206  14.408   9.729  0.00  0.00    -0.201 OA
BRANCH  21  24
HETATM   24  N   UNK N   1      35.194  16.638  11.245  0.00  0.00    -0.324 N 
HETATM   25  H   UNK N   1      34.282  17.011  10.977  0.00  0.00     0.169 HD
HETATM   26  H   UNK N   1      35.888  17.287  11.613  0.00  0.00     0.169 HD
ENDBRANCH  21  24
ENDBRANCH  16  21
ENDBRANCH   3  14
TORSDOF 4
ENDMDL
MODEL 2
REMARK VINA RESULT:      -7.1      6.828      9.171
REMARK  4 active torsions:
REMARK  status: ('A' for Active; 'I' for Inactive)
REMARK    1  A    between atoms: S_2  and  N_8 
REMARK    2  A    between atoms: S_2  and  C_17 
REMARK    3  A    between atoms: O_3  and  C_9 
REMARK    4  A    between atoms: C_9  and  C_11 
ROOT
HETATM    1  O   UNK N   1      35.688  17.343  10.470  0.00  0.00    -0.268 OA
HETATM    2  N   UNK N   1      33.778  17.480   9.278  0.00  0.00    -0.317 N 
HETATM    3  C   UNK N   1      32.837  16.573   8.619  0.00  0.00     0.193 A 
HETATM    4  C   UNK N   1      33.462  15.222   8.944  0.00  0.00     0.017 A 
HETATM    5  C   UNK N   1      34.593  15.399   9.705  0.00  0.00     0.043 A 
HETATM    6  C   UNK N   1      34.783  16.807   9.865  0.00  0.00     0.255 A 
HETATM    7  C   UNK N   1      32.986  13.936   8.677  0.00  0.00     0.013 A 
HETATM    8  C   UNK N   1      35.316  14.336  10.240  0.00  0.00     0.018 A 
HETATM    9  C   UNK N   1      33.694  12.838   9.203  0.00  0.00     0.001 A 
HETATM   10  C   UNK N   1      34.853  13.037   9.983  0.00  0.00     0.001 A 
HETATM   11  H   UNK N   1      33.687  18.461   9.289  0.00  0.00     0.166 HD
ENDROOT
BRANCH   3  12
HETATM   12  O   UNK N   1      31.600  16.660   9.259  0.00  0.00    -0.363 OA
HETATM   13  H   UNK N   1      30.724  16.294   9.458  0.00  0.00     0.213 HD
ENDBRANCH   3  12
BRANCH   3  14
HETATM   14  C   UNK N   1      32.645  16.987   7.169  0.00  0.00     0.003 A 
HETATM   15  C   UNK N   1      31.359  16.929   6.636  0.00  0.00     0.039 A 
HETATM   16  C   UNK N   1      31.113  17.053   5.276  0.00  0.00     0.101 A 
HETATM   17  C   UNK N   1      32.192  17.234   4.393  0.00  0.00     0.057 A 
HETATM   18 Cl   UNK N   1      31.950  17.303   2.653  0.00  0.00    -0.083 Cl
HETATM   19  C   UNK N   1      33.495  17.338   4.914  0.00  0.00     0.026 A 
HETATM   20  C   UNK N   1      33.725  17.211   6.298  0.00  0.00     0.014 A 
BRANCH  16  21
HETATM   21  S   UNK N   1      29.395  16.935   4.780  0.00  0.00     0.258 S 
HETATM   22  O   UNK N   1      29.138  17.963   5.887  0.00  0.00    -0.201 OA
HETATM   23  O   UNK N   1      28.545  15.913   5.550  0.00  0.00    -0.201 OA
BRANCH  21  24
HETATM   24  N   UNK N   1      28.348  17.910   3.750  0.00  0.00    -0.324 N 
HETATM   25  H   UNK N   1      27.935  18.798   4.038  0.00  0.00     0.169 HD
HETATM   26  H   UNK N   1      28.143  17.568   2.812  0.00  0.00     0.169 HD
ENDBRANCH  21  24
ENDBRANCH  16  21
ENDBRANCH   3  14
TORSDOF 4
ENDMDL
MODEL 3
REMARK VINA RESULT:      -7.0      5.621      9.185
REMARK  4 active torsions:
REMARK  status: ('A' for Active; 'I' for Inactive)
REMARK    1  A    between atoms: S_2  and  N_8 
REMARK    2  A    between atoms: S_2  and  C_17 
REMARK    3  A    between atoms: O_3  and  C_9 
REMARK    4  A    between atoms: C_9  and  C_11 
ROOT
HETATM    1  O   UNK N   1      29.426  17.211   8.079  0.00  0.00    -0.268 OA
HETATM    2  N   UNK N   1      31.357  16.678   9.117  0.00  0.00    -0.317 N 
HETATM    3  C   UNK N   1      32.759  16.455   8.763  0.00  0.00     0.193 A 
HETATM    4  C   UNK N   1      32.722  16.711   7.261  0.00  0.00     0.017 A 
HETATM    5  C   UNK N   1      31.448  17.050   6.874  0.00  0.00     0.043 A 
HETATM    6  C   UNK N   1      30.618  16.986   8.036  0.00  0.00     0.255 A 
HETATM    7  C   UNK N   1      33.773  16.751   6.341  0.00  0.00     0.013 A 
HETATM    8  C   UNK N   1      31.134  17.442   5.575  0.00  0.00     0.018 A 
HETATM    9  C   UNK N   1      33.489  17.143   5.018  0.00  0.00     0.001 A 
HETATM   10  C   UNK N   1      32.175  17.489   4.637  0.00  0.00     0.001 A 
HETATM   11  H   UNK N   1      30.999  16.610  10.032  0.00  0.00     0.166 HD
ENDROOT
BRANCH   3  12
HETATM   12  O   UNK N   1      33.541  17.441   9.366  0.00  0.00    -0.363 OA
HETATM   13  H   UNK N   1      33.623  18.237   9.914  0.00  0.00     0.213 HD
ENDBRANCH   3  12
BRANCH   3  14
HETATM   14  C   UNK N   1      33.219  15.104   9.287  0.00  0.00     0.003 A 
HETATM   15  C   UNK N   1      34.174  15.086  10.302  0.00  0.00     0.039 A 
HETATM   16  C   UNK N   1      34.831  13.925  10.682  0.00  0.00     0.101 A 
HETATM   17  C   UNK N   1      34.538  12.718  10.022  0.00  0.00     0.057 A 
HETATM   18 Cl   UNK N   1      35.405  11.236  10.396  0.00  0.00    -0.083 Cl
HETATM   19  C   UNK N   1      33.547  12.706   9.023  0.00  0.00     0.026 A 
HETATM   20  C   UNK N   1      32.890  13.895   8.651  0.00  0.00     0.014 A 
BRANCH  16  21
HETATM   21  S   UNK N   1      36.037  14.105  11.996  0.00  0.00     0.258 S 
HETATM   22  O   UNK N   1      34.908  13.641  12.922  0.00  0.00    -0.201 OA
HETATM   23  O   UNK N   1      36.048  15.464  12.712  0.00  0.00    -0.201 OA
BRANCH  21  24
HETATM   24  N   UNK N   1      37.088  12.981  12.855  0.00  0.00    -0.324 N 
HETATM   25  H   UNK N   1      38.017  12.711  12.530  0.00  0.00     0.169 HD
HETATM   26  H   UNK N   1      36.749  12.577  13.728  0.00  0.00     0.169 HD
ENDBRANCH  21  24
ENDBRANCH  16  21
ENDBRANCH   3  14
TORSDOF 4
ENDMDL
MODEL 4
REMARK VINA RESULT:      -7.0      9.777     12.854
REMARK  4 active torsions:
REMARK  status: ('A' for Active; 'I' for Inactive)
REMARK    1  A    between atoms: S_2  and  N_8 
REMARK    2  A    between atoms: S_2  and  C_17 
REMARK    3  A    between atoms: O_3  and  C_9 
REMARK    4  A    between atoms: C_9  and  C_11 
ROOT
HETATM    1  O   UNK N   1      27.904  16.732   3.084  0.00  0.00    -0.268 OA
HETATM    2  N   UNK N   1      28.466  16.689   5.268  0.00  0.00    -0.317 N 
HETATM    3  C   UNK N   1      28.431  17.590   6.422  0.00  0.00     0.193 A 
HETATM    4  C   UNK N   1      27.803  18.831   5.799  0.00  0.00     0.017 A 
HETATM    5  C   UNK N   1      27.521  18.600   4.474  0.00  0.00     0.043 A 
HETATM    6  C   UNK N   1      27.975  17.280   4.166  0.00  0.00     0.255 A 
HETATM    7  C   UNK N   1      27.409  20.026   6.406  0.00  0.00     0.013 A 
HETATM    8  C   UNK N   1      26.846  19.519   3.675  0.00  0.00     0.018 A 
HETATM    9  C   UNK N   1      26.725  20.979   5.625  0.00  0.00     0.001 A 
HETATM   10  C   UNK N   1      26.441  20.725   4.266  0.00  0.00     0.001 A 
HETATM   11  H   UNK N   1      28.808  15.766   5.297  0.00  0.00     0.166 HD
ENDROOT
BRANCH   3  12
HETATM   12  O   UNK N   1      27.553  17.073   7.375  0.00  0.00    -0.363 OA
HETATM   13  H   UNK N   1      27.332  16.413   8.050  0.00  0.00     0.213 HD
ENDBRANCH   3  12
BRANCH   3  14
HETATM   14  C   UNK N   1      29.811  17.679   7.053  0.00  0.00     0.003 A 
HETATM   15  C   UNK N   1      30.895  17.182   6.331  0.00  0.00     0.039 A 
HETATM   16  C   UNK N   1      32.145  16.997   6.903  0.00  0.00     0.101 A 
HETATM   17  C   UNK N   1      32.337  17.309   8.261  0.00  0.00     0.057 A 
HETATM   18 Cl   UNK N   1      33.872  17.008   9.062  0.00  0.00    -0.083 Cl
HETATM   19  C   UNK N   1      31.268  17.852   8.997  0.00  0.00     0.026 A 
HETATM   20  C   UNK N   1      30.005  18.034   8.399  0.00  0.00     0.014 A 
BRANCH  16  21
HETATM   21  S   UNK N   1      33.408  16.334   5.819  0.00  0.00     0.258 S 
HETATM   22  O   UNK N   1      34.034  17.730   5.903  0.00  0.00    -0.201 OA
HETATM   23  O   UNK N   1      33.176  16.543   4.314  0.00  0.00    -0.201 OA
BRANCH  21  24
HETATM   24  N   UNK N   1      35.027  15.686   6.077  0.00  0.00    -0.324 N 
HETATM   25  H   UNK N   1      35.820  15.877   5.464  0.00  0.00     0.169 HD
HETATM   26  H   UNK N   1      35.182  15.086   6.887  0.00  0.00     0.169 HD
ENDBRANCH  21  24
ENDBRANCH  16  21
ENDBRANCH   3  14
TORSDOF 4
ENDMDL
MODEL 5
REMARK VINA RESULT:      -6.9     10.737     13.582
REMARK  4 active torsions:
REMARK  status: ('A' for Active; 'I' for Inactive)
REMARK    1  A    between atoms: S_2  and  N_8 
REMARK    2  A    between atoms: S_2  and  C_17 
REMARK    3  A    between atoms: O_3  and  C_9 
REMARK    4  A    between atoms: C_9  and  C_11 
ROOT
HETATM    1  O   UNK N   1      24.855  16.150   5.322  0.00  0.00    -0.268 OA
HETATM    2  N   UNK N   1      26.783  16.933   6.193  0.00  0.00    -0.317 N 
HETATM    3  C   UNK N   1      27.687  18.067   5.997  0.00  0.00     0.193 A 
HETATM    4  C   UNK N   1      26.968  18.819   4.884  0.00  0.00     0.017 A 
HETATM    5  C   UNK N   1      25.808  18.165   4.549  0.00  0.00     0.043 A 
HETATM    6  C   UNK N   1      25.737  16.984   5.350  0.00  0.00     0.255 A 
HETATM    7  C   UNK N   1      27.275  20.053   4.305  0.00  0.00     0.013 A 
HETATM    8  C   UNK N   1      24.891  18.677   3.634  0.00  0.00     0.018 A 
HETATM    9  C   UNK N   1      26.369  20.599   3.374  0.00  0.00     0.001 A 
HETATM   10  C   UNK N   1      25.180  19.915   3.042  0.00  0.00     0.001 A 
HETATM   11  H   UNK N   1      26.923  16.222   6.860  0.00  0.00     0.166 HD
ENDROOT
BRANCH   3  12
HETATM   12  O   UNK N   1      27.682  18.856   7.147  0.00  0.00    -0.363 OA
HETATM   13  H   UNK N   1      27.205  19.294   7.870  0.00  0.00     0.213 HD
ENDBRANCH   3  12
BRANCH   3  14
HETATM   14  C   UNK N   1      29.106  17.567   5.776  0.00  0.00     0.003 A 
HETATM   15  C   UNK N   1      29.890  17.304   6.898  0.00  0.00     0.039 A 
HETATM   16  C   UNK N   1      31.255  17.077   6.813  0.00  0.00     0.101 A 
HETATM   17  C   UNK N   1      31.886  17.121   5.557  0.00  0.00     0.057 A 
HETATM   18 Cl   UNK N   1      33.626  16.934   5.398  0.00  0.00    -0.083 Cl
HETATM   19  C   UNK N   1      31.107  17.343   4.406  0.00  0.00     0.026 A 
HETATM   20  C   UNK N   1      29.721  17.570   4.513  0.00  0.00     0.014 A 
BRANCH  16  21
HETATM   21  S   UNK N   1      32.094  16.772   8.367  0.00  0.00     0.258 S 
HETATM   22  O   UNK N   1      31.088  17.764   8.959  0.00  0.00    -0.201 OA
HETATM   23  O   UNK N   1      33.234  17.742   8.714  0.00  0.00    -0.201 OA
BRANCH  21  24
HETATM   24  N   UNK N   1      31.761  15.738   9.756  0.00  0.00    -0.324 N 
HETATM   25  H   UNK N   1      32.057  15.954  10.708  0.00  0.00     0.169 HD
HETATM   26  H   UNK N   1      31.243  14.874   9.599  0.00  0.00     0.169 HD
ENDBRANCH  21  24
ENDBRANCH  16  21
ENDBRANCH   3  14
TORSDOF 4
ENDMDL
MODEL 6
REMARK VINA RESULT:      -6.9     21.988     24.341
REMARK  4 active torsions:
REMARK  status: ('A' for Active; 'I' for Inactive)
REMARK    1  A    between atoms: S_2  and  N_8 
REMARK    2  A    between atoms: S_2  and  C_17 
REMARK    3  A    between atoms: O_3  and  C_9 
REMARK    4  A    between atoms: C_9  and  C_11 
ROOT
HETATM    1  O   UNK N   1      25.188  24.280  -7.077  0.00  0.00    -0.268 OA
HETATM    2  N   UNK N   1      26.373  23.579  -5.290  0.00  0.00    -0.317 N 
HETATM    3  C   UNK N   1      26.954  24.152  -4.074  0.00  0.00     0.193 A 
HETATM    4  C   UNK N   1      26.532  25.610  -4.212  0.00  0.00     0.017 A 
HETATM    5  C   UNK N   1      25.796  25.779  -5.360  0.00  0.00     0.043 A 
HETATM    6  C   UNK N   1      25.744  24.514  -6.024  0.00  0.00     0.255 A 
HETATM    7  C   UNK N   1      26.698  26.670  -3.317  0.00  0.00     0.013 A 
HETATM    8  C   UNK N   1      25.187  26.986  -5.694  0.00  0.00     0.018 A 
HETATM    9  C   UNK N   1      26.096  27.906  -3.626  0.00  0.00     0.001 A 
HETATM   10  C   UNK N   1      25.341  28.062  -4.808  0.00  0.00     0.001 A 
HETATM   11  H   UNK N   1      26.435  22.629  -5.539  0.00  0.00     0.166 HD
ENDROOT
BRANCH   3  12
HETATM   12  O   UNK N   1      26.312  23.603  -2.963  0.00  0.00    -0.363 OA
HETATM   13  H   UNK N   1      26.082  22.839  -2.412  0.00  0.00     0.213 HD
ENDBRANCH   3  12
BRANCH   3  14
HETATM   14  C   UNK N   1      28.430  23.798  -3.988  0.00  0.00     0.003 A 
HETATM   15  C   UNK N   1      28.994  23.082  -5.042  0.00  0.00     0.039 A 
HETATM   16  C   UNK N   1      30.254  22.508  -4.959  0.00  0.00     0.101 A 
HETATM   17  C   UNK N   1      30.994  22.636  -3.770  0.00  0.00     0.057 A 
HETATM   18 Cl   UNK N   1      32.554  21.850  -3.572  0.00  0.00    -0.083 Cl
HETATM   19  C   UNK N   1      30.461  23.389  -2.708  0.00  0.00     0.026 A 
HETATM   20  C   UNK N   1      29.180  23.967  -2.812  0.00  0.00     0.014 A 
BRANCH  16  21
HETATM   21  S   UNK N   1      30.802  21.614  -6.412  0.00  0.00     0.258 S 
HETATM   22  O   UNK N   1      29.315  21.317  -6.633  0.00  0.00    -0.201 OA
HETATM   23  O   UNK N   1      31.059  20.111  -6.216  0.00  0.00    -0.201 OA
BRANCH  21  24
HETATM   24  N   UNK N   1      30.891  22.004  -8.129  0.00  0.00    -0.324 N 
HETATM   25  H   UNK N   1      31.679  22.488  -8.561  0.00  0.00     0.169 HD
HETATM   26  H   UNK N   1      30.111  21.731  -8.725  0.00  0.00     0.169 HD
ENDBRANCH  21  24
ENDBRANCH  16  21
ENDBRANCH   3  14
TORSDOF 4
ENDMDL
MODEL 7
REMARK VINA RESULT:      -6.9      4.296      8.005
REMARK  4 active torsions:
REMARK  status: ('A' for Active; 'I' for Inactive)
REMARK    1  A    between atoms: S_2  and  N_8 
REMARK    2  A    between atoms: S_2  and  C_17 
REMARK    3  A    between atoms: O_3  and  C_9 
REMARK    4  A    between atoms: C_9  and  C_11 
ROOT
HETATM    1  O   UNK N   1      31.517  14.246   6.770  0.00  0.00    -0.268 OA
HETATM    2  N   UNK N   1      32.347  13.957   8.848  0.00  0.00    -0.317 N 
HETATM    3  C   UNK N   1      33.268  14.637   9.759  0.00  0.00     0.193 A 
HETATM    4  C   UNK N   1      33.658  15.850   8.922  0.00  0.00     0.017 A 
HETATM    5  C   UNK N   1      33.000  15.819   7.716  0.00  0.00     0.043 A 
HETATM    6  C   UNK N   1      32.224  14.619   7.685  0.00  0.00     0.255 A 
HETATM    7  C   UNK N   1      34.448  16.950   9.267  0.00  0.00     0.013 A 
HETATM    8  C   UNK N   1      33.079  16.854   6.788  0.00  0.00     0.018 A 
HETATM    9  C   UNK N   1      34.550  18.014   8.349  0.00  0.00     0.001 A 
HETATM   10  C   UNK N   1      33.866  17.967   7.116  0.00  0.00     0.001 A 
HETATM   11  H   UNK N   1      31.877  13.118   9.060  0.00  0.00     0.166 HD
ENDROOT
BRANCH   3  12
HETATM   12  O   UNK N   1      32.560  15.075  10.878  0.00  0.00    -0.363 OA
HETATM   13  H   UNK N   1      32.493  15.624  11.675  0.00  0.00     0.213 HD
ENDBRANCH   3  12
BRANCH   3  14
HETATM   14  C   UNK N   1      34.342  13.670  10.231  0.00  0.00     0.003 A 
HETATM   15  C   UNK N   1      34.822  13.808  11.532  0.00  0.00     0.039 A 
HETATM   16  C   UNK N   1      35.954  13.143  11.980  0.00  0.00     0.101 A 
HETATM   17  C   UNK N   1      36.657  12.304  11.097  0.00  0.00     0.057 A 
HETATM   18 Cl   UNK N   1      38.148  11.510  11.580  0.00  0.00    -0.083 Cl
HETATM   19  C   UNK N   1      36.166  12.117   9.791  0.00  0.00     0.026 A 
HETATM   20  C   UNK N   1      35.014  12.800   9.355  0.00  0.00     0.014 A 
BRANCH  16  21
HETATM   21  S   UNK N   1      36.424  13.460  13.680  0.00  0.00     0.258 S 
HETATM   22  O   UNK N   1      34.917  13.539  13.948  0.00  0.00    -0.201 OA
HETATM   23  O   UNK N   1      36.557  14.940  14.071  0.00  0.00    -0.201 OA
BRANCH  21  24
HETATM   24  N   UNK N   1      36.542  12.459  15.125  0.00  0.00    -0.324 N 
HETATM   25  H   UNK N   1      37.373  12.408  15.715  0.00  0.00     0.169 HD
HETATM   26  H   UNK N   1      35.733  11.897  15.388  0.00  0.00     0.169 HD
ENDBRANCH  21  24
ENDBRANCH  16  21
ENDBRANCH   3  14
TORSDOF 4
ENDMDL
MODEL 8
REMARK VINA RESULT:      -6.8     13.963     14.922
REMARK  4 active torsions:
REMARK  status: ('A' for Active; 'I' for Inactive)
REMARK    1  A    between atoms: S_2  and  N_8 
REMARK    2  A    between atoms: S_2  and  C_17 
REMARK    3  A    between atoms: O_3  and  C_9 
REMARK    4  A    between atoms: C_9  and  C_11 
ROOT
HETATM    1  O   UNK N   1      19.817  13.200  10.203  0.00  0.00    -0.268 OA
HETATM    2  N   UNK N   1      21.204  13.278   8.426  0.00  0.00    -0.317 N 
HETATM    3  C   UNK N   1      22.628  13.087   8.145  0.00  0.00     0.193 A 
HETATM    4  C   UNK N   1      23.150  12.730   9.531  0.00  0.00     0.017 A 
HETATM    5  C   UNK N   1      22.114  12.716  10.434  0.00  0.00     0.043 A 
HETATM    6  C   UNK N   1      20.930  13.093   9.729  0.00  0.00     0.255 A 
HETATM    7  C   UNK N   1      24.432  12.336   9.922  0.00  0.00     0.013 A 
HETATM    8  C   UNK N   1      22.275  12.319  11.759  0.00  0.00     0.018 A 
HETATM    9  C   UNK N   1      24.629  11.930  11.257  0.00  0.00     0.001 A 
HETATM   10  C   UNK N   1      23.554  11.919  12.171  0.00  0.00     0.001 A 
HETATM   11  H   UNK N   1      20.532  13.513   7.746  0.00  0.00     0.166 HD
ENDROOT
BRANCH   3  12
HETATM   12  O   UNK N   1      22.781  11.979   7.310  0.00  0.00    -0.363 OA
HETATM   13  H   UNK N   1      23.342  11.307   6.892  0.00  0.00     0.213 HD
ENDBRANCH   3  12
BRANCH   3  14
HETATM   14  C   UNK N   1      23.182  14.303   7.419  0.00  0.00     0.003 A 
HETATM   15  C   UNK N   1      22.275  15.211   6.877  0.00  0.00     0.039 A 
HETATM   16  C   UNK N   1      22.663  16.214   6.001  0.00  0.00     0.101 A 
HETATM   17  C   UNK N   1      24.015  16.323   5.631  0.00  0.00     0.057 A 
HETATM   18 Cl   UNK N   1      24.550  17.514   4.454  0.00  0.00    -0.083 Cl
HETATM   19  C   UNK N   1      24.954  15.443   6.199  0.00  0.00     0.026 A 
HETATM   20  C   UNK N   1      24.542  14.431   7.089  0.00  0.00     0.014 A 
BRANCH  16  21
HETATM   21  S   UNK N   1      21.350  17.274   5.398  0.00  0.00     0.258 S 
HETATM   22  O   UNK N   1      21.409  17.923   6.785  0.00  0.00    -0.201 OA
HETATM   23  O   UNK N   1      19.918  16.801   5.696  0.00  0.00    -0.201 OA
BRANCH  21  24
HETATM   24  N   UNK N   1      21.301  18.906   4.732  0.00  0.00    -0.324 N 
HETATM   25  H   UNK N   1      20.536  19.263   4.159  0.00  0.00     0.169 HD
HETATM   26  H   UNK N   1      22.083  19.530   4.931  0.00  0.00     0.169 HD
ENDBRANCH  21  24
ENDBRANCH  16  21
ENDBRANCH   3  14
TORSDOF 4
ENDMDL
MODEL 9
REMARK VINA RESULT:      -6.7      3.224      4.431
REMARK  4 active torsions:
REMARK  status: ('A' for Active; 'I' for Inactive)
REMARK    1  A    between atoms: S_2  and  N_8 
REMARK    2  A    between atoms: S_2  and  C_17 
REMARK    3  A    between atoms: O_3  and  C_9 
REMARK    4  A    between atoms: C_9  and  C_11 
ROOT
HETATM    1  O   UNK N   1      33.873  10.395  13.099  0.00  0.00    -0.268 OA
HETATM    2  N   UNK N   1      35.085  12.016  12.105  0.00  0.00    -0.317 N 
HETATM    3  C   UNK N   1      35.836  13.211  12.494  0.00  0.00     0.193 A 
HETATM    4  C   UNK N   1      35.654  13.185  14.007  0.00  0.00     0.017 A 
HETATM    5  C   UNK N   1      34.911  12.089  14.372  0.00  0.00     0.043 A 
HETATM    6  C   UNK N   1      34.543  11.405  13.172  0.00  0.00     0.255 A 
HETATM    7  C   UNK N   1      36.214  14.015  14.982  0.00  0.00     0.013 A 
HETATM    8  C   UNK N   1      34.673  11.747  15.701  0.00  0.00     0.018 A 
HETATM    9  C   UNK N   1      35.991  13.698  16.337  0.00  0.00     0.001 A 
HETATM   10  C   UNK N   1      35.227  12.567  16.695  0.00  0.00     0.001 A 
HETATM   11  H   UNK N   1      34.990  11.701  11.177  0.00  0.00     0.166 HD
ENDROOT
BRANCH   3  12
HETATM   12  O   UNK N   1      37.185  13.015  12.201  0.00  0.00    -0.363 OA
HETATM   13  H   UNK N   1      37.910  12.447  11.897  0.00  0.00     0.213 HD
ENDBRANCH   3  12
BRANCH   3  14
HETATM   14  C   UNK N   1      35.351  14.412  11.697  0.00  0.00     0.003 A 
HETATM   15  C   UNK N   1      34.448  14.187  10.659  0.00  0.00     0.039 A 
HETATM   16  C   UNK N   1      34.129  15.164   9.728  0.00  0.00     0.101 A 
HETATM   17  C   UNK N   1      34.740  16.428   9.816  0.00  0.00     0.057 A 
HETATM   18 Cl   UNK N   1      34.448  17.673   8.611  0.00  0.00    -0.083 Cl
HETATM   19  C   UNK N   1      35.624  16.690  10.880  0.00  0.00     0.026 A 
HETATM   20  C   UNK N   1      35.934  15.685  11.817  0.00  0.00     0.014 A 
BRANCH  16  21
HETATM   21  S   UNK N   1      32.959  14.682   8.460  0.00  0.00     0.258 S 
HETATM   22  O   UNK N   1      31.892  15.216   9.420  0.00  0.00    -0.201 OA
HETATM   23  O   UNK N   1      32.361  13.273   8.602  0.00  0.00    -0.201 OA
BRANCH  21  24
HETATM   24  N   UNK N   1      32.116  15.549   7.177  0.00  0.00    -0.324 N 
HETATM   25  H   UNK N   1      31.711  15.097   6.357  0.00  0.00     0.169 HD
HETATM   26  H   UNK N   1      32.027  16.561   7.260  0.00  0.00     0.169 HD
ENDBRANCH  21  24
ENDBRANCH  16  21
ENDBRANCH   3  14
TORSDOF 4
ENDMDL
