REMARK  4 active torsions:
REMARK  status: ('A' for Active; 'I' for Inactive)
REMARK    1  A    between atoms: C_6  and  C_7 
REMARK    2  A    between atoms: C_6  and  C_9 
REMARK    3  A    between atoms: C_7  and  C_8 
REMARK    4  A    between atoms: C_8  and  C_13 
ROOT
HETATM    1  O   UNK N   1       4.686  -0.459  -1.765  0.00  0.00    -0.272 OA
HETATM    2  O   UNK N   1       1.275  -0.111   1.466  0.00  0.00    -0.272 OA
HETATM    3  O   UNK N   1       3.491  -3.899   0.786  0.00  0.00    -0.247 OA
HETATM    4  N   UNK N   1       4.098  -2.174  -0.482  0.00  0.00    -0.278 N 
HETATM    5  N   UNK N   1       2.388  -2.000   1.132  0.00  0.00    -0.278 N 
HETATM    6  C   UNK N   1       2.911   0.028  -0.256  0.00  0.00     0.125 A 
HETATM    7  C   UNK N   1       3.961  -0.885  -0.879  0.00  0.00     0.244 A 
HETATM    8  C   UNK N   1       2.140  -0.702   0.838  0.00  0.00     0.244 A 
HETATM    9  C   UNK N   1       3.331  -2.727   0.487  0.00  0.00     0.329 A 
HETATM   10  H   UNK N   1       4.783  -2.732  -0.918  0.00  0.00     0.173 HD
HETATM   11  H   UNK N   1       1.862  -2.433   1.842  0.00  0.00     0.173 HD
ENDROOT
BRANCH   6  12
HETATM   12  C   UNK N   1       3.566   1.295   0.362  0.00  0.00     0.009 C 
HETATM   13  C   UNK N   1       4.619   0.980   1.421  0.00  0.00     0.011 C 
BRANCH  12  14
HETATM   14  C   UNK N   1       4.120   2.282  -0.665  0.00  0.00     0.005 C 
BRANCH  14  15
HETATM   15  C   UNK N   1       4.050   3.705  -0.128  0.00  0.00    -0.004 C 
HETATM   16  C   UNK N   1       2.605   4.164  -0.019  0.00  0.00     0.005 C 
ENDBRANCH  14  15
ENDBRANCH  12  14
ENDBRANCH   6  12
BRANCH   6  17
HETATM   17  C   UNK N   1       1.933   0.417  -1.385  0.00  0.00     0.025 C 
HETATM   18  C   UNK N   1       0.840   1.392  -0.969  0.00  0.00     0.007 C 
ENDBRANCH   6  17
TORSDOF 4
