MODEL 1
REMARK VINA RESULT:      -5.6      0.000      0.000
REMARK  4 active torsions:
REMARK  status: ('A' for Active; 'I' for Inactive)
REMARK    1  A    between atoms: C_6  and  C_7 
REMARK    2  A    between atoms: C_6  and  C_9 
REMARK    3  A    between atoms: C_7  and  C_8 
REMARK    4  A    between atoms: C_8  and  C_13 
ROOT
HETATM    1  O   UNK N   1      34.107  18.080   6.274  0.00  0.00    -0.272 OA
HETATM    2  O   UNK N   1      31.965  15.096   9.223  0.00  0.00    -0.272 OA
HETATM    3  O   UNK N   1      35.587  17.376  10.406  0.00  0.00    -0.247 OA
HETATM    4  N   UNK N   1      34.839  17.738   8.342  0.00  0.00    -0.278 N 
HETATM    5  N   UNK N   1      33.769  16.241   9.816  0.00  0.00    -0.278 N 
HETATM    6  C   UNK N   1      32.828  16.491   7.500  0.00  0.00     0.125 A 
HETATM    7  C   UNK N   1      33.964  17.494   7.336  0.00  0.00     0.244 A 
HETATM    8  C   UNK N   1      32.828  15.899   8.905  0.00  0.00     0.244 A 
HETATM    9  C   UNK N   1      34.758  17.126   9.547  0.00  0.00     0.329 A 
HETATM   10  H   UNK N   1      35.565  18.387   8.190  0.00  0.00     0.173 HD
HETATM   11  H   UNK N   1      33.734  15.830  10.709  0.00  0.00     0.173 HD
ENDROOT
BRANCH   6  12
HETATM   12  C   UNK N   1      31.448  17.162   7.246  0.00  0.00     0.009 C 
HETATM   13  C   UNK N   1      30.427  16.227   6.604  0.00  0.00     0.011 C 
BRANCH  12  14
HETATM   14  C   UNK N   1      30.847  17.849   8.472  0.00  0.00     0.005 C 
BRANCH  14  15
HETATM   15  C   UNK N   1      29.410  18.270   8.195  0.00  0.00    -0.004 C 
HETATM   16  C   UNK N   1      28.518  17.932   9.378  0.00  0.00     0.005 C 
ENDBRANCH  14  15
ENDBRANCH  12  14
ENDBRANCH   6  12
BRANCH   6  17
HETATM   17  C   UNK N   1      33.079  15.361   6.479  0.00  0.00     0.025 C 
HETATM   18  C   UNK N   1      34.368  14.582   6.702  0.00  0.00     0.007 C 
ENDBRANCH   6  17
TORSDOF 4
ENDMDL
MODEL 2
REMARK VINA RESULT:      -5.4      1.491      3.836
REMARK  4 active torsions:
REMARK  status: ('A' for Active; 'I' for Inactive)
REMARK    1  A    between atoms: C_6  and  C_7 
REMARK    2  A    between atoms: C_6  and  C_9 
REMARK    3  A    between atoms: C_7  and  C_8 
REMARK    4  A    between atoms: C_8  and  C_13 
ROOT
HETATM    1  O   UNK N   1      32.557  14.583   8.292  0.00  0.00    -0.272 OA
HETATM    2  O   UNK N   1      34.760  18.682   7.559  0.00  0.00    -0.272 OA
HETATM    3  O   UNK N   1      35.167  16.444  11.373  0.00  0.00    -0.247 OA
HETATM    4  N   UNK N   1      33.871  15.506   9.827  0.00  0.00    -0.278 N 
HETATM    5  N   UNK N   1      34.970  17.560   9.460  0.00  0.00    -0.278 N 
HETATM    6  C   UNK N   1      33.498  16.667   7.631  0.00  0.00     0.125 A 
HETATM    7  C   UNK N   1      33.284  15.514   8.605  0.00  0.00     0.244 A 
HETATM    8  C   UNK N   1      34.452  17.700   8.217  0.00  0.00     0.244 A 
HETATM    9  C   UNK N   1      34.683  16.501  10.254  0.00  0.00     0.329 A 
HETATM   10  H   UNK N   1      33.698  14.746  10.429  0.00  0.00     0.173 HD
HETATM   11  H   UNK N   1      35.578  18.254   9.801  0.00  0.00     0.173 HD
ENDROOT
BRANCH   6  12
HETATM   12  C   UNK N   1      34.084  16.160   6.283  0.00  0.00     0.009 C 
HETATM   13  C   UNK N   1      35.223  15.158   6.454  0.00  0.00     0.011 C 
BRANCH  12  14
HETATM   14  C   UNK N   1      33.041  15.621   5.305  0.00  0.00     0.005 C 
BRANCH  14  15
HETATM   15  C   UNK N   1      33.252  16.215   3.919  0.00  0.00    -0.004 C 
HETATM   16  C   UNK N   1      32.397  17.458   3.735  0.00  0.00     0.005 C 
ENDBRANCH  14  15
ENDBRANCH  12  14
ENDBRANCH   6  12
BRANCH   6  17
HETATM   17  C   UNK N   1      32.119  17.325   7.410  0.00  0.00     0.025 C 
HETATM   18  C   UNK N   1      31.503  17.940   8.660  0.00  0.00     0.007 C 
ENDBRANCH   6  17
TORSDOF 4
ENDMDL
MODEL 3
REMARK VINA RESULT:      -5.4      7.558      9.293
REMARK  4 active torsions:
REMARK  status: ('A' for Active; 'I' for Inactive)
REMARK    1  A    between atoms: C_6  and  C_7 
REMARK    2  A    between atoms: C_6  and  C_9 
REMARK    3  A    between atoms: C_7  and  C_8 
REMARK    4  A    between atoms: C_8  and  C_13 
ROOT
HETATM    1  O   UNK N   1      34.846  13.773  13.265  0.00  0.00    -0.272 OA
HETATM    2  O   UNK N   1      36.937  10.169  15.464  0.00  0.00    -0.272 OA
HETATM    3  O   UNK N   1      37.950  11.280  11.285  0.00  0.00    -0.247 OA
HETATM    4  N   UNK N   1      36.405  12.536  12.280  0.00  0.00    -0.278 N 
HETATM    5  N   UNK N   1      37.449  10.730  13.380  0.00  0.00    -0.278 N 
HETATM    6  C   UNK N   1      35.684  12.010  14.628  0.00  0.00     0.125 A 
HETATM    7  C   UNK N   1      35.623  12.834  13.346  0.00  0.00     0.244 A 
HETATM    8  C   UNK N   1      36.733  10.910  14.515  0.00  0.00     0.244 A 
HETATM    9  C   UNK N   1      37.288  11.509  12.284  0.00  0.00     0.329 A 
HETATM   10  H   UNK N   1      36.327  13.088  11.468  0.00  0.00     0.173 HD
HETATM   11  H   UNK N   1      38.112  10.003  13.349  0.00  0.00     0.173 HD
ENDROOT
BRANCH   6  12
HETATM   12  C   UNK N   1      36.033  12.903  15.851  0.00  0.00     0.009 C 
HETATM   13  C   UNK N   1      36.846  14.142  15.488  0.00  0.00     0.011 C 
BRANCH  12  14
HETATM   14  C   UNK N   1      34.831  13.288  16.713  0.00  0.00     0.005 C 
BRANCH  14  15
HETATM   15  C   UNK N   1      35.173  13.160  18.192  0.00  0.00    -0.004 C 
HETATM   16  C   UNK N   1      35.322  11.698  18.581  0.00  0.00     0.005 C 
ENDBRANCH  14  15
ENDBRANCH  12  14
ENDBRANCH   6  12
BRANCH   6  17
HETATM   17  C   UNK N   1      34.294  11.362  14.806  0.00  0.00     0.025 C 
HETATM   18  C   UNK N   1      33.873  10.442  13.668  0.00  0.00     0.007 C 
ENDBRANCH   6  17
TORSDOF 4
ENDMDL
MODEL 4
REMARK VINA RESULT:      -5.4     12.943     14.420
REMARK  4 active torsions:
REMARK  status: ('A' for Active; 'I' for Inactive)
REMARK    1  A    between atoms: C_6  and  C_7 
REMARK    2  A    between atoms: C_6  and  C_9 
REMARK    3  A    between atoms: C_7  and  C_8 
REMARK    4  A    between atoms: C_8  and  C_13 
ROOT
HETATM    1  O   UNK N   1      29.649  23.865  -6.052  0.00  0.00    -0.272 OA
HETATM    2  O   UNK N   1      30.555  22.952  -1.520  0.00  0.00    -0.272 OA
HETATM    3  O   UNK N   1      26.475  23.982  -2.940  0.00  0.00    -0.247 OA
HETATM    4  N   UNK N   1      28.061  23.911  -4.500  0.00  0.00    -0.278 N 
HETATM    5  N   UNK N   1      28.516  23.458  -2.231  0.00  0.00    -0.278 N 
HETATM    6  C   UNK N   1      30.432  23.390  -3.855  0.00  0.00     0.125 A 
HETATM    7  C   UNK N   1      29.351  23.732  -4.875  0.00  0.00     0.244 A 
HETATM    8  C   UNK N   1      29.834  23.252  -2.460  0.00  0.00     0.244 A 
HETATM    9  C   UNK N   1      27.648  23.790  -3.216  0.00  0.00     0.329 A 
HETATM   10  H   UNK N   1      27.396  24.140  -5.190  0.00  0.00     0.173 HD
HETATM   11  H   UNK N   1      28.174  23.363  -1.313  0.00  0.00     0.173 HD
ENDROOT
BRANCH   6  12
HETATM   12  C   UNK N   1      31.147  22.060  -4.221  0.00  0.00     0.009 C 
HETATM   13  C   UNK N   1      30.265  21.091  -5.004  0.00  0.00     0.011 C 
BRANCH  12  14
HETATM   14  C   UNK N   1      32.494  22.240  -4.921  0.00  0.00     0.005 C 
BRANCH  14  15
HETATM   15  C   UNK N   1      33.512  21.246  -4.382  0.00  0.00    -0.004 C 
HETATM   16  C   UNK N   1      33.340  21.066  -2.883  0.00  0.00     0.005 C 
ENDBRANCH  14  15
ENDBRANCH  12  14
ENDBRANCH   6  12
BRANCH   6  17
HETATM   17  C   UNK N   1      31.434  24.565  -3.858  0.00  0.00     0.025 C 
HETATM   18  C   UNK N   1      30.826  25.917  -3.512  0.00  0.00     0.007 C 
ENDBRANCH   6  17
TORSDOF 4
ENDMDL
MODEL 5
REMARK VINA RESULT:      -5.2     15.839     17.111
REMARK  4 active torsions:
REMARK  status: ('A' for Active; 'I' for Inactive)
REMARK    1  A    between atoms: C_6  and  C_7 
REMARK    2  A    between atoms: C_6  and  C_9 
REMARK    3  A    between atoms: C_7  and  C_8 
REMARK    4  A    between atoms: C_8  and  C_13 
ROOT
HETATM    1  O   UNK N   1      29.333  26.076  -5.445  0.00  0.00    -0.272 OA
HETATM    2  O   UNK N   1      25.143  24.080  -6.250  0.00  0.00    -0.272 OA
HETATM    3  O   UNK N   1      27.105  23.903  -2.270  0.00  0.00    -0.247 OA
HETATM    4  N   UNK N   1      28.215  25.002  -3.855  0.00  0.00    -0.278 N 
HETATM    5  N   UNK N   1      26.119  23.999  -4.260  0.00  0.00    -0.278 N 
HETATM    6  C   UNK N   1      27.265  25.153  -6.176  0.00  0.00     0.125 A 
HETATM    7  C   UNK N   1      28.336  25.445  -5.131  0.00  0.00     0.244 A 
HETATM    8  C   UNK N   1      26.106  24.376  -5.561  0.00  0.00     0.244 A 
HETATM    9  C   UNK N   1      27.146  24.289  -3.426  0.00  0.00     0.329 A 
HETATM   10  H   UNK N   1      28.935  25.204  -3.215  0.00  0.00     0.173 HD
HETATM   11  H   UNK N   1      25.353  23.494  -3.907  0.00  0.00     0.173 HD
ENDROOT
BRANCH   6  12
HETATM   12  C   UNK N   1      26.708  26.468  -6.789  0.00  0.00     0.009 C 
HETATM   13  C   UNK N   1      26.343  26.344  -8.266  0.00  0.00     0.011 C 
BRANCH  12  14
HETATM   14  C   UNK N   1      25.552  27.089  -6.005  0.00  0.00     0.005 C 
BRANCH  14  15
HETATM   15  C   UNK N   1      26.070  28.150  -5.043  0.00  0.00    -0.004 C 
HETATM   16  C   UNK N   1      25.704  27.796  -3.611  0.00  0.00     0.005 C 
ENDBRANCH  14  15
ENDBRANCH  12  14
ENDBRANCH   6  12
BRANCH   6  17
HETATM   17  C   UNK N   1      27.930  24.284  -7.264  0.00  0.00     0.025 C 
HETATM   18  C   UNK N   1      28.389  22.913  -6.788  0.00  0.00     0.007 C 
ENDBRANCH   6  17
TORSDOF 4
ENDMDL
MODEL 6
REMARK VINA RESULT:      -5.2      1.157      4.189
REMARK  4 active torsions:
REMARK  status: ('A' for Active; 'I' for Inactive)
REMARK    1  A    between atoms: C_6  and  C_7 
REMARK    2  A    between atoms: C_6  and  C_9 
REMARK    3  A    between atoms: C_7  and  C_8 
REMARK    4  A    between atoms: C_8  and  C_13 
ROOT
HETATM    1  O   UNK N   1      32.282  14.575   8.891  0.00  0.00    -0.272 OA
HETATM    2  O   UNK N   1      34.453  18.277   6.948  0.00  0.00    -0.272 OA
HETATM    3  O   UNK N   1      35.301  16.971  11.107  0.00  0.00    -0.247 OA
HETATM    4  N   UNK N   1      33.799  15.764   9.994  0.00  0.00    -0.278 N 
HETATM    5  N   UNK N   1      34.882  17.619   9.022  0.00  0.00    -0.278 N 
HETATM    6  C   UNK N   1      33.170  16.399   7.647  0.00  0.00     0.125 A 
HETATM    7  C   UNK N   1      33.060  15.516   8.885  0.00  0.00     0.244 A 
HETATM    8  C   UNK N   1      34.213  17.492   7.853  0.00  0.00     0.244 A 
HETATM    9  C   UNK N   1      34.679  16.790  10.073  0.00  0.00     0.329 A 
HETATM   10  H   UNK N   1      33.690  15.174  10.776  0.00  0.00     0.173 HD
HETATM   11  H   UNK N   1      35.542  18.343   9.113  0.00  0.00     0.173 HD
ENDROOT
BRANCH   6  12
HETATM   12  C   UNK N   1      33.569  15.565   6.397  0.00  0.00     0.009 C 
HETATM   13  C   UNK N   1      33.006  16.119   5.091  0.00  0.00     0.011 C 
BRANCH  12  14
HETATM   14  C   UNK N   1      35.069  15.306   6.265  0.00  0.00     0.005 C 
BRANCH  14  15
HETATM   15  C   UNK N   1      35.418  13.917   6.781  0.00  0.00    -0.004 C 
HETATM   16  C   UNK N   1      36.360  14.010   7.971  0.00  0.00     0.005 C 
ENDBRANCH  14  15
ENDBRANCH  12  14
ENDBRANCH   6  12
BRANCH   6  17
HETATM   17  C   UNK N   1      31.788  17.055   7.444  0.00  0.00     0.025 C 
HETATM   18  C   UNK N   1      31.343  17.962   8.584  0.00  0.00     0.007 C 
ENDBRANCH   6  17
TORSDOF 4
ENDMDL
MODEL 7
REMARK VINA RESULT:      -5.0     16.664     17.998
REMARK  4 active torsions:
REMARK  status: ('A' for Active; 'I' for Inactive)
REMARK    1  A    between atoms: C_6  and  C_7 
REMARK    2  A    between atoms: C_6  and  C_9 
REMARK    3  A    between atoms: C_7  and  C_8 
REMARK    4  A    between atoms: C_8  and  C_13 
ROOT
HETATM    1  O   UNK N   1      27.615  28.319  -6.684  0.00  0.00    -0.272 OA
HETATM    2  O   UNK N   1      26.184  26.718  -2.490  0.00  0.00    -0.272 OA
HETATM    3  O   UNK N   1      26.315  31.056  -3.430  0.00  0.00    -0.247 OA
HETATM    4  N   UNK N   1      26.954  29.686  -5.063  0.00  0.00    -0.278 N 
HETATM    5  N   UNK N   1      26.241  28.884  -2.963  0.00  0.00    -0.278 N 
HETATM    6  C   UNK N   1      26.984  27.204  -4.678  0.00  0.00     0.125 A 
HETATM    7  C   UNK N   1      27.199  28.441  -5.542  0.00  0.00     0.244 A 
HETATM    8  C   UNK N   1      26.442  27.590  -3.306  0.00  0.00     0.244 A 
HETATM    9  C   UNK N   1      26.498  29.911  -3.808  0.00  0.00     0.329 A 
HETATM   10  H   UNK N   1      27.115  30.459  -5.652  0.00  0.00     0.173 HD
HETATM   11  H   UNK N   1      25.896  29.087  -2.065  0.00  0.00     0.173 HD
ENDROOT
BRANCH   6  12
HETATM   12  C   UNK N   1      25.982  26.221  -5.346  0.00  0.00     0.009 C 
HETATM   13  C   UNK N   1      24.788  26.917  -5.994  0.00  0.00     0.011 C 
BRANCH  12  14
HETATM   14  C   UNK N   1      26.623  25.238  -6.325  0.00  0.00     0.005 C 
BRANCH  14  15
HETATM   15  C   UNK N   1      26.432  23.806  -5.844  0.00  0.00    -0.004 C 
HETATM   16  C   UNK N   1      25.606  23.012  -6.843  0.00  0.00     0.005 C 
ENDBRANCH  14  15
ENDBRANCH  12  14
ENDBRANCH   6  12
BRANCH   6  17
HETATM   17  C   UNK N   1      28.365  26.538  -4.503  0.00  0.00     0.025 C 
HETATM   18  C   UNK N   1      29.405  27.408  -3.811  0.00  0.00     0.007 C 
ENDBRANCH   6  17
TORSDOF 4
ENDMDL
MODEL 8
REMARK VINA RESULT:      -5.0     16.615     18.148
REMARK  4 active torsions:
REMARK  status: ('A' for Active; 'I' for Inactive)
REMARK    1  A    between atoms: C_6  and  C_7 
REMARK    2  A    between atoms: C_6  and  C_9 
REMARK    3  A    between atoms: C_7  and  C_8 
REMARK    4  A    between atoms: C_8  and  C_13 
ROOT
HETATM    1  O   UNK N   1      25.778  24.503  -3.932  0.00  0.00    -0.272 OA
HETATM    2  O   UNK N   1      27.418  26.713  -7.756  0.00  0.00    -0.272 OA
HETATM    3  O   UNK N   1      25.401  22.764  -8.007  0.00  0.00    -0.247 OA
HETATM    4  N   UNK N   1      25.578  23.640  -5.969  0.00  0.00    -0.278 N 
HETATM    5  N   UNK N   1      26.403  24.745  -7.882  0.00  0.00    -0.278 N 
HETATM    6  C   UNK N   1      26.736  25.846  -5.648  0.00  0.00     0.125 A 
HETATM    7  C   UNK N   1      25.993  24.620  -5.129  0.00  0.00     0.244 A 
HETATM    8  C   UNK N   1      26.872  25.794  -7.166  0.00  0.00     0.244 A 
HETATM    9  C   UNK N   1      25.782  23.688  -7.307  0.00  0.00     0.329 A 
HETATM   10  H   UNK N   1      25.111  22.860  -5.590  0.00  0.00     0.173 HD
HETATM   11  H   UNK N   1      26.518  24.751  -8.859  0.00  0.00     0.173 HD
ENDROOT
BRANCH   6  12
HETATM   12  C   UNK N   1      25.992  27.156  -5.263  0.00  0.00     0.009 C 
HETATM   13  C   UNK N   1      24.516  27.153  -5.650  0.00  0.00     0.011 C 
BRANCH  12  14
HETATM   14  C   UNK N   1      26.161  27.570  -3.802  0.00  0.00     0.005 C 
BRANCH  14  15
HETATM   15  C   UNK N   1      26.212  29.086  -3.680  0.00  0.00    -0.004 C 
HETATM   16  C   UNK N   1      27.077  29.682  -4.779  0.00  0.00     0.005 C 
ENDBRANCH  14  15
ENDBRANCH  12  14
ENDBRANCH   6  12
BRANCH   6  17
HETATM   17  C   UNK N   1      28.144  25.815  -5.017  0.00  0.00     0.025 C 
HETATM   18  C   UNK N   1      28.967  24.582  -5.365  0.00  0.00     0.007 C 
ENDBRANCH   6  17
TORSDOF 4
ENDMDL
MODEL 9
REMARK VINA RESULT:      -4.9      1.977      3.438
REMARK  4 active torsions:
REMARK  status: ('A' for Active; 'I' for Inactive)
REMARK    1  A    between atoms: C_6  and  C_7 
REMARK    2  A    between atoms: C_6  and  C_9 
REMARK    3  A    between atoms: C_7  and  C_8 
REMARK    4  A    between atoms: C_8  and  C_13 
ROOT
HETATM    1  O   UNK N   1      32.001  14.139   7.884  0.00  0.00    -0.272 OA
HETATM    2  O   UNK N   1      34.302  17.995   6.456  0.00  0.00    -0.272 OA
HETATM    3  O   UNK N   1      34.828  14.067   4.453  0.00  0.00    -0.247 OA
HETATM    4  N   UNK N   1      33.404  14.105   6.162  0.00  0.00    -0.278 N 
HETATM    5  N   UNK N   1      34.558  16.035   5.451  0.00  0.00    -0.278 N 
HETATM    6  C   UNK N   1      33.028  16.239   7.434  0.00  0.00     0.125 A 
HETATM    7  C   UNK N   1      32.774  14.759   7.169  0.00  0.00     0.244 A 
HETATM    8  C   UNK N   1      34.004  16.811   6.412  0.00  0.00     0.244 A 
HETATM    9  C   UNK N   1      34.280  14.715   5.329  0.00  0.00     0.329 A 
HETATM   10  H   UNK N   1      33.217  13.147   6.032  0.00  0.00     0.173 HD
HETATM   11  H   UNK N   1      35.187  16.445   4.815  0.00  0.00     0.173 HD
ENDROOT
BRANCH   6  12
HETATM   12  C   UNK N   1      31.707  17.055   7.367  0.00  0.00     0.009 C 
HETATM   13  C   UNK N   1      30.828  16.691   6.173  0.00  0.00     0.011 C 
BRANCH  12  14
HETATM   14  C   UNK N   1      30.890  17.037   8.658  0.00  0.00     0.005 C 
BRANCH  14  15
HETATM   15  C   UNK N   1      30.413  18.440   9.007  0.00  0.00    -0.004 C 
HETATM   16  C   UNK N   1      28.949  18.420   9.415  0.00  0.00     0.005 C 
ENDBRANCH  14  15
ENDBRANCH  12  14
ENDBRANCH   6  12
BRANCH   6  17
HETATM   17  C   UNK N   1      33.658  16.337   8.839  0.00  0.00     0.025 C 
HETATM   18  C   UNK N   1      34.995  15.624   8.987  0.00  0.00     0.007 C 
ENDBRANCH   6  17
TORSDOF 4
ENDMDL
