MODEL 1
REMARK VINA RESULT:      -4.8      0.000      0.000
REMARK  2 active torsions:
REMARK  status: ('A' for Active; 'I' for Inactive)
REMARK    1  A    between atoms: O_1  and  C_9 
REMARK    2  A    between atoms: N_3  and  C_4 
REMARK       I    between atoms: N_3  and  C_10 
ROOT
HETATM    1  C   UNK N   1      35.222  11.720  16.291  0.00  0.00     0.034 A 
HETATM    2  C   UNK N   1      35.376  10.825  17.363  0.00  0.00     0.032 A 
HETATM    3  C   UNK N   1      35.087  13.089  16.561  0.00  0.00     0.032 A 
HETATM    4  C   UNK N   1      35.393  11.289  18.678  0.00  0.00     0.039 A 
HETATM    5  C   UNK N   1      35.104  13.555  17.879  0.00  0.00     0.039 A 
HETATM    6  C   UNK N   1      35.257  12.654  18.939  0.00  0.00     0.065 A 
ENDROOT
BRANCH   1   7
HETATM    7  N   UNK N   1      35.200  11.280  14.935  0.00  0.00    -0.328 N 
HETATM    8  C   UNK N   1      34.099  10.860  14.254  0.00  0.00     0.218 C 
HETATM    9  O   UNK N   1      32.997  10.828  14.779  0.00  0.00    -0.274 OA
HETATM   10  C   UNK N   1      34.239  10.429  12.835  0.00  0.00     0.117 C 
HETATM   11  H   UNK N   1      36.056  11.279  14.448  0.00  0.00     0.169 HD
ENDBRANCH   1   7
BRANCH   6  12
HETATM   12  O   UNK N   1      35.274  13.100  20.204  0.00  0.00    -0.361 OA
HETATM   13  H   UNK N   1      34.675  13.769  20.474  0.00  0.00     0.217 HD
ENDBRANCH   6  12
TORSDOF 2
ENDMDL
MODEL 2
REMARK VINA RESULT:      -4.8     26.579     27.419
REMARK  2 active torsions:
REMARK  status: ('A' for Active; 'I' for Inactive)
REMARK    1  A    between atoms: O_1  and  C_9 
REMARK    2  A    between atoms: N_3  and  C_4 
REMARK       I    between atoms: N_3  and  C_10 
ROOT
HETATM    1  C   UNK N   1      25.608  25.254  -5.189  0.00  0.00     0.034 A 
HETATM    2  C   UNK N   1      26.294  25.379  -3.970  0.00  0.00     0.032 A 
HETATM    3  C   UNK N   1      25.006  26.388  -5.751  0.00  0.00     0.032 A 
HETATM    4  C   UNK N   1      26.377  26.613  -3.325  0.00  0.00     0.039 A 
HETATM    5  C   UNK N   1      25.089  27.626  -5.106  0.00  0.00     0.039 A 
HETATM    6  C   UNK N   1      25.774  27.739  -3.892  0.00  0.00     0.065 A 
ENDROOT
BRANCH   1   7
HETATM    7  N   UNK N   1      25.504  24.008  -5.875  0.00  0.00    -0.328 N 
HETATM    8  C   UNK N   1      26.399  23.521  -6.777  0.00  0.00     0.218 C 
HETATM    9  O   UNK N   1      27.404  24.145  -7.081  0.00  0.00    -0.274 OA
HETATM   10  C   UNK N   1      26.148  22.196  -7.411  0.00  0.00     0.117 C 
HETATM   11  H   UNK N   1      24.716  23.451  -5.678  0.00  0.00     0.169 HD
ENDBRANCH   1   7
BRANCH   6  12
HETATM   12  O   UNK N   1      25.855  28.926  -3.271  0.00  0.00    -0.361 OA
HETATM   13  H   UNK N   1      25.675  29.715  -3.744  0.00  0.00     0.217 HD
ENDBRANCH   6  12
TORSDOF 2
ENDMDL
MODEL 3
REMARK VINA RESULT:      -4.7      2.576      2.735
REMARK  2 active torsions:
REMARK  status: ('A' for Active; 'I' for Inactive)
REMARK    1  A    between atoms: O_1  and  C_9 
REMARK    2  A    between atoms: N_3  and  C_4 
REMARK       I    between atoms: N_3  and  C_10 
ROOT
HETATM    1  C   UNK N   1      35.420  12.705  16.786  0.00  0.00     0.034 A 
HETATM    2  C   UNK N   1      35.704  11.356  17.055  0.00  0.00     0.032 A 
HETATM    3  C   UNK N   1      35.130  13.566  17.854  0.00  0.00     0.032 A 
HETATM    4  C   UNK N   1      35.699  10.877  18.365  0.00  0.00     0.039 A 
HETATM    5  C   UNK N   1      35.125  13.087  19.167  0.00  0.00     0.039 A 
HETATM    6  C   UNK N   1      35.410  11.741  19.423  0.00  0.00     0.065 A 
ENDROOT
BRANCH   1   7
HETATM    7  N   UNK N   1      35.416  13.228  15.460  0.00  0.00    -0.328 N 
HETATM    8  C   UNK N   1      36.417  13.952  14.888  0.00  0.00     0.218 C 
HETATM    9  O   UNK N   1      37.441  14.219  15.498  0.00  0.00    -0.274 OA
HETATM   10  C   UNK N   1      36.263  14.430  13.485  0.00  0.00     0.117 C 
HETATM   11  H   UNK N   1      34.620  13.050  14.908  0.00  0.00     0.169 HD
ENDBRANCH   1   7
BRANCH   6  12
HETATM   12  O   UNK N   1      35.406  11.280  20.684  0.00  0.00    -0.361 OA
HETATM   13  H   UNK N   1      34.897  11.714  21.340  0.00  0.00     0.217 HD
ENDBRANCH   6  12
TORSDOF 2
ENDMDL
MODEL 4
REMARK VINA RESULT:      -4.7     18.573     20.532
REMARK  2 active torsions:
REMARK  status: ('A' for Active; 'I' for Inactive)
REMARK    1  A    between atoms: O_1  and  C_9 
REMARK    2  A    between atoms: N_3  and  C_4 
REMARK       I    between atoms: N_3  and  C_10 
ROOT
HETATM    1  C   UNK N   1      22.441  19.364   3.421  0.00  0.00     0.034 A 
HETATM    2  C   UNK N   1      21.628  20.408   2.951  0.00  0.00     0.032 A 
HETATM    3  C   UNK N   1      21.892  18.081   3.556  0.00  0.00     0.032 A 
HETATM    4  C   UNK N   1      20.292  20.175   2.621  0.00  0.00     0.039 A 
HETATM    5  C   UNK N   1      20.553  17.846   3.226  0.00  0.00     0.039 A 
HETATM    6  C   UNK N   1      19.753  18.894   2.758  0.00  0.00     0.065 A 
ENDROOT
BRANCH   1   7
HETATM    7  N   UNK N   1      23.809  19.567   3.767  0.00  0.00    -0.328 N 
HETATM    8  C   UNK N   1      24.724  20.248   3.024  0.00  0.00     0.218 C 
HETATM    9  O   UNK N   1      24.425  20.759   1.956  0.00  0.00    -0.274 OA
HETATM   10  C   UNK N   1      26.122  20.374   3.523  0.00  0.00     0.117 C 
HETATM   11  H   UNK N   1      24.120  19.182   4.618  0.00  0.00     0.169 HD
ENDBRANCH   1   7
BRANCH   6  12
HETATM   12  O   UNK N   1      18.468  18.670   2.441  0.00  0.00    -0.361 OA
HETATM   13  H   UNK N   1      18.203  17.827   2.128  0.00  0.00     0.217 HD
ENDBRANCH   6  12
TORSDOF 2
ENDMDL
MODEL 5
REMARK VINA RESULT:      -4.6     26.395     27.502
REMARK  2 active torsions:
REMARK  status: ('A' for Active; 'I' for Inactive)
REMARK    1  A    between atoms: O_1  and  C_9 
REMARK    2  A    between atoms: N_3  and  C_4 
REMARK       I    between atoms: N_3  and  C_10 
ROOT
HETATM    1  C   UNK N   1      26.218  27.399  -3.606  0.00  0.00     0.034 A 
HETATM    2  C   UNK N   1      26.608  26.058  -3.452  0.00  0.00     0.032 A 
HETATM    3  C   UNK N   1      25.452  27.762  -4.722  0.00  0.00     0.032 A 
HETATM    4  C   UNK N   1      26.240  25.099  -4.397  0.00  0.00     0.039 A 
HETATM    5  C   UNK N   1      25.083  26.802  -5.669  0.00  0.00     0.039 A 
HETATM    6  C   UNK N   1      25.477  25.469  -5.506  0.00  0.00     0.065 A 
ENDROOT
BRANCH   1   7
HETATM    7  N   UNK N   1      26.576  28.404  -2.660  0.00  0.00    -0.328 N 
HETATM    8  C   UNK N   1      27.733  29.122  -2.664  0.00  0.00     0.218 C 
HETATM    9  O   UNK N   1      28.589  28.949  -3.518  0.00  0.00    -0.274 OA
HETATM   10  C   UNK N   1      27.962  30.142  -1.603  0.00  0.00     0.117 C 
HETATM   11  H   UNK N   1      25.931  28.596  -1.941  0.00  0.00     0.169 HD
ENDBRANCH   1   7
BRANCH   6  12
HETATM   12  O   UNK N   1      25.123  24.546  -6.414  0.00  0.00    -0.361 OA
HETATM   13  H   UNK N   1      24.419  24.719  -7.008  0.00  0.00     0.217 HD
ENDBRANCH   6  12
TORSDOF 2
ENDMDL
MODEL 6
REMARK VINA RESULT:      -4.5      2.839      3.347
REMARK  2 active torsions:
REMARK  status: ('A' for Active; 'I' for Inactive)
REMARK    1  A    between atoms: O_1  and  C_9 
REMARK    2  A    between atoms: N_3  and  C_4 
REMARK       I    between atoms: N_3  and  C_10 
ROOT
HETATM    1  C   UNK N   1      36.702  13.635  15.265  0.00  0.00     0.034 A 
HETATM    2  C   UNK N   1      37.172  14.824  15.847  0.00  0.00     0.032 A 
HETATM    3  C   UNK N   1      35.707  12.901  15.925  0.00  0.00     0.032 A 
HETATM    4  C   UNK N   1      36.656  15.271  17.064  0.00  0.00     0.039 A 
HETATM    5  C   UNK N   1      35.190  13.348  17.145  0.00  0.00     0.039 A 
HETATM    6  C   UNK N   1      35.665  14.534  17.715  0.00  0.00     0.065 A 
ENDROOT
BRANCH   1   7
HETATM    7  N   UNK N   1      37.207  13.149  14.023  0.00  0.00    -0.328 N 
HETATM    8  C   UNK N   1      36.678  13.408  12.796  0.00  0.00     0.218 C 
HETATM    9  O   UNK N   1      35.686  14.107  12.662  0.00  0.00    -0.274 OA
HETATM   10  C   UNK N   1      37.323  12.824  11.586  0.00  0.00     0.117 C 
HETATM   11  H   UNK N   1      38.008  12.577  14.055  0.00  0.00     0.169 HD
ENDBRANCH   1   7
BRANCH   6  12
HETATM   12  O   UNK N   1      35.170  14.964  18.886  0.00  0.00    -0.361 OA
HETATM   13  H   UNK N   1      34.295  15.300  18.930  0.00  0.00     0.217 HD
ENDBRANCH   6  12
TORSDOF 2
ENDMDL
MODEL 7
REMARK VINA RESULT:      -4.4      1.209      1.885
REMARK  2 active torsions:
REMARK  status: ('A' for Active; 'I' for Inactive)
REMARK    1  A    between atoms: O_1  and  C_9 
REMARK    2  A    between atoms: N_3  and  C_4 
REMARK       I    between atoms: N_3  and  C_10 
ROOT
HETATM    1  C   UNK N   1      35.857  12.361  16.344  0.00  0.00     0.034 A 
HETATM    2  C   UNK N   1      35.672  13.682  16.786  0.00  0.00     0.032 A 
HETATM    3  C   UNK N   1      35.685  11.308  17.253  0.00  0.00     0.032 A 
HETATM    4  C   UNK N   1      35.322  13.944  18.111  0.00  0.00     0.039 A 
HETATM    5  C   UNK N   1      35.334  11.570  18.581  0.00  0.00     0.039 A 
HETATM    6  C   UNK N   1      35.152  12.889  19.010  0.00  0.00     0.065 A 
ENDROOT
BRANCH   1   7
HETATM    7  N   UNK N   1      36.215  12.058  14.998  0.00  0.00    -0.328 N 
HETATM    8  C   UNK N   1      35.370  12.064  13.930  0.00  0.00     0.218 C 
HETATM    9  O   UNK N   1      34.188  12.343  14.054  0.00  0.00    -0.274 OA
HETATM   10  C   UNK N   1      35.898  11.722  12.580  0.00  0.00     0.117 C 
HETATM   11  H   UNK N   1      37.155  11.823  14.824  0.00  0.00     0.169 HD
ENDBRANCH   1   7
BRANCH   6  12
HETATM   12  O   UNK N   1      34.816  13.142  20.285  0.00  0.00    -0.361 OA
HETATM   13  H   UNK N   1      34.334  13.918  20.497  0.00  0.00     0.217 HD
ENDBRANCH   6  12
TORSDOF 2
ENDMDL
MODEL 8
REMARK VINA RESULT:      -4.4      9.865     11.853
REMARK  2 active torsions:
REMARK  status: ('A' for Active; 'I' for Inactive)
REMARK    1  A    between atoms: O_1  and  C_9 
REMARK    2  A    between atoms: N_3  and  C_4 
REMARK       I    between atoms: N_3  and  C_10 
ROOT
HETATM    1  C   UNK N   1      30.974  17.415   8.434  0.00  0.00     0.034 A 
HETATM    2  C   UNK N   1      30.508  16.960   7.189  0.00  0.00     0.032 A 
HETATM    3  C   UNK N   1      30.187  18.310   9.170  0.00  0.00     0.032 A 
HETATM    4  C   UNK N   1      29.279  17.392   6.691  0.00  0.00     0.039 A 
HETATM    5  C   UNK N   1      28.954  18.743   8.672  0.00  0.00     0.039 A 
HETATM    6  C   UNK N   1      28.500  18.284   7.431  0.00  0.00     0.065 A 
ENDROOT
BRANCH   1   7
HETATM    7  N   UNK N   1      32.225  16.993   8.973  0.00  0.00    -0.328 N 
HETATM    8  C   UNK N   1      33.440  17.532   8.676  0.00  0.00     0.218 C 
HETATM    9  O   UNK N   1      33.552  18.459   7.890  0.00  0.00    -0.274 OA
HETATM   10  C   UNK N   1      34.662  16.979   9.325  0.00  0.00     0.117 C 
HETATM   11  H   UNK N   1      32.211  16.248   9.616  0.00  0.00     0.169 HD
ENDBRANCH   1   7
BRANCH   6  12
HETATM   12  O   UNK N   1      27.318  18.699   6.951  0.00  0.00    -0.361 OA
HETATM   13  H   UNK N   1      27.250  18.995   6.064  0.00  0.00     0.217 HD
ENDBRANCH   6  12
TORSDOF 2
ENDMDL
MODEL 9
REMARK VINA RESULT:      -4.3      8.815     11.181
REMARK  2 active torsions:
REMARK  status: ('A' for Active; 'I' for Inactive)
REMARK    1  A    between atoms: O_1  and  C_9 
REMARK    2  A    between atoms: N_3  and  C_4 
REMARK       I    between atoms: N_3  and  C_10 
ROOT
HETATM    1  C   UNK N   1      33.371  17.284   8.260  0.00  0.00     0.034 A 
HETATM    2  C   UNK N   1      31.978  17.110   8.253  0.00  0.00     0.032 A 
HETATM    3  C   UNK N   1      34.040  17.474   7.043  0.00  0.00     0.032 A 
HETATM    4  C   UNK N   1      31.266  17.123   7.053  0.00  0.00     0.039 A 
HETATM    5  C   UNK N   1      33.328  17.488   5.839  0.00  0.00     0.039 A 
HETATM    6  C   UNK N   1      31.940  17.312   5.844  0.00  0.00     0.065 A 
ENDROOT
BRANCH   1   7
HETATM    7  N   UNK N   1      34.129  17.276   9.468  0.00  0.00    -0.328 N 
HETATM    8  C   UNK N   1      34.762  16.195  10.001  0.00  0.00     0.218 C 
HETATM    9  O   UNK N   1      34.726  15.102   9.458  0.00  0.00    -0.274 OA
HETATM   10  C   UNK N   1      35.517  16.347  11.276  0.00  0.00     0.117 C 
HETATM   11  H   UNK N   1      34.201  18.126   9.960  0.00  0.00     0.169 HD
ENDBRANCH   1   7
BRANCH   6  12
HETATM   12  O   UNK N   1      31.255  17.325   4.690  0.00  0.00    -0.361 OA
HETATM   13  H   UNK N   1      31.697  17.153   3.881  0.00  0.00     0.217 HD
ENDBRANCH   6  12
TORSDOF 2
ENDMDL
