REMARK  2 active torsions:
REMARK  status: ('A' for Active; 'I' for Inactive)
REMARK    1  A    between atoms: O_1  and  C_9 
REMARK    2  A    between atoms: N_3  and  C_4 
REMARK       I    between atoms: N_3  and  C_10 
ROOT
HETATM    1  C   UNK N   1       2.207   0.446   0.000  0.00  0.00     0.034 A 
HETATM    2  C   UNK N   1       3.349  -0.372   0.000  0.00  0.00     0.032 A 
HETATM    3  C   UNK N   1       0.940  -0.153  -0.000  0.00  0.00     0.032 A 
HETATM    4  C   UNK N   1       3.226  -1.762   0.000  0.00  0.00     0.039 A 
HETATM    5  C   UNK N   1       0.816  -1.546  -0.000  0.00  0.00     0.039 A 
HETATM    6  C   UNK N   1       1.960  -2.351  -0.000  0.00  0.00     0.065 A 
ENDROOT
BRANCH   1   7
HETATM    7  N   UNK N   1       2.296   1.869   0.000  0.00  0.00    -0.328 N 
HETATM    8  C   UNK N   1       3.449   2.593   0.000  0.00  0.00     0.218 C 
HETATM    9  O   UNK N   1       4.543   2.051  -0.000  0.00  0.00    -0.274 OA
HETATM   10  C   UNK N   1       3.376   4.081   0.000  0.00  0.00     0.117 C 
HETATM   11  H   UNK N   1       1.450   2.373   0.000  0.00  0.00     0.169 HD
ENDBRANCH   1   7
BRANCH   6  12
HETATM   12  O   UNK N   1       1.843  -3.688  -0.000  0.00  0.00    -0.361 OA
HETATM   13  H   UNK N   1       0.993  -4.084  -0.000  0.00  0.00     0.217 HD
ENDBRANCH   6  12
TORSDOF 2
