MODEL 1
REMARK VINA RESULT:      -6.9      0.000      0.000
REMARK  8 active torsions:
REMARK  status: ('A' for Active; 'I' for Inactive)
REMARK    1  A    between atoms: O_4  and  C_18 
REMARK    2  A    between atoms: O_4  and  C_19 
REMARK    3  A    between atoms: O_5  and  C_22 
REMARK    4  A    between atoms: N_6  and  C_12 
REMARK    5  A    between atoms: N_7  and  C_25 
REMARK    6  A    between atoms: N_7  and  C_26 
REMARK    7  A    between atoms: C_12  and  C_15 
REMARK    8  A    between atoms: C_15  and  C_18 
ROOT
HETATM    1  N   UNK N   1      29.865  17.962   9.687  0.00  0.00    -0.351 N 
ATOM      2  HN  UNK N   1      30.336  18.115  10.578  1.00  0.00     0.166 HD
HETATM    3  N   UNK N   1      27.858  17.860   8.427  0.00  0.00    -0.338 N 
ATOM      4  HN  UNK N   1      26.842  17.938   8.383  1.00  0.00     0.168 HD
HETATM    5  C   UNK N   1      32.047  17.022   6.254  0.00  0.00     0.103 A 
HETATM    6  C   UNK N   1      29.945  17.449   7.365  0.00  0.00     0.038 A 
HETATM    7  C   UNK N   1      30.670  17.139   6.224  0.00  0.00     0.057 A 
HETATM    8  C   UNK N   1      32.738  17.222   7.480  0.00  0.00     0.103 A 
HETATM    9  C   UNK N   1      30.597  17.656   8.584  0.00  0.00     0.050 A 
HETATM   10  C   UNK N   1      31.993  17.542   8.643  0.00  0.00     0.070 A 
HETATM   11  C   UNK N   1      28.560  17.554   7.303  0.00  0.00     0.119 A 
HETATM   12  C   UNK N   1      28.505  18.066   9.612  0.00  0.00     0.182 A 
ENDROOT
BRANCH   5  13
HETATM   13  O   UNK N   1      32.647  16.722   5.079  0.00  0.00    -0.348 OA
BRANCH  13  14
HETATM   14  C   UNK N   1      32.757  17.534   3.985  0.00  0.00     0.177 C 
BRANCH  14  15
HETATM   15  C   UNK N   1      32.009  16.877   2.850  0.00  0.00     0.057 C 
BRANCH  15  16
HETATM   16  C   UNK N   1      31.962  15.385   3.082  0.00  0.00     0.274 C 
BRANCH  16  17
HETATM   17  N   UNK N   1      30.602  14.902   2.925  0.00  0.00     0.092 N 
HETATM   18  C   UNK N   1      30.273  14.169   4.147  0.00  0.00     0.298 C 
HETATM   19  C   UNK N   1      28.792  13.791   4.124  0.00  0.00     0.198 C 
HETATM   20  O   UNK N   1      28.016  14.963   4.084  0.00  0.00    -0.388 OA
HETATM   21  C   UNK N   1      28.254  15.564   2.835  0.00  0.00     0.198 C 
HETATM   22  C   UNK N   1      29.703  16.053   2.780  0.00  0.00     0.298 C 
ENDBRANCH  16  17
ENDBRANCH  15  16
ENDBRANCH  14  15
ENDBRANCH  13  14
ENDBRANCH   5  13
BRANCH   8  23
HETATM   23  O   UNK N   1      34.088  17.112   7.526  0.00  0.00    -0.353 OA
HETATM   24  C   UNK N   1      34.744  16.023   8.052  0.00  0.00     0.210 C 
ENDBRANCH   8  23
BRANCH  11  25
HETATM   25  N   UNK N   1      27.937  17.323   6.046  0.00  0.00    -0.342 N 
HETATM   26  H   UNK N   1      27.979  16.393   5.729  0.00  0.00     0.167 HD
BRANCH  25  27
HETATM   27  C   UNK N   1      27.267  18.213   5.178  0.00  0.00     0.035 A 
HETATM   28  C   UNK N   1      25.904  17.998   4.971  0.00  0.00     0.056 A 
HETATM   29  C   UNK N   1      25.171  18.827   4.131  0.00  0.00     0.074 A 
HETATM   30 Cl   UNK N   1      23.459  18.516   3.903  0.00  0.00    -0.081 Cl
HETATM   31  C   UNK N   1      25.805  19.890   3.481  0.00  0.00     0.138 A 
HETATM   32  F   UNK N   1      25.101  20.704   2.656  0.00  0.00    -0.204 F 
HETATM   33  C   UNK N   1      27.175  20.115   3.682  0.00  0.00     0.046 A 
HETATM   34  C   UNK N   1      27.910  19.276   4.532  0.00  0.00     0.032 A 
ENDBRANCH  25  27
ENDBRANCH  11  25
TORSDOF 8
ENDMDL
MODEL 2
REMARK VINA RESULT:      -6.6      6.721     10.122
REMARK  8 active torsions:
REMARK  status: ('A' for Active; 'I' for Inactive)
REMARK    1  A    between atoms: O_4  and  C_18 
REMARK    2  A    between atoms: O_4  and  C_19 
REMARK    3  A    between atoms: O_5  and  C_22 
REMARK    4  A    between atoms: N_6  and  C_12 
REMARK    5  A    between atoms: N_7  and  C_25 
REMARK    6  A    between atoms: N_7  and  C_26 
REMARK    7  A    between atoms: C_12  and  C_15 
REMARK    8  A    between atoms: C_15  and  C_18 
ROOT
HETATM    1  N   UNK N   1      37.925  12.716   8.965  0.00  0.00    -0.351 N 
ATOM      2  HN  UNK N   1      38.224  12.284   8.091  1.00  0.00     0.166 HD
HETATM    3  N   UNK N   1      38.184  12.979  11.308  0.00  0.00    -0.338 N 
ATOM      4  HN  UNK N   1      38.675  12.743  12.171  1.00  0.00     0.168 HD
HETATM    5  C   UNK N   1      34.734  15.407   9.034  0.00  0.00     0.103 A 
HETATM    6  C   UNK N   1      36.480  14.177  10.164  0.00  0.00     0.038 A 
HETATM    7  C   UNK N   1      35.421  15.073  10.186  0.00  0.00     0.057 A 
HETATM    8  C   UNK N   1      35.119  14.820   7.798  0.00  0.00     0.103 A 
HETATM    9  C   UNK N   1      36.884  13.588   8.962  0.00  0.00     0.050 A 
HETATM   10  C   UNK N   1      36.203  13.908   7.779  0.00  0.00     0.070 A 
HETATM   11  C   UNK N   1      37.146  13.856  11.341  0.00  0.00     0.119 A 
HETATM   12  C   UNK N   1      38.574  12.413  10.128  0.00  0.00     0.182 A 
ENDROOT
BRANCH   5  13
HETATM   13  O   UNK N   1      33.724  16.295   9.177  0.00  0.00    -0.348 OA
BRANCH  13  14
HETATM   14  C   UNK N   1      33.691  17.580   8.711  0.00  0.00     0.177 C 
BRANCH  14  15
HETATM   15  C   UNK N   1      32.258  17.903   8.363  0.00  0.00     0.057 C 
BRANCH  15  16
HETATM   16  C   UNK N   1      31.400  16.683   8.598  0.00  0.00     0.274 C 
BRANCH  16  17
HETATM   17  N   UNK N   1      30.014  16.984   8.290  0.00  0.00     0.092 N 
HETATM   18  C   UNK N   1      29.634  18.117   9.133  0.00  0.00     0.298 C 
HETATM   19  C   UNK N   1      28.243  18.602   8.726  0.00  0.00     0.198 C 
HETATM   20  O   UNK N   1      28.276  19.034   7.388  0.00  0.00    -0.388 OA
HETATM   21  C   UNK N   1      28.504  17.891   6.600  0.00  0.00     0.198 C 
HETATM   22  C   UNK N   1      29.914  17.362   6.877  0.00  0.00     0.298 C 
ENDBRANCH  16  17
ENDBRANCH  15  16
ENDBRANCH  14  15
ENDBRANCH  13  14
ENDBRANCH   5  13
BRANCH   8  23
HETATM   23  O   UNK N   1      34.456  15.138   6.659  0.00  0.00    -0.353 OA
HETATM   24  C   UNK N   1      35.061  15.222   5.426  0.00  0.00     0.210 C 
ENDBRANCH   8  23
BRANCH  11  25
HETATM   25  N   UNK N   1      36.695  14.470  12.542  0.00  0.00    -0.342 N 
HETATM   26  H   UNK N   1      36.695  15.453  12.529  0.00  0.00     0.167 HD
BRANCH  25  27
HETATM   27  C   UNK N   1      36.247  13.896  13.751  0.00  0.00     0.035 A 
HETATM   28  C   UNK N   1      35.292  12.882  13.661  0.00  0.00     0.056 A 
HETATM   29  C   UNK N   1      34.797  12.265  14.804  0.00  0.00     0.074 A 
HETATM   30 Cl   UNK N   1      33.597  10.996  14.639  0.00  0.00    -0.081 Cl
HETATM   31  C   UNK N   1      35.257  12.665  16.062  0.00  0.00     0.138 A 
HETATM   32  F   UNK N   1      34.780  12.073  17.184  0.00  0.00    -0.204 F 
HETATM   33  C   UNK N   1      36.217  13.683  16.163  0.00  0.00     0.046 A 
HETATM   34  C   UNK N   1      36.714  14.302  15.007  0.00  0.00     0.032 A 
ENDBRANCH  25  27
ENDBRANCH  11  25
TORSDOF 8
ENDMDL
MODEL 3
REMARK VINA RESULT:      -6.4      5.238      9.025
REMARK  8 active torsions:
REMARK  status: ('A' for Active; 'I' for Inactive)
REMARK    1  A    between atoms: O_4  and  C_18 
REMARK    2  A    between atoms: O_4  and  C_19 
REMARK    3  A    between atoms: O_5  and  C_22 
REMARK    4  A    between atoms: N_6  and  C_12 
REMARK    5  A    between atoms: N_7  and  C_25 
REMARK    6  A    between atoms: N_7  and  C_26 
REMARK    7  A    between atoms: C_12  and  C_15 
REMARK    8  A    between atoms: C_15  and  C_18 
ROOT
HETATM    1  N   UNK N   1      24.986  20.582   2.804  0.00  0.00    -0.351 N 
ATOM      2  HN  UNK N   1      24.637  21.191   2.065  1.00  0.00     0.166 HD
HETATM    3  N   UNK N   1      26.807  19.744   4.073  0.00  0.00    -0.338 N 
ATOM      4  HN  UNK N   1      27.807  19.732   4.274  1.00  0.00     0.168 HD
HETATM    5  C   UNK N   1      22.378  18.153   4.979  0.00  0.00     0.103 A 
HETATM    6  C   UNK N   1      24.604  18.968   4.510  0.00  0.00     0.038 A 
HETATM    7  C   UNK N   1      23.737  18.163   5.234  0.00  0.00     0.057 A 
HETATM    8  C   UNK N   1      21.855  18.985   3.952  0.00  0.00     0.103 A 
HETATM    9  C   UNK N   1      24.118  19.800   3.498  0.00  0.00     0.050 A 
HETATM   10  C   UNK N   1      22.744  19.809   3.217  0.00  0.00     0.070 A 
HETATM   11  C   UNK N   1      25.966  18.950   4.786  0.00  0.00     0.119 A 
HETATM   12  C   UNK N   1      26.322  20.558   3.089  0.00  0.00     0.182 A 
ENDROOT
BRANCH   5  13
HETATM   13  O   UNK N   1      21.631  17.333   5.753  0.00  0.00    -0.348 OA
BRANCH  13  14
HETATM   14  C   UNK N   1      20.865  17.692   6.827  0.00  0.00     0.177 C 
BRANCH  14  15
HETATM   15  C   UNK N   1      20.826  16.517   7.774  0.00  0.00     0.057 C 
BRANCH  15  16
HETATM   16  C   UNK N   1      21.570  15.356   7.159  0.00  0.00     0.274 C 
BRANCH  16  17
HETATM   17  N   UNK N   1      21.405  14.170   7.980  0.00  0.00     0.092 N 
HETATM   18  C   UNK N   1      22.748  13.652   8.242  0.00  0.00     0.298 C 
HETATM   19  C   UNK N   1      22.657  12.510   9.254  0.00  0.00     0.198 C 
HETATM   20  O   UNK N   1      22.126  13.001  10.460  0.00  0.00    -0.388 OA
HETATM   21  C   UNK N   1      20.791  13.357  10.198  0.00  0.00     0.198 C 
HETATM   22  C   UNK N   1      20.766  14.554   9.244  0.00  0.00     0.298 C 
ENDBRANCH  16  17
ENDBRANCH  15  16
ENDBRANCH  14  15
ENDBRANCH  13  14
ENDBRANCH   5  13
BRANCH   8  23
HETATM   23  O   UNK N   1      20.525  18.988   3.691  0.00  0.00    -0.353 OA
HETATM   24  C   UNK N   1      19.944  18.233   2.699  0.00  0.00     0.210 C 
ENDBRANCH   8  23
BRANCH  11  25
HETATM   25  N   UNK N   1      26.418  18.079   5.816  0.00  0.00    -0.342 N 
HETATM   26  H   UNK N   1      25.704  17.608   6.302  0.00  0.00     0.167 HD
BRANCH  25  27
HETATM   27  C   UNK N   1      27.726  17.783   6.256  0.00  0.00     0.035 A 
HETATM   28  C   UNK N   1      28.117  18.299   7.493  0.00  0.00     0.056 A 
HETATM   29  C   UNK N   1      29.388  18.056   7.998  0.00  0.00     0.074 A 
HETATM   30 Cl   UNK N   1      29.831  18.727   9.557  0.00  0.00    -0.081 Cl
HETATM   31  C   UNK N   1      30.291  17.285   7.259  0.00  0.00     0.138 A 
HETATM   32  F   UNK N   1      31.535  17.043   7.741  0.00  0.00    -0.204 F 
HETATM   33  C   UNK N   1      29.909  16.762   6.016  0.00  0.00     0.046 A 
HETATM   34  C   UNK N   1      28.625  17.010   5.511  0.00  0.00     0.032 A 
ENDBRANCH  25  27
ENDBRANCH  11  25
TORSDOF 8
ENDMDL
MODEL 4
REMARK VINA RESULT:      -6.3      5.418      9.115
REMARK  8 active torsions:
REMARK  status: ('A' for Active; 'I' for Inactive)
REMARK    1  A    between atoms: O_4  and  C_18 
REMARK    2  A    between atoms: O_4  and  C_19 
REMARK    3  A    between atoms: O_5  and  C_22 
REMARK    4  A    between atoms: N_6  and  C_12 
REMARK    5  A    between atoms: N_7  and  C_25 
REMARK    6  A    between atoms: N_7  and  C_26 
REMARK    7  A    between atoms: C_12  and  C_15 
REMARK    8  A    between atoms: C_15  and  C_18 
ROOT
HETATM    1  N   UNK N   1      19.309  17.000   3.487  0.00  0.00    -0.351 N 
ATOM      2  HN  UNK N   1      18.540  17.143   2.833  1.00  0.00     0.166 HD
HETATM    3  N   UNK N   1      20.288  15.749   5.249  0.00  0.00    -0.338 N 
ATOM      4  HN  UNK N   1      20.245  14.966   5.901  1.00  0.00     0.168 HD
HETATM    5  C   UNK N   1      22.592  19.580   3.519  0.00  0.00     0.103 A 
HETATM    6  C   UNK N   1      21.418  17.651   4.378  0.00  0.00     0.038 A 
HETATM    7  C   UNK N   1      22.509  18.506   4.386  0.00  0.00     0.057 A 
HETATM    8  C   UNK N   1      21.535  19.814   2.597  0.00  0.00     0.103 A 
HETATM    9  C   UNK N   1      20.366  17.854   3.479  0.00  0.00     0.050 A 
HETATM   10  C   UNK N   1      20.424  18.936   2.589  0.00  0.00     0.070 A 
HETATM   11  C   UNK N   1      21.361  16.584   5.267  0.00  0.00     0.119 A 
HETATM   12  C   UNK N   1      19.268  15.953   4.364  0.00  0.00     0.182 A 
ENDROOT
BRANCH   5  13
HETATM   13  O   UNK N   1      23.706  20.341   3.615  0.00  0.00    -0.348 OA
BRANCH  13  14
HETATM   14  C   UNK N   1      24.752  20.377   2.736  0.00  0.00     0.177 C 
BRANCH  14  15
HETATM   15  C   UNK N   1      25.982  19.901   3.470  0.00  0.00     0.057 C 
BRANCH  15  16
HETATM   16  C   UNK N   1      26.054  20.581   4.816  0.00  0.00     0.274 C 
BRANCH  16  17
HETATM   17  N   UNK N   1      26.466  19.629   5.832  0.00  0.00     0.092 N 
HETATM   18  C   UNK N   1      26.887  18.419   5.126  0.00  0.00     0.298 C 
HETATM   19  C   UNK N   1      27.506  17.443   6.126  0.00  0.00     0.198 C 
HETATM   20  O   UNK N   1      28.640  18.035   6.710  0.00  0.00    -0.388 OA
HETATM   21  C   UNK N   1      28.178  19.109   7.492  0.00  0.00     0.198 C 
HETATM   22  C   UNK N   1      27.600  20.189   6.575  0.00  0.00     0.298 C 
ENDBRANCH  16  17
ENDBRANCH  15  16
ENDBRANCH  14  15
ENDBRANCH  13  14
ENDBRANCH   5  13
BRANCH   8  23
HETATM   23  O   UNK N   1      21.602  20.862   1.739  0.00  0.00    -0.353 OA
HETATM   24  C   UNK N   1      20.780  21.001   0.645  0.00  0.00     0.210 C 
ENDBRANCH   8  23
BRANCH  11  25
HETATM   25  N   UNK N   1      22.447  16.422   6.172  0.00  0.00    -0.342 N 
HETATM   26  H   UNK N   1      22.985  17.232   6.320  0.00  0.00     0.167 HD
BRANCH  25  27
HETATM   27  C   UNK N   1      22.878  15.287   6.892  0.00  0.00     0.035 A 
HETATM   28  C   UNK N   1      22.061  14.844   7.933  0.00  0.00     0.056 A 
HETATM   29  C   UNK N   1      22.413  13.735   8.693  0.00  0.00     0.074 A 
HETATM   30 Cl   UNK N   1      21.353  13.216   9.991  0.00  0.00    -0.081 Cl
HETATM   31  C   UNK N   1      23.602  13.053   8.414  0.00  0.00     0.138 A 
HETATM   32  F   UNK N   1      23.956  11.971   9.150  0.00  0.00    -0.204 F 
HETATM   33  C   UNK N   1      24.429  13.490   7.369  0.00  0.00     0.046 A 
HETATM   34  C   UNK N   1      24.069  14.609   6.606  0.00  0.00     0.032 A 
ENDBRANCH  25  27
ENDBRANCH  11  25
TORSDOF 8
ENDMDL
MODEL 5
REMARK VINA RESULT:      -6.2      5.832      8.465
REMARK  8 active torsions:
REMARK  status: ('A' for Active; 'I' for Inactive)
REMARK    1  A    between atoms: O_4  and  C_18 
REMARK    2  A    between atoms: O_4  and  C_19 
REMARK    3  A    between atoms: O_5  and  C_22 
REMARK    4  A    between atoms: N_6  and  C_12 
REMARK    5  A    between atoms: N_7  and  C_25 
REMARK    6  A    between atoms: N_7  and  C_26 
REMARK    7  A    between atoms: C_12  and  C_15 
REMARK    8  A    between atoms: C_15  and  C_18 
ROOT
HETATM    1  N   UNK N   1      20.598  16.891   6.109  0.00  0.00    -0.351 N 
ATOM      2  HN  UNK N   1      20.130  17.732   5.771  1.00  0.00     0.166 HD
HETATM    3  N   UNK N   1      20.501  14.826   7.273  0.00  0.00    -0.338 N 
ATOM      4  HN  UNK N   1      19.963  14.136   7.797  1.00  0.00     0.168 HD
HETATM    5  C   UNK N   1      24.661  16.269   5.377  0.00  0.00     0.103 A 
HETATM    6  C   UNK N   1      22.555  15.556   6.325  0.00  0.00     0.038 A 
HETATM    7  C   UNK N   1      23.904  15.348   6.080  0.00  0.00     0.057 A 
HETATM    8  C   UNK N   1      24.044  17.455   4.896  0.00  0.00     0.103 A 
HETATM    9  C   UNK N   1      21.921  16.711   5.859  0.00  0.00     0.050 A 
HETATM   10  C   UNK N   1      22.665  17.662   5.145  0.00  0.00     0.070 A 
HETATM   11  C   UNK N   1      21.824  14.615   7.039  0.00  0.00     0.119 A 
HETATM   12  C   UNK N   1      19.889  15.956   6.809  0.00  0.00     0.182 A 
ENDROOT
BRANCH   5  13
HETATM   13  O   UNK N   1      25.964  15.956   5.195  0.00  0.00    -0.348 OA
BRANCH  13  14
HETATM   14  C   UNK N   1      26.762  15.245   6.048  0.00  0.00     0.177 C 
BRANCH  14  15
HETATM   15  C   UNK N   1      28.197  15.577   5.714  0.00  0.00     0.057 C 
BRANCH  15  16
HETATM   16  C   UNK N   1      28.469  17.020   6.068  0.00  0.00     0.274 C 
BRANCH  16  17
HETATM   17  N   UNK N   1      29.002  17.109   7.416  0.00  0.00     0.092 N 
HETATM   18  C   UNK N   1      30.442  17.326   7.283  0.00  0.00     0.298 C 
HETATM   19  C   UNK N   1      31.037  17.612   8.662  0.00  0.00     0.198 C 
HETATM   20  O   UNK N   1      30.456  18.782   9.183  0.00  0.00    -0.388 OA
HETATM   21  C   UNK N   1      29.103  18.487   9.428  0.00  0.00     0.198 C 
HETATM   22  C   UNK N   1      28.388  18.256   8.094  0.00  0.00     0.298 C 
ENDBRANCH  16  17
ENDBRANCH  15  16
ENDBRANCH  14  15
ENDBRANCH  13  14
ENDBRANCH   5  13
BRANCH   8  23
HETATM   23  O   UNK N   1      24.772  18.367   4.205  0.00  0.00    -0.353 OA
HETATM   24  C   UNK N   1      25.359  19.467   4.785  0.00  0.00     0.210 C 
ENDBRANCH   8  23
BRANCH  11  25
HETATM   25  N   UNK N   1      22.512  13.460   7.505  0.00  0.00    -0.342 N 
HETATM   26  H   UNK N   1      22.918  12.909   6.798  0.00  0.00     0.167 HD
BRANCH  25  27
HETATM   27  C   UNK N   1      22.705  12.975   8.816  0.00  0.00     0.035 A 
HETATM   28  C   UNK N   1      21.565  12.772   9.596  0.00  0.00     0.056 A 
HETATM   29  C   UNK N   1      21.667  12.298  10.898  0.00  0.00     0.074 A 
HETATM   30 Cl   UNK N   1      20.206  12.057  11.838  0.00  0.00    -0.081 Cl
HETATM   31  C   UNK N   1      22.928  12.024  11.439  0.00  0.00     0.138 A 
HETATM   32  F   UNK N   1      23.040  11.564  12.709  0.00  0.00    -0.204 F 
HETATM   33  C   UNK N   1      24.079  12.225  10.663  0.00  0.00     0.046 A 
HETATM   34  C   UNK N   1      23.970  12.702   9.350  0.00  0.00     0.032 A 
ENDBRANCH  25  27
ENDBRANCH  11  25
TORSDOF 8
ENDMDL
MODEL 6
REMARK VINA RESULT:      -6.2      6.900     10.245
REMARK  8 active torsions:
REMARK  status: ('A' for Active; 'I' for Inactive)
REMARK    1  A    between atoms: O_4  and  C_18 
REMARK    2  A    between atoms: O_4  and  C_19 
REMARK    3  A    between atoms: O_5  and  C_22 
REMARK    4  A    between atoms: N_6  and  C_12 
REMARK    5  A    between atoms: N_7  and  C_25 
REMARK    6  A    between atoms: N_7  and  C_26 
REMARK    7  A    between atoms: C_12  and  C_15 
REMARK    8  A    between atoms: C_15  and  C_18 
ROOT
HETATM    1  N   UNK N   1      38.179  12.716   8.786  0.00  0.00    -0.351 N 
ATOM      2  HN  UNK N   1      38.570  12.247   7.969  1.00  0.00     0.166 HD
HETATM    3  N   UNK N   1      38.236  13.145  11.118  0.00  0.00    -0.338 N 
ATOM      4  HN  UNK N   1      38.668  12.996  12.030  1.00  0.00     0.168 HD
HETATM    5  C   UNK N   1      34.849  15.209   8.426  0.00  0.00     0.103 A 
HETATM    6  C   UNK N   1      36.564  14.162   9.768  0.00  0.00     0.038 A 
HETATM    7  C   UNK N   1      35.460  14.992   9.648  0.00  0.00     0.057 A 
HETATM    8  C   UNK N   1      35.363  14.568   7.266  0.00  0.00     0.103 A 
HETATM    9  C   UNK N   1      37.095  13.522   8.644  0.00  0.00     0.050 A 
HETATM   10  C   UNK N   1      36.494  13.723   7.393  0.00  0.00     0.070 A 
HETATM   11  C   UNK N   1      37.152  13.959  11.011  0.00  0.00     0.119 A 
HETATM   12  C   UNK N   1      38.749  12.529  10.013  0.00  0.00     0.182 A 
ENDROOT
BRANCH   5  13
HETATM   13  O   UNK N   1      33.784  16.042   8.431  0.00  0.00    -0.348 OA
BRANCH  13  14
HETATM   14  C   UNK N   1      33.781  17.366   8.774  0.00  0.00     0.177 C 
BRANCH  14  15
HETATM   15  C   UNK N   1      32.462  17.951   8.328  0.00  0.00     0.057 C 
BRANCH  15  16
HETATM   16  C   UNK N   1      31.646  16.878   7.647  0.00  0.00     0.274 C 
BRANCH  16  17
HETATM   17  N   UNK N   1      30.240  17.047   7.964  0.00  0.00     0.092 N 
HETATM   18  C   UNK N   1      30.164  18.092   8.985  0.00  0.00     0.298 C 
HETATM   19  C   UNK N   1      28.698  18.449   9.231  0.00  0.00     0.198 C 
HETATM   20  O   UNK N   1      28.137  18.947   8.041  0.00  0.00    -0.388 OA
HETATM   21  C   UNK N   1      28.099  17.874   7.132  0.00  0.00     0.198 C 
HETATM   22  C   UNK N   1      29.530  17.482   6.756  0.00  0.00     0.298 C 
ENDBRANCH  16  17
ENDBRANCH  15  16
ENDBRANCH  14  15
ENDBRANCH  13  14
ENDBRANCH   5  13
BRANCH   8  23
HETATM   23  O   UNK N   1      34.776  14.772   6.061  0.00  0.00    -0.353 OA
HETATM   24  C   UNK N   1      33.773  13.975   5.561  0.00  0.00     0.210 C 
ENDBRANCH   8  23
BRANCH  11  25
HETATM   25  N   UNK N   1      36.573  14.620  12.129  0.00  0.00    -0.342 N 
HETATM   26  H   UNK N   1      36.382  15.575  11.991  0.00  0.00     0.167 HD
BRANCH  25  27
HETATM   27  C   UNK N   1      36.228  14.129  13.407  0.00  0.00     0.035 A 
HETATM   28  C   UNK N   1      36.715  14.829  14.512  0.00  0.00     0.056 A 
HETATM   29  C   UNK N   1      36.424  14.411  15.805  0.00  0.00     0.074 A 
HETATM   30 Cl   UNK N   1      37.058  15.324  17.162  0.00  0.00    -0.081 Cl
HETATM   31  C   UNK N   1      35.636  13.273  16.005  0.00  0.00     0.138 A 
HETATM   32  F   UNK N   1      35.347  12.855  17.261  0.00  0.00    -0.204 F 
HETATM   33  C   UNK N   1      35.142  12.563  14.901  0.00  0.00     0.046 A 
HETATM   34  C   UNK N   1      35.438  12.989  13.598  0.00  0.00     0.032 A 
ENDBRANCH  25  27
ENDBRANCH  11  25
TORSDOF 8
ENDMDL
MODEL 7
REMARK VINA RESULT:      -6.1      6.276      8.989
REMARK  8 active torsions:
REMARK  status: ('A' for Active; 'I' for Inactive)
REMARK    1  A    between atoms: O_4  and  C_18 
REMARK    2  A    between atoms: O_4  and  C_19 
REMARK    3  A    between atoms: O_5  and  C_22 
REMARK    4  A    between atoms: N_6  and  C_12 
REMARK    5  A    between atoms: N_7  and  C_25 
REMARK    6  A    between atoms: N_7  and  C_26 
REMARK    7  A    between atoms: C_12  and  C_15 
REMARK    8  A    between atoms: C_15  and  C_18 
ROOT
HETATM    1  N   UNK N   1      20.244  18.305   7.771  0.00  0.00    -0.351 N 
ATOM      2  HN  UNK N   1      20.143  19.308   7.619  1.00  0.00     0.166 HD
HETATM    3  N   UNK N   1      19.692  16.359   9.011  0.00  0.00    -0.338 N 
ATOM      4  HN  UNK N   1      19.183  15.920   9.778  1.00  0.00     0.168 HD
HETATM    5  C   UNK N   1      22.709  16.010   5.303  0.00  0.00     0.103 A 
HETATM    6  C   UNK N   1      21.185  16.204   7.168  0.00  0.00     0.038 A 
HETATM    7  C   UNK N   1      22.002  15.442   6.346  0.00  0.00     0.057 A 
HETATM    8  C   UNK N   1      22.598  17.407   5.065  0.00  0.00     0.103 A 
HETATM    9  C   UNK N   1      21.053  17.579   6.955  0.00  0.00     0.050 A 
HETATM   10  C   UNK N   1      21.759  18.182   5.904  0.00  0.00     0.070 A 
HETATM   11  C   UNK N   1      20.492  15.604   8.213  0.00  0.00     0.119 A 
HETATM   12  C   UNK N   1      19.566  17.701   8.791  0.00  0.00     0.182 A 
ENDROOT
BRANCH   5  13
HETATM   13  O   UNK N   1      23.468  15.167   4.566  0.00  0.00    -0.348 OA
BRANCH  13  14
HETATM   14  C   UNK N   1      24.798  14.901   4.739  0.00  0.00     0.177 C 
BRANCH  14  15
HETATM   15  C   UNK N   1      25.516  15.327   3.481  0.00  0.00     0.057 C 
BRANCH  15  16
HETATM   16  C   UNK N   1      26.867  15.894   3.845  0.00  0.00     0.274 C 
BRANCH  16  17
HETATM   17  N   UNK N   1      26.705  17.026   4.739  0.00  0.00     0.092 N 
HETATM   18  C   UNK N   1      27.794  16.950   5.713  0.00  0.00     0.298 C 
HETATM   19  C   UNK N   1      27.790  18.214   6.572  0.00  0.00     0.198 C 
HETATM   20  O   UNK N   1      28.007  19.334   5.749  0.00  0.00    -0.388 OA
HETATM   21  C   UNK N   1      26.874  19.455   4.924  0.00  0.00     0.198 C 
HETATM   22  C   UNK N   1      26.822  18.265   3.962  0.00  0.00     0.298 C 
ENDBRANCH  16  17
ENDBRANCH  15  16
ENDBRANCH  14  15
ENDBRANCH  13  14
ENDBRANCH   5  13
BRANCH   8  23
HETATM   23  O   UNK N   1      23.284  17.979   4.045  0.00  0.00    -0.353 OA
HETATM   24  C   UNK N   1      23.143  19.298   3.681  0.00  0.00     0.210 C 
ENDBRANCH   8  23
BRANCH  11  25
HETATM   25  N   UNK N   1      20.665  14.204   8.401  0.00  0.00    -0.342 N 
HETATM   26  H   UNK N   1      20.340  13.645   7.660  0.00  0.00     0.167 HD
BRANCH  25  27
HETATM   27  C   UNK N   1      21.228  13.487   9.479  0.00  0.00     0.035 A 
HETATM   28  C   UNK N   1      22.617  13.349   9.497  0.00  0.00     0.056 A 
HETATM   29  C   UNK N   1      23.251  12.657  10.522  0.00  0.00     0.074 A 
HETATM   30 Cl   UNK N   1      24.999  12.511  10.501  0.00  0.00    -0.081 Cl
HETATM   31  C   UNK N   1      22.490  12.087  11.547  0.00  0.00     0.138 A 
HETATM   32  F   UNK N   1      23.097  11.407  12.551  0.00  0.00    -0.204 F 
HETATM   33  C   UNK N   1      21.093  12.221  11.538  0.00  0.00     0.046 A 
HETATM   34  C   UNK N   1      20.459  12.921  10.502  0.00  0.00     0.032 A 
ENDBRANCH  25  27
ENDBRANCH  11  25
TORSDOF 8
ENDMDL
MODEL 8
REMARK VINA RESULT:      -6.0      8.631     12.034
REMARK  8 active torsions:
REMARK  status: ('A' for Active; 'I' for Inactive)
REMARK    1  A    between atoms: O_4  and  C_18 
REMARK    2  A    between atoms: O_4  and  C_19 
REMARK    3  A    between atoms: O_5  and  C_22 
REMARK    4  A    between atoms: N_6  and  C_12 
REMARK    5  A    between atoms: N_7  and  C_25 
REMARK    6  A    between atoms: N_7  and  C_26 
REMARK    7  A    between atoms: C_12  and  C_15 
REMARK    8  A    between atoms: C_15  and  C_18 
ROOT
HETATM    1  N   UNK N   1      38.290   9.277  13.400  0.00  0.00    -0.351 N 
ATOM      2  HN  UNK N   1      38.975   8.700  12.912  1.00  0.00     0.166 HD
HETATM    3  N   UNK N   1      37.177   9.869  15.409  0.00  0.00    -0.338 N 
ATOM      4  HN  UNK N   1      37.037   9.731  16.411  1.00  0.00     0.168 HD
HETATM    5  C   UNK N   1      36.075  12.158  11.345  0.00  0.00     0.103 A 
HETATM    6  C   UNK N   1      36.645  10.995  13.385  0.00  0.00     0.038 A 
HETATM    7  C   UNK N   1      35.911  11.954  12.703  0.00  0.00     0.057 A 
HETATM    8  C   UNK N   1      37.017  11.368  10.630  0.00  0.00     0.103 A 
HETATM    9  C   UNK N   1      37.581  10.207  12.709  0.00  0.00     0.050 A 
HETATM   10  C   UNK N   1      37.767  10.392  11.332  0.00  0.00     0.070 A 
HETATM   11  C   UNK N   1      36.451  10.809  14.749  0.00  0.00     0.119 A 
HETATM   12  C   UNK N   1      38.093   9.107  14.741  0.00  0.00     0.182 A 
ENDROOT
BRANCH   5  13
HETATM   13  O   UNK N   1      35.309  13.124  10.789  0.00  0.00    -0.348 OA
BRANCH  13  14
HETATM   14  C   UNK N   1      34.758  14.201  11.427  0.00  0.00     0.177 C 
BRANCH  14  15
HETATM   15  C   UNK N   1      34.949  15.406  10.539  0.00  0.00     0.057 C 
BRANCH  15  16
HETATM   16  C   UNK N   1      35.028  14.957   9.099  0.00  0.00     0.274 C 
BRANCH  16  17
HETATM   17  N   UNK N   1      34.229  15.833   8.261  0.00  0.00     0.092 N 
HETATM   18  C   UNK N   1      34.401  17.186   8.787  0.00  0.00     0.298 C 
HETATM   19  C   UNK N   1      33.733  18.183   7.839  0.00  0.00     0.198 C 
HETATM   20  O   UNK N   1      34.355  18.112   6.580  0.00  0.00    -0.388 OA
HETATM   21  C   UNK N   1      34.048  16.846   6.048  0.00  0.00     0.198 C 
HETATM   22  C   UNK N   1      34.737  15.767   6.887  0.00  0.00     0.298 C 
ENDBRANCH  16  17
ENDBRANCH  15  16
ENDBRANCH  14  15
ENDBRANCH  13  14
ENDBRANCH   5  13
BRANCH   8  23
HETATM   23  O   UNK N   1      37.191  11.558   9.299  0.00  0.00    -0.353 OA
HETATM   24  C   UNK N   1      37.030  10.562   8.364  0.00  0.00     0.210 C 
ENDBRANCH   8  23
BRANCH  11  25
HETATM   25  N   UNK N   1      35.480  11.625  15.394  0.00  0.00    -0.342 N 
HETATM   26  H   UNK N   1      34.546  11.360  15.233  0.00  0.00     0.167 HD
BRANCH  25  27
HETATM   27  C   UNK N   1      35.639  12.752  16.228  0.00  0.00     0.035 A 
HETATM   28  C   UNK N   1      36.444  13.789  15.753  0.00  0.00     0.056 A 
HETATM   29  C   UNK N   1      36.654  14.934  16.512  0.00  0.00     0.074 A 
HETATM   30 Cl   UNK N   1      37.674  16.209  15.871  0.00  0.00    -0.081 Cl
HETATM   31  C   UNK N   1      36.054  15.051  17.769  0.00  0.00     0.138 A 
HETATM   32  F   UNK N   1      36.253  16.162  18.519  0.00  0.00    -0.204 F 
HETATM   33  C   UNK N   1      35.243  14.015  18.255  0.00  0.00     0.046 A 
HETATM   34  C   UNK N   1      35.034  12.862  17.486  0.00  0.00     0.032 A 
ENDBRANCH  25  27
ENDBRANCH  11  25
TORSDOF 8
ENDMDL
MODEL 9
REMARK VINA RESULT:      -5.9      4.339      7.039
REMARK  8 active torsions:
REMARK  status: ('A' for Active; 'I' for Inactive)
REMARK    1  A    between atoms: O_4  and  C_18 
REMARK    2  A    between atoms: O_4  and  C_19 
REMARK    3  A    between atoms: O_5  and  C_22 
REMARK    4  A    between atoms: N_6  and  C_12 
REMARK    5  A    between atoms: N_7  and  C_25 
REMARK    6  A    between atoms: N_7  and  C_26 
REMARK    7  A    between atoms: C_12  and  C_15 
REMARK    8  A    between atoms: C_15  and  C_18 
ROOT
HETATM    1  N   UNK N   1      28.580  18.340   8.500  0.00  0.00    -0.351 N 
ATOM      2  HN  UNK N   1      27.728  18.899   8.527  1.00  0.00     0.166 HD
HETATM    3  N   UNK N   1      30.432  17.380   9.630  0.00  0.00    -0.338 N 
ATOM      4  HN  UNK N   1      30.952  17.227  10.494  1.00  0.00     0.168 HD
HETATM    5  C   UNK N   1      29.945  16.702   4.910  0.00  0.00     0.103 A 
HETATM    6  C   UNK N   1      30.174  17.053   7.290  0.00  0.00     0.038 A 
HETATM    7  C   UNK N   1      30.626  16.507   6.098  0.00  0.00     0.057 A 
HETATM    8  C   UNK N   1      28.756  17.481   4.909  0.00  0.00     0.103 A 
HETATM    9  C   UNK N   1      29.005  17.818   7.320  0.00  0.00     0.050 A 
HETATM   10  C   UNK N   1      28.296  18.034   6.129  0.00  0.00     0.070 A 
HETATM   11  C   UNK N   1      30.885  16.843   8.466  0.00  0.00     0.119 A 
HETATM   12  C   UNK N   1      29.286  18.123   9.649  0.00  0.00     0.182 A 
ENDROOT
BRANCH   5  13
HETATM   13  O   UNK N   1      30.478  16.117   3.813  0.00  0.00    -0.348 OA
BRANCH  13  14
HETATM   14  C   UNK N   1      31.190  16.732   2.821  0.00  0.00     0.177 C 
BRANCH  14  15
HETATM   15  C   UNK N   1      32.652  16.446   3.065  0.00  0.00     0.057 C 
BRANCH  15  16
HETATM   16  C   UNK N   1      32.891  14.957   2.974  0.00  0.00     0.274 C 
BRANCH  16  17
HETATM   17  N   UNK N   1      33.885  14.553   3.953  0.00  0.00     0.092 N 
HETATM   18  C   UNK N   1      34.052  15.680   4.870  0.00  0.00     0.298 C 
HETATM   19  C   UNK N   1      34.948  15.254   6.032  0.00  0.00     0.198 C 
HETATM   20  O   UNK N   1      34.332  14.200   6.730  0.00  0.00    -0.388 OA
HETATM   21  C   UNK N   1      34.318  13.094   5.861  0.00  0.00     0.198 C 
HETATM   22  C   UNK N   1      33.380  13.388   4.687  0.00  0.00     0.298 C 
ENDBRANCH  16  17
ENDBRANCH  15  16
ENDBRANCH  14  15
ENDBRANCH  13  14
ENDBRANCH   5  13
BRANCH   8  23
HETATM   23  O   UNK N   1      28.076  17.681   3.753  0.00  0.00    -0.353 OA
HETATM   24  C   UNK N   1      26.788  17.246   3.545  0.00  0.00     0.210 C 
ENDBRANCH   8  23
BRANCH  11  25
HETATM   25  N   UNK N   1      32.075  16.068   8.388  0.00  0.00    -0.342 N 
HETATM   26  H   UNK N   1      32.101  15.426   7.643  0.00  0.00     0.167 HD
BRANCH  25  27
HETATM   27  C   UNK N   1      33.225  16.070   9.207  0.00  0.00     0.035 A 
HETATM   28  C   UNK N   1      33.428  14.958  10.025  0.00  0.00     0.056 A 
HETATM   29  C   UNK N   1      34.534  14.881  10.862  0.00  0.00     0.074 A 
HETATM   30 Cl   UNK N   1      34.745  13.462  11.871  0.00  0.00    -0.081 Cl
HETATM   31  C   UNK N   1      35.456  15.932  10.890  0.00  0.00     0.138 A 
HETATM   32  F   UNK N   1      36.538  15.869  11.705  0.00  0.00    -0.204 F 
HETATM   33  C   UNK N   1      35.261  17.054  10.071  0.00  0.00     0.046 A 
HETATM   34  C   UNK N   1      34.144  17.126   9.228  0.00  0.00     0.032 A 
ENDBRANCH  25  27
ENDBRANCH  11  25
TORSDOF 8
ENDMDL
