MODEL 1
REMARK VINA RESULT:      -6.7      0.000      0.000
REMARK  2 active torsions:
REMARK  status: ('A' for Active; 'I' for Inactive)
REMARK    1  A    between atoms: C_14  and  O_2 
REMARK    2  A    between atoms: O_3  and  C_20 
ROOT
HETATM    1  O   UNK N   1      31.211  16.095   8.189  0.00  0.00    -0.338 OA
HETATM    2  N   UNK N   1      32.840  14.983   3.378  0.00  0.00     0.089 N 
HETATM    3  C   UNK N   1      32.375  15.651   6.185  0.00  0.00     0.030 C 
HETATM    4  C   UNK N   1      33.533  16.296   5.413  0.00  0.00     0.057 C 
HETATM    5  C   UNK N   1      33.074  16.346   3.905  0.00  0.00     0.235 C 
HETATM    6  C   UNK N   1      32.460  15.630   7.756  0.00  0.00     0.175 C 
HETATM    7  C   UNK N   1      32.094  14.239   5.643  0.00  0.00     0.048 C 
HETATM    8  C   UNK N   1      31.181  16.496   6.015  0.00  0.00    -0.003 C 
HETATM    9  C   UNK N   1      31.762  17.175   3.683  0.00  0.00     0.075 C 
HETATM   10  C   UNK N   1      31.822  14.240   4.134  0.00  0.00     0.273 C 
HETATM   11  C   UNK N   1      30.798  17.140   4.848  0.00  0.00    -0.046 C 
HETATM   12  C   UNK N   1      33.621  16.548   8.227  0.00  0.00     0.171 C 
HETATM   13  C   UNK N   1      33.819  17.653   6.025  0.00  0.00    -0.020 C 
HETATM   14  C   UNK N   1      30.521  16.633   7.175  0.00  0.00     0.110 C 
HETATM   15  C   UNK N   1      33.839  17.774   7.367  0.00  0.00     0.004 C 
HETATM   16  C   UNK N   1      34.069  14.198   3.312  0.00  0.00     0.310 C 
HETATM   17  C   UNK N   1      29.600  17.871   4.861  0.00  0.00     0.011 C 
HETATM   18  C   UNK N   1      29.305  17.315   7.238  0.00  0.00     0.102 C 
HETATM   19  C   UNK N   1      28.827  17.922   6.046  0.00  0.00     0.040 C 
ENDROOT
BRANCH  12  20
HETATM   20  O   UNK N   1      33.517  16.875   9.580  0.00  0.00    -0.389 OA
HETATM   21  H   UNK N   1      33.539  16.176  10.253  0.00  0.00     0.210 HD
ENDBRANCH  12  20
BRANCH  18  22
HETATM   22  O   UNK N   1      28.622  17.383   8.405  0.00  0.00    -0.353 OA
HETATM   23  C   UNK N   1      28.813  18.388   9.325  0.00  0.00     0.210 C 
ENDBRANCH  18  22
TORSDOF 2
ENDMDL
MODEL 2
REMARK VINA RESULT:      -6.5     13.860     16.127
REMARK  2 active torsions:
REMARK  status: ('A' for Active; 'I' for Inactive)
REMARK    1  A    between atoms: C_14  and  O_2 
REMARK    2  A    between atoms: O_3  and  C_20 
ROOT
HETATM    1  O   UNK N   1      26.859  25.058  -4.090  0.00  0.00    -0.338 OA
HETATM    2  N   UNK N   1      27.636  30.185  -3.714  0.00  0.00     0.089 N 
HETATM    3  C   UNK N   1      26.893  27.412  -4.258  0.00  0.00     0.030 C 
HETATM    4  C   UNK N   1      26.955  28.439  -5.395  0.00  0.00     0.057 C 
HETATM    5  C   UNK N   1      28.037  29.501  -4.963  0.00  0.00     0.235 C 
HETATM    6  C   UNK N   1      26.028  26.117  -4.482  0.00  0.00     0.175 C 
HETATM    7  C   UNK N   1      26.500  28.100  -2.939  0.00  0.00     0.048 C 
HETATM    8  C   UNK N   1      28.224  26.797  -4.119  0.00  0.00    -0.003 C 
HETATM    9  C   UNK N   1      29.458  28.881  -4.731  0.00  0.00     0.075 C 
HETATM   10  C   UNK N   1      27.437  29.261  -2.589  0.00  0.00     0.273 C 
HETATM   11  C   UNK N   1      29.441  27.454  -4.228  0.00  0.00    -0.046 C 
HETATM   12  C   UNK N   1      25.618  26.016  -5.976  0.00  0.00     0.171 C 
HETATM   13  C   UNK N   1      27.278  27.707  -6.684  0.00  0.00    -0.020 C 
HETATM   14  C   UNK N   1      28.124  25.471  -3.940  0.00  0.00     0.110 C 
HETATM   15  C   UNK N   1      26.654  26.541  -6.947  0.00  0.00     0.004 C 
HETATM   16  C   UNK N   1      26.439  31.003  -3.892  0.00  0.00     0.310 C 
HETATM   17  C   UNK N   1      30.613  26.710  -4.022  0.00  0.00     0.011 C 
HETATM   18  C   UNK N   1      29.253  24.688  -3.692  0.00  0.00     0.102 C 
HETATM   19  C   UNK N   1      30.519  25.333  -3.708  0.00  0.00     0.040 C 
ENDROOT
BRANCH  12  20
HETATM   20  O   UNK N   1      25.189  24.733  -6.319  0.00  0.00    -0.389 OA
HETATM   21  H   UNK N   1      25.501  23.965  -5.815  0.00  0.00     0.210 HD
ENDBRANCH  12  20
BRANCH  18  22
HETATM   22  O   UNK N   1      29.122  23.364  -3.446  0.00  0.00    -0.353 OA
HETATM   23  C   UNK N   1      29.305  22.814  -2.199  0.00  0.00     0.210 C 
ENDBRANCH  18  22
TORSDOF 2
ENDMDL
MODEL 3
REMARK VINA RESULT:      -6.4      1.602      2.179
REMARK  2 active torsions:
REMARK  status: ('A' for Active; 'I' for Inactive)
REMARK    1  A    between atoms: C_14  and  O_2 
REMARK    2  A    between atoms: O_3  and  C_20 
ROOT
HETATM    1  O   UNK N   1      32.160  16.391   7.330  0.00  0.00    -0.338 OA
HETATM    2  N   UNK N   1      30.124  13.910   3.239  0.00  0.00     0.089 N 
HETATM    3  C   UNK N   1      31.634  15.382   5.262  0.00  0.00     0.030 C 
HETATM    4  C   UNK N   1      31.721  15.780   3.784  0.00  0.00     0.057 C 
HETATM    5  C   UNK N   1      30.339  15.371   3.143  0.00  0.00     0.235 C 
HETATM    6  C   UNK N   1      32.802  15.833   6.215  0.00  0.00     0.175 C 
HETATM    7  C   UNK N   1      31.387  13.869   5.393  0.00  0.00     0.048 C 
HETATM    8  C   UNK N   1      30.518  16.122   5.874  0.00  0.00    -0.003 C 
HETATM    9  C   UNK N   1      29.111  16.079   3.811  0.00  0.00     0.075 C 
HETATM   10  C   UNK N   1      30.143  13.415   4.623  0.00  0.00     0.273 C 
HETATM   11  C   UNK N   1      29.291  16.384   5.282  0.00  0.00    -0.046 C 
HETATM   12  C   UNK N   1      33.703  16.864   5.483  0.00  0.00     0.171 C 
HETATM   13  C   UNK N   1      32.032  17.262   3.705  0.00  0.00    -0.020 C 
HETATM   14  C   UNK N   1      30.860  16.592   7.083  0.00  0.00     0.110 C 
HETATM   15  C   UNK N   1      32.963  17.780   4.531  0.00  0.00     0.004 C 
HETATM   16  C   UNK N   1      31.083  13.157   2.437  0.00  0.00     0.310 C 
HETATM   17  C   UNK N   1      28.327  17.070   6.036  0.00  0.00     0.011 C 
HETATM   18  C   UNK N   1      29.929  17.247   7.893  0.00  0.00     0.102 C 
HETATM   19  C   UNK N   1      28.630  17.464   7.362  0.00  0.00     0.040 C 
ENDROOT
BRANCH  12  20
HETATM   20  O   UNK N   1      34.510  17.580   6.368  0.00  0.00    -0.389 OA
HETATM   21  H   UNK N   1      35.398  17.256   6.587  0.00  0.00     0.210 HD
ENDBRANCH  12  20
BRANCH  18  22
HETATM   22  O   UNK N   1      30.276  17.653   9.137  0.00  0.00    -0.353 OA
HETATM   23  C   UNK N   1      29.630  18.670   9.798  0.00  0.00     0.210 C 
ENDBRANCH  18  22
TORSDOF 2
ENDMDL
MODEL 4
REMARK VINA RESULT:      -6.2      8.312     10.563
REMARK  2 active torsions:
REMARK  status: ('A' for Active; 'I' for Inactive)
REMARK    1  A    between atoms: C_14  and  O_2 
REMARK    2  A    between atoms: O_3  and  C_20 
ROOT
HETATM    1  O   UNK N   1      21.556  18.540   6.246  0.00  0.00    -0.338 OA
HETATM    2  N   UNK N   1      23.885  14.595   3.787  0.00  0.00     0.089 N 
HETATM    3  C   UNK N   1      22.527  16.998   4.746  0.00  0.00     0.030 C 
HETATM    4  C   UNK N   1      22.139  16.368   3.403  0.00  0.00     0.057 C 
HETATM    5  C   UNK N   1      22.445  14.828   3.541  0.00  0.00     0.235 C 
HETATM    6  C   UNK N   1      22.163  18.510   4.982  0.00  0.00     0.175 C 
HETATM    7  C   UNK N   1      24.017  16.752   5.040  0.00  0.00     0.048 C 
HETATM    8  C   UNK N   1      21.704  16.380   5.799  0.00  0.00    -0.003 C 
HETATM    9  C   UNK N   1      21.645  14.138   4.699  0.00  0.00     0.075 C 
HETATM   10  C   UNK N   1      24.378  15.263   5.000  0.00  0.00     0.273 C 
HETATM   11  C   UNK N   1      21.353  15.040   5.878  0.00  0.00    -0.046 C 
HETATM   12  C   UNK N   1      21.204  18.997   3.862  0.00  0.00     0.171 C 
HETATM   13  C   UNK N   1      20.685  16.695   3.123  0.00  0.00    -0.020 C 
HETATM   14  C   UNK N   1      21.259  17.304   6.664  0.00  0.00     0.110 C 
HETATM   15  C   UNK N   1      20.237  17.943   3.363  0.00  0.00     0.004 C 
HETATM   16  C   UNK N   1      24.710  14.983   2.647  0.00  0.00     0.310 C 
HETATM   17  C   UNK N   1      20.595  14.621   6.982  0.00  0.00     0.011 C 
HETATM   18  C   UNK N   1      20.534  16.939   7.801  0.00  0.00     0.102 C 
HETATM   19  C   UNK N   1      20.222  15.564   7.971  0.00  0.00     0.040 C 
ENDROOT
BRANCH  12  20
HETATM   20  O   UNK N   1      20.549  20.180   4.206  0.00  0.00    -0.389 OA
HETATM   21  H   UNK N   1      19.878  20.555   3.614  0.00  0.00     0.210 HD
ENDBRANCH  12  20
BRANCH  18  22
HETATM   22  O   UNK N   1      20.153  17.880   8.696  0.00  0.00    -0.353 OA
HETATM   23  C   UNK N   1      18.901  17.909   9.263  0.00  0.00     0.210 C 
ENDBRANCH  18  22
TORSDOF 2
ENDMDL
MODEL 5
REMARK VINA RESULT:      -6.2      2.424      4.215
REMARK  2 active torsions:
REMARK  status: ('A' for Active; 'I' for Inactive)
REMARK    1  A    between atoms: C_14  and  O_2 
REMARK    2  A    between atoms: O_3  and  C_20 
ROOT
HETATM    1  O   UNK N   1      28.707  17.768   4.189  0.00  0.00    -0.338 OA
HETATM    2  N   UNK N   1      33.339  16.110   5.871  0.00  0.00     0.089 N 
HETATM    3  C   UNK N   1      30.727  16.650   4.676  0.00  0.00     0.030 C 
HETATM    4  C   UNK N   1      31.140  15.216   5.030  0.00  0.00     0.057 C 
HETATM    5  C   UNK N   1      32.134  15.338   6.248  0.00  0.00     0.235 C 
HETATM    6  C   UNK N   1      29.588  16.845   3.609  0.00  0.00     0.175 C 
HETATM    7  C   UNK N   1      31.965  17.484   4.301  0.00  0.00     0.048 C 
HETATM    8  C   UNK N   1      30.066  17.242   5.851  0.00  0.00    -0.003 C 
HETATM    9  C   UNK N   1      31.498  16.030   7.501  0.00  0.00     0.075 C 
HETATM   10  C   UNK N   1      33.030  17.468   5.403  0.00  0.00     0.273 C 
HETATM   11  C   UNK N   1      30.447  17.068   7.174  0.00  0.00    -0.046 C 
HETATM   12  C   UNK N   1      28.903  15.482   3.322  0.00  0.00     0.171 C 
HETATM   13  C   UNK N   1      29.886  14.415   5.325  0.00  0.00    -0.020 C 
HETATM   14  C   UNK N   1      28.976  17.935   5.490  0.00  0.00     0.110 C 
HETATM   15  C   UNK N   1      28.814  14.561   4.521  0.00  0.00     0.004 C 
HETATM   16  C   UNK N   1      34.146  15.420   4.868  0.00  0.00     0.310 C 
HETATM   17  C   UNK N   1      29.721  17.749   8.163  0.00  0.00     0.011 C 
HETATM   18  C   UNK N   1      28.239  18.662   6.427  0.00  0.00     0.102 C 
HETATM   19  C   UNK N   1      28.642  18.585   7.787  0.00  0.00     0.040 C 
ENDROOT
BRANCH  12  20
HETATM   20  O   UNK N   1      27.666  15.636   2.694  0.00  0.00    -0.389 OA
HETATM   21  H   UNK N   1      27.509  15.236   1.824  0.00  0.00     0.210 HD
ENDBRANCH  12  20
BRANCH  18  22
HETATM   22  O   UNK N   1      27.183  19.409   6.030  0.00  0.00    -0.353 OA
HETATM   23  C   UNK N   1      27.253  20.772   5.859  0.00  0.00     0.210 C 
ENDBRANCH  18  22
TORSDOF 2
ENDMDL
MODEL 6
REMARK VINA RESULT:      -6.1      9.654     11.902
REMARK  2 active torsions:
REMARK  status: ('A' for Active; 'I' for Inactive)
REMARK    1  A    between atoms: C_14  and  O_2 
REMARK    2  A    between atoms: O_3  and  C_20 
ROOT
HETATM    1  O   UNK N   1      35.845  13.029  14.840  0.00  0.00    -0.338 OA
HETATM    2  N   UNK N   1      38.150   8.385  14.453  0.00  0.00     0.089 N 
HETATM    3  C   UNK N   1      36.709  10.919  14.236  0.00  0.00     0.030 C 
HETATM    4  C   UNK N   1      36.167   9.654  13.558  0.00  0.00     0.057 C 
HETATM    5  C   UNK N   1      36.672   8.443  14.433  0.00  0.00     0.235 C 
HETATM    6  C   UNK N   1      36.217  12.311  13.695  0.00  0.00     0.175 C 
HETATM    7  C   UNK N   1      38.246  10.876  14.291  0.00  0.00     0.048 C 
HETATM    8  C   UNK N   1      36.164  10.979  15.602  0.00  0.00    -0.003 C 
HETATM    9  C   UNK N   1      36.177   8.502  15.919  0.00  0.00     0.075 C 
HETATM   10  C   UNK N   1      38.767   9.610  14.981  0.00  0.00     0.273 C 
HETATM   11  C   UNK N   1      35.993   9.903  16.460  0.00  0.00    -0.046 C 
HETATM   12  C   UNK N   1      35.025  12.101  12.723  0.00  0.00     0.171 C 
HETATM   13  C   UNK N   1      34.658   9.771  13.464  0.00  0.00    -0.020 C 
HETATM   14  C   UNK N   1      35.774  12.226  15.908  0.00  0.00     0.110 C 
HETATM   15  C   UNK N   1      34.116  10.946  13.086  0.00  0.00     0.004 C 
HETATM   16  C   UNK N   1      38.708   8.084  13.138  0.00  0.00     0.310 C 
HETATM   17  C   UNK N   1      35.497  10.158  17.748  0.00  0.00     0.011 C 
HETATM   18  C   UNK N   1      35.310  12.544  17.186  0.00  0.00     0.102 C 
HETATM   19  C   UNK N   1      35.197  11.488  18.129  0.00  0.00     0.040 C 
ENDROOT
BRANCH  12  20
HETATM   20  O   UNK N   1      34.306  13.278  12.509  0.00  0.00    -0.389 OA
HETATM   21  H   UNK N   1      33.794  13.674  13.231  0.00  0.00     0.210 HD
ENDBRANCH  12  20
BRANCH  18  22
HETATM   22  O   UNK N   1      34.985  13.822  17.493  0.00  0.00    -0.353 OA
HETATM   23  C   UNK N   1      35.908  14.741  17.935  0.00  0.00     0.210 C 
ENDBRANCH  18  22
TORSDOF 2
ENDMDL
MODEL 7
REMARK VINA RESULT:      -6.0     12.180     14.310
REMARK  2 active torsions:
REMARK  status: ('A' for Active; 'I' for Inactive)
REMARK    1  A    between atoms: C_14  and  O_2 
REMARK    2  A    between atoms: O_3  and  C_20 
ROOT
HETATM    1  O   UNK N   1      30.612  23.015  -4.871  0.00  0.00    -0.338 OA
HETATM    2  N   UNK N   1      26.954  26.705  -4.709  0.00  0.00     0.089 N 
HETATM    3  C   UNK N   1      29.036  24.688  -4.340  0.00  0.00     0.030 C 
HETATM    4  C   UNK N   1      27.942  24.881  -3.282  0.00  0.00     0.057 C 
HETATM    5  C   UNK N   1      26.674  25.406  -4.058  0.00  0.00     0.235 C 
HETATM    6  C   UNK N   1      30.375  23.993  -3.895  0.00  0.00     0.175 C 
HETATM    7  C   UNK N   1      29.331  26.020  -5.050  0.00  0.00     0.048 C 
HETATM    8  C   UNK N   1      28.559  23.697  -5.319  0.00  0.00    -0.003 C 
HETATM    9  C   UNK N   1      26.171  24.417  -5.165  0.00  0.00     0.075 C 
HETATM   10  C   UNK N   1      28.072  26.644  -5.661  0.00  0.00     0.273 C 
HETATM   11  C   UNK N   1      27.265  23.595  -5.811  0.00  0.00    -0.046 C 
HETATM   12  C   UNK N   1      30.198  23.376  -2.481  0.00  0.00     0.171 C 
HETATM   13  C   UNK N   1      27.734  23.562  -2.563  0.00  0.00    -0.020 C 
HETATM   14  C   UNK N   1      29.532  22.832  -5.640  0.00  0.00     0.110 C 
HETATM   15  C   UNK N   1      28.811  22.837  -2.201  0.00  0.00     0.004 C 
HETATM   16  C   UNK N   1      27.196  27.768  -3.739  0.00  0.00     0.310 C 
HETATM   17  C   UNK N   1      27.003  22.612  -6.777  0.00  0.00     0.011 C 
HETATM   18  C   UNK N   1      29.339  21.859  -6.623  0.00  0.00     0.102 C 
HETATM   19  C   UNK N   1      28.052  21.770  -7.218  0.00  0.00     0.040 C 
ENDROOT
BRANCH  12  20
HETATM   20  O   UNK N   1      31.187  22.438  -2.187  0.00  0.00    -0.389 OA
HETATM   21  H   UNK N   1      31.385  21.726  -2.817  0.00  0.00     0.210 HD
ENDBRANCH  12  20
BRANCH  18  22
HETATM   22  O   UNK N   1      30.356  21.041  -6.979  0.00  0.00    -0.353 OA
HETATM   23  C   UNK N   1      30.160  19.755  -7.426  0.00  0.00     0.210 C 
ENDBRANCH  18  22
TORSDOF 2
ENDMDL
MODEL 8
REMARK VINA RESULT:      -6.0     14.862     16.748
REMARK  2 active torsions:
REMARK  status: ('A' for Active; 'I' for Inactive)
REMARK    1  A    between atoms: C_14  and  O_2 
REMARK    2  A    between atoms: O_3  and  C_20 
ROOT
HETATM    1  O   UNK N   1      25.861  26.763  -4.415  0.00  0.00    -0.338 OA
HETATM    2  N   UNK N   1      27.259  25.338  -9.215  0.00  0.00     0.089 N 
HETATM    3  C   UNK N   1      26.583  25.704  -6.396  0.00  0.00     0.030 C 
HETATM    4  C   UNK N   1      27.756  24.805  -6.805  0.00  0.00     0.057 C 
HETATM    5  C   UNK N   1      28.299  25.391  -8.164  0.00  0.00     0.235 C 
HETATM    6  C   UNK N   1      25.946  25.481  -4.975  0.00  0.00     0.175 C 
HETATM    7  C   UNK N   1      25.494  25.686  -7.482  0.00  0.00     0.048 C 
HETATM    8  C   UNK N   1      27.092  27.075  -6.224  0.00  0.00    -0.003 C 
HETATM    9  C   UNK N   1      28.785  26.876  -8.049  0.00  0.00     0.075 C 
HETATM   10  C   UNK N   1      26.041  26.080  -8.859  0.00  0.00     0.273 C 
HETATM   11  C   UNK N   1      28.036  27.700  -7.024  0.00  0.00    -0.046 C 
HETATM   12  C   UNK N   1      26.852  24.536  -4.140  0.00  0.00     0.171 C 
HETATM   13  C   UNK N   1      28.770  24.799  -5.677  0.00  0.00    -0.020 C 
HETATM   14  C   UNK N   1      26.572  27.646  -5.126  0.00  0.00     0.110 C 
HETATM   15  C   UNK N   1      28.334  24.692  -4.406  0.00  0.00     0.004 C 
HETATM   16  C   UNK N   1      26.908  23.968  -9.576  0.00  0.00     0.310 C 
HETATM   17  C   UNK N   1      28.369  29.032  -6.734  0.00  0.00     0.011 C 
HETATM   18  C   UNK N   1      26.838  28.980  -4.811  0.00  0.00     0.102 C 
HETATM   19  C   UNK N   1      27.736  29.690  -5.652  0.00  0.00     0.040 C 
ENDROOT
BRANCH  12  20
HETATM   20  O   UNK N   1      26.561  24.597  -2.776  0.00  0.00    -0.389 OA
HETATM   21  H   UNK N   1      27.280  24.580  -2.124  0.00  0.00     0.210 HD
ENDBRANCH  12  20
BRANCH  18  22
HETATM   22  O   UNK N   1      26.249  29.555  -3.737  0.00  0.00    -0.353 OA
HETATM   23  C   UNK N   1      26.410  30.883  -3.418  0.00  0.00     0.210 C 
ENDBRANCH  18  22
TORSDOF 2
ENDMDL
MODEL 9
REMARK VINA RESULT:      -6.0     14.358     16.508
REMARK  2 active torsions:
REMARK  status: ('A' for Active; 'I' for Inactive)
REMARK    1  A    between atoms: C_14  and  O_2 
REMARK    2  A    between atoms: O_3  and  C_20 
ROOT
HETATM    1  O   UNK N   1      29.105  24.961  -6.101  0.00  0.00    -0.338 OA
HETATM    2  N   UNK N   1      26.289  29.025  -4.496  0.00  0.00     0.089 N 
HETATM    3  C   UNK N   1      27.893  26.625  -4.949  0.00  0.00     0.030 C 
HETATM    4  C   UNK N   1      26.828  26.653  -3.845  0.00  0.00     0.057 C 
HETATM    5  C   UNK N   1      25.724  27.667  -4.334  0.00  0.00     0.235 C 
HETATM    6  C   UNK N   1      29.042  25.557  -4.834  0.00  0.00     0.175 C 
HETATM    7  C   UNK N   1      28.483  28.031  -5.155  0.00  0.00     0.048 C 
HETATM    8  C   UNK N   1      27.255  26.166  -6.194  0.00  0.00    -0.003 C 
HETATM    9  C   UNK N   1      25.065  27.260  -5.696  0.00  0.00     0.075 C 
HETATM   10  C   UNK N   1      27.402  29.076  -5.454  0.00  0.00     0.273 C 
HETATM   11  C   UNK N   1      25.986  26.513  -6.635  0.00  0.00    -0.046 C 
HETATM   12  C   UNK N   1      28.693  24.532  -3.722  0.00  0.00     0.171 C 
HETATM   13  C   UNK N   1      26.325  25.238  -3.629  0.00  0.00    -0.020 C 
HETATM   14  C   UNK N   1      28.038  25.289  -6.839  0.00  0.00     0.110 C 
HETATM   15  C   UNK N   1      27.215  24.227  -3.592  0.00  0.00     0.004 C 
HETATM   16  C   UNK N   1      26.712  29.603  -3.224  0.00  0.00     0.310 C 
HETATM   17  C   UNK N   1      25.559  26.011  -7.874  0.00  0.00     0.011 C 
HETATM   18  C   UNK N   1      27.681  24.788  -8.093  0.00  0.00     0.102 C 
HETATM   19  C   UNK N   1      26.425  25.182  -8.627  0.00  0.00     0.040 C 
ENDROOT
BRANCH  12  20
HETATM   20  O   UNK N   1      29.456  23.367  -3.820  0.00  0.00    -0.389 OA
HETATM   21  H   UNK N   1      29.278  22.618  -3.230  0.00  0.00     0.210 HD
ENDBRANCH  12  20
BRANCH  18  22
HETATM   22  O   UNK N   1      28.518  23.958  -8.757  0.00  0.00    -0.353 OA
HETATM   23  C   UNK N   1      28.210  22.645  -9.027  0.00  0.00     0.210 C 
ENDBRANCH  18  22
TORSDOF 2
ENDMDL
