REMARK  5 active torsions:
REMARK  status: ('A' for Active; 'I' for Inactive)
REMARK    1  A    between atoms: C_12  and  O_2 
REMARK    2  A    between atoms: C_17  and  N_9 
REMARK       I    between atoms: N_9  and  C_28 
REMARK    3  A    between atoms: C_16  and  C_27 
REMARK    4  A    between atoms: C_18  and  C_28 
REMARK    5  A    between atoms: C_27  and  C_36 
ROOT
HETATM    1  O   UNK N   1       2.760   0.332   0.339  0.00  0.00    -0.296 OA
HETATM    2  O   UNK N   1       2.254   5.700  -0.145  0.00  0.00    -0.271 OA
HETATM    3  O   UNK N   1       5.358   1.819  -1.442  0.00  0.00    -0.268 OA
HETATM    4  N   UNK N   1       3.584   2.399  -0.211  0.00  0.00    -0.277 N 
HETATM    5  N   UNK N   1       1.214   3.705  -0.098  0.00  0.00    -0.338 N 
HETATM    6  C   UNK N   1       1.251   2.265  -0.188  0.00  0.00     0.173 C 
HETATM    7  C   UNK N   1       2.526   1.743   0.485  0.00  0.00     0.276 A 
HETATM    8  C   UNK N   1      -0.069   1.826   0.417  0.00  0.00     0.034 C 
HETATM    9  C   UNK N   1       3.713   3.834  -0.305  0.00  0.00     0.189 C 
HETATM   10  C   UNK N   1       3.976   0.164  -0.418  0.00  0.00     0.220 A 
HETATM   11  C   UNK N   1      -0.091   4.248   0.143  0.00  0.00     0.127 C 
HETATM   12  C   UNK N   1      -1.000   3.024   0.193  0.00  0.00     0.022 C 
HETATM   13  C   UNK N   1       2.341   4.482  -0.191  0.00  0.00     0.243 C 
HETATM   14  C   UNK N   1       4.377   1.520  -0.774  0.00  0.00     0.280 A 
HETATM   15  C   UNK N   1       3.714  -0.689  -1.649  0.00  0.00     0.082 C 
ENDROOT
BRANCH  10  16
HETATM   16  N   UNK N   1       5.066  -0.367   0.375  0.00  0.00    -0.321 N 
HETATM   17  C   UNK N   1       5.046  -1.516   1.082  0.00  0.00     0.226 C 
HETATM   18  O   UNK N   1       4.019  -2.175   1.164  0.00  0.00    -0.273 OA
HETATM   19  H   UNK N   1       5.898   0.159   0.400  0.00  0.00     0.166 HD
BRANCH  17  20
HETATM   20  C   UNK N   1       6.303  -1.999   1.769  0.00  0.00     0.107 C 
HETATM   21  C   UNK N   1       6.544  -3.450   1.412  0.00  0.00     0.027 C 
HETATM   22  C   UNK N   1       6.971  -3.589  -0.045  0.00  0.00     0.054 C 
HETATM   23  C   UNK N   1       8.299  -2.792  -0.259  0.00  0.00     0.235 C 
HETATM   24  C   UNK N   1       7.150  -5.055  -0.284  0.00  0.00    -0.039 A 
HETATM   25  N   UNK N   1       8.063  -1.371   0.088  0.00  0.00     0.090 N 
HETATM   26  C   UNK N   1       9.520  -3.430   0.499  0.00  0.00     0.077 C 
HETATM   27  C   UNK N   1       7.589  -1.188   1.471  0.00  0.00     0.286 C 
HETATM   28  C   UNK N   1       9.271  -0.577  -0.104  0.00  0.00     0.310 C 
HETATM   29  C   UNK N   1       9.509  -4.927   0.308  0.00  0.00    -0.028 A 
HETATM   30  C   UNK N   1       8.389  -5.591  -0.049  0.00  0.00     0.005 A 
HETATM   31  C   UNK N   1      10.494  -5.897   0.476  0.00  0.00     0.096 A 
HETATM   32  C   UNK N   1       8.666  -6.908  -0.104  0.00  0.00     0.043 A 
HETATM   33  N   UNK N   1       9.959  -7.127   0.212  0.00  0.00    -0.365 N 
HETATM   34  C   UNK N   1       7.669  -7.834  -0.417  0.00  0.00     0.030 A 
HETATM   35  H   UNK N   1      10.422  -7.996   0.245  0.00  0.00     0.165 HD
HETATM   36  C   UNK N   1       6.365  -7.335  -0.662  0.00  0.00     0.003 A 
HETATM   37  C   UNK N   1       6.098  -5.943  -0.578  0.00  0.00     0.008 A 
ENDBRANCH  17  20
ENDBRANCH  10  16
BRANCH   7  38
HETATM   38  O   UNK N   1       2.553   2.083   1.842  0.00  0.00    -0.347 OA
HETATM   39  H   UNK N   1       2.766   2.185   2.783  0.00  0.00     0.215 HD
ENDBRANCH   7  38
BRANCH   9  40
HETATM   40  C   UNK N   1       4.620   4.270   0.840  0.00  0.00     0.073 C 
BRANCH  40  41
HETATM   41  C   UNK N   1       5.680   5.201   0.374  0.00  0.00    -0.056 A 
HETATM   42  C   UNK N   1       7.011   4.772   0.337  0.00  0.00     0.007 A 
HETATM   43  C   UNK N   1       8.016   5.649  -0.081  0.00  0.00     0.001 A 
HETATM   44  C   UNK N   1       7.692   6.957  -0.454  0.00  0.00     0.000 A 
HETATM   45  C   UNK N   1       6.362   7.387  -0.410  0.00  0.00     0.001 A 
HETATM   46  C   UNK N   1       5.356   6.510   0.003  0.00  0.00     0.007 A 
ENDBRANCH  40  41
ENDBRANCH   9  40
TORSDOF 5
