MODEL 1
REMARK VINA RESULT:      -8.7      0.000      0.000
REMARK  5 active torsions:
REMARK  status: ('A' for Active; 'I' for Inactive)
REMARK    1  A    between atoms: C_12  and  O_2 
REMARK    2  A    between atoms: C_17  and  N_9 
REMARK       I    between atoms: N_9  and  C_28 
REMARK    3  A    between atoms: C_16  and  C_27 
REMARK    4  A    between atoms: C_18  and  C_28 
REMARK    5  A    between atoms: C_27  and  C_36 
ROOT
HETATM    1  O   UNK N   1      20.643  16.933   5.266  0.00  0.00    -0.296 OA
HETATM    2  O   UNK N   1      20.363  17.230  -0.132  0.00  0.00    -0.271 OA
HETATM    3  O   UNK N   1      18.791  14.359   3.825  0.00  0.00    -0.268 OA
HETATM    4  N   UNK N   1      20.124  16.047   3.217  0.00  0.00    -0.277 N 
HETATM    5  N   UNK N   1      20.393  18.351   1.819  0.00  0.00    -0.338 N 
HETATM    6  C   UNK N   1      20.253  18.380   3.255  0.00  0.00     0.173 C 
HETATM    7  C   UNK N   1      20.847  17.099   3.852  0.00  0.00     0.276 A 
HETATM    8  C   UNK N   1      20.906  19.689   3.660  0.00  0.00     0.034 C 
HETATM    9  C   UNK N   1      20.072  15.861   1.786  0.00  0.00     0.189 C 
HETATM   10  C   UNK N   1      19.824  15.762   5.457  0.00  0.00     0.220 A 
HETATM   11  C   UNK N   1      20.714  19.619   1.231  0.00  0.00     0.127 C 
HETATM   12  C   UNK N   1      20.766  20.577   2.417  0.00  0.00     0.022 C 
HETATM   13  C   UNK N   1      20.273  17.198   1.086  0.00  0.00     0.243 C 
HETATM   14  C   UNK N   1      19.495  15.320   4.107  0.00  0.00     0.280 A 
HETATM   15  C   UNK N   1      18.579  16.117   6.254  0.00  0.00     0.082 C 
ENDROOT
BRANCH  10  16
HETATM   16  N   UNK N   1      20.546  14.660   6.060  0.00  0.00    -0.321 N 
HETATM   17  C   UNK N   1      21.569  14.766   6.934  0.00  0.00     0.226 C 
HETATM   18  O   UNK N   1      22.026  15.863   7.223  0.00  0.00    -0.273 OA
HETATM   19  H   UNK N   1      20.263  13.751   5.810  0.00  0.00     0.166 HD
BRANCH  17  20
HETATM   20  C   UNK N   1      22.148  13.522   7.568  0.00  0.00     0.107 C 
HETATM   21  C   UNK N   1      21.367  12.312   7.105  0.00  0.00     0.027 C 
HETATM   22  C   UNK N   1      21.646  12.012   5.636  0.00  0.00     0.054 C 
HETATM   23  C   UNK N   1      23.173  11.721   5.464  0.00  0.00     0.235 C 
HETATM   24  C   UNK N   1      20.804  10.825   5.290  0.00  0.00    -0.039 A 
HETATM   25  N   UNK N   1      23.938  12.906   5.915  0.00  0.00     0.090 N 
HETATM   26  C   UNK N   1      23.619  10.382   6.158  0.00  0.00     0.077 C 
HETATM   27  C   UNK N   1      23.656  13.275   7.313  0.00  0.00     0.286 C 
HETATM   28  C   UNK N   1      25.373  12.692   5.765  0.00  0.00     0.310 C 
HETATM   29  C   UNK N   1      22.613   9.297   5.860  0.00  0.00    -0.028 A 
HETATM   30  C   UNK N   1      21.353   9.582   5.471  0.00  0.00     0.005 A 
HETATM   31  C   UNK N   1      22.685   7.909   5.946  0.00  0.00     0.096 A 
HETATM   32  C   UNK N   1      20.676   8.427   5.318  0.00  0.00     0.043 A 
HETATM   33  N   UNK N   1      21.474   7.377   5.601  0.00  0.00    -0.365 N 
HETATM   34  C   UNK N   1      19.329   8.434   4.952  0.00  0.00     0.030 A 
HETATM   35  H   UNK N   1      21.232   6.423   5.565  0.00  0.00     0.165 HD
HETATM   36  C   UNK N   1      18.708   9.694   4.759  0.00  0.00     0.003 A 
HETATM   37  C   UNK N   1      19.441  10.895   4.947  0.00  0.00     0.008 A 
ENDBRANCH  17  20
ENDBRANCH  10  16
BRANCH   7  38
HETATM   38  O   UNK N   1      22.212  16.995   3.562  0.00  0.00    -0.347 OA
HETATM   39  H   UNK N   1      23.096  16.708   3.284  0.00  0.00     0.215 HD
ENDBRANCH   7  38
BRANCH   9  40
HETATM   40  C   UNK N   1      21.186  14.885   1.428  0.00  0.00     0.073 C 
BRANCH  40  41
HETATM   41  C   UNK N   1      20.659  13.515   1.195  0.00  0.00    -0.056 A 
HETATM   42  C   UNK N   1      19.473  13.344   0.473  0.00  0.00     0.007 A 
HETATM   43  C   UNK N   1      18.961  12.060   0.267  0.00  0.00     0.001 A 
HETATM   44  C   UNK N   1      19.629  10.948   0.789  0.00  0.00     0.000 A 
HETATM   45  C   UNK N   1      20.811  11.121   1.516  0.00  0.00     0.001 A 
HETATM   46  C   UNK N   1      21.327  12.403   1.719  0.00  0.00     0.007 A 
ENDBRANCH  40  41
ENDBRANCH   9  40
TORSDOF 5
ENDMDL
MODEL 2
REMARK VINA RESULT:      -8.6      3.696      6.044
REMARK  5 active torsions:
REMARK  status: ('A' for Active; 'I' for Inactive)
REMARK    1  A    between atoms: C_12  and  O_2 
REMARK    2  A    between atoms: C_17  and  N_9 
REMARK       I    between atoms: N_9  and  C_28 
REMARK    3  A    between atoms: C_16  and  C_27 
REMARK    4  A    between atoms: C_18  and  C_28 
REMARK    5  A    between atoms: C_27  and  C_36 
ROOT
HETATM    1  O   UNK N   1      22.980  17.660   4.052  0.00  0.00    -0.296 OA
HETATM    2  O   UNK N   1      28.326  16.815   3.958  0.00  0.00    -0.271 OA
HETATM    3  O   UNK N   1      23.867  14.489   2.917  0.00  0.00    -0.268 OA
HETATM    4  N   UNK N   1      24.807  16.291   3.847  0.00  0.00    -0.277 N 
HETATM    5  N   UNK N   1      26.642  18.272   3.637  0.00  0.00    -0.338 N 
HETATM    6  C   UNK N   1      25.241  18.549   3.429  0.00  0.00     0.173 C 
HETATM    7  C   UNK N   1      24.398  17.589   4.276  0.00  0.00     0.276 A 
HETATM    8  C   UNK N   1      25.109  20.028   3.740  0.00  0.00     0.034 C 
HETATM    9  C   UNK N   1      26.171  15.821   3.905  0.00  0.00     0.189 C 
HETATM   10  C   UNK N   1      22.554  16.389   3.520  0.00  0.00     0.220 A 
HETATM   11  C   UNK N   1      27.474  19.439   3.681  0.00  0.00     0.127 C 
HETATM   12  C   UNK N   1      26.505  20.596   3.455  0.00  0.00     0.022 C 
HETATM   13  C   UNK N   1      27.126  17.002   3.822  0.00  0.00     0.243 C 
HETATM   14  C   UNK N   1      23.786  15.625   3.365  0.00  0.00     0.280 A 
HETATM   15  C   UNK N   1      21.842  16.589   2.192  0.00  0.00     0.082 C 
ENDROOT
BRANCH  10  16
HETATM   16  N   UNK N   1      21.743  15.631   4.450  0.00  0.00    -0.321 N 
HETATM   17  C   UNK N   1      20.712  16.110   5.178  0.00  0.00     0.226 C 
HETATM   18  O   UNK N   1      20.438  17.302   5.153  0.00  0.00    -0.273 OA
HETATM   19  H   UNK N   1      21.963  14.678   4.561  0.00  0.00     0.166 HD
BRANCH  17  20
HETATM   20  C   UNK N   1      19.884  15.168   6.021  0.00  0.00     0.107 C 
HETATM   21  C   UNK N   1      20.801  14.220   6.763  0.00  0.00     0.027 C 
HETATM   22  C   UNK N   1      21.568  14.950   7.860  0.00  0.00     0.054 C 
HETATM   23  C   UNK N   1      20.543  15.553   8.875  0.00  0.00     0.235 C 
HETATM   24  C   UNK N   1      22.453  13.925   8.496  0.00  0.00    -0.039 A 
HETATM   25  N   UNK N   1      19.646  16.483   8.150  0.00  0.00     0.090 N 
HETATM   26  C   UNK N   1      19.777  14.450   9.693  0.00  0.00     0.077 C 
HETATM   27  C   UNK N   1      18.926  15.839   7.038  0.00  0.00     0.286 C 
HETATM   28  C   UNK N   1      18.673  17.085   9.055  0.00  0.00     0.310 C 
HETATM   29  C   UNK N   1      20.751  13.393  10.155  0.00  0.00    -0.028 A 
HETATM   30  C   UNK N   1      21.948  13.219   9.556  0.00  0.00     0.005 A 
HETATM   31  C   UNK N   1      20.669  12.417  11.144  0.00  0.00     0.096 A 
HETATM   32  C   UNK N   1      22.581  12.187  10.148  0.00  0.00     0.043 A 
HETATM   33  N   UNK N   1      21.817  11.674  11.134  0.00  0.00    -0.365 N 
HETATM   34  C   UNK N   1      23.834  11.766   9.697  0.00  0.00     0.030 A 
HETATM   35  H   UNK N   1      22.041  10.919  11.726  0.00  0.00     0.165 HD
HETATM   36  C   UNK N   1      24.400  12.456   8.597  0.00  0.00     0.003 A 
HETATM   37  C   UNK N   1      23.702  13.528   7.981  0.00  0.00     0.008 A 
ENDBRANCH  17  20
ENDBRANCH  10  16
BRANCH   7  38
HETATM   38  O   UNK N   1      24.665  17.756   5.640  0.00  0.00    -0.347 OA
HETATM   39  H   UNK N   1      25.041  17.983   6.505  0.00  0.00     0.215 HD
ENDBRANCH   7  38
BRANCH   9  40
HETATM   40  C   UNK N   1      26.326  15.085   5.231  0.00  0.00     0.073 C 
BRANCH  40  41
HETATM   41  C   UNK N   1      26.753  13.677   5.029  0.00  0.00    -0.056 A 
HETATM   42  C   UNK N   1      28.090  13.395   4.727  0.00  0.00     0.007 A 
HETATM   43  C   UNK N   1      28.494  12.074   4.515  0.00  0.00     0.001 A 
HETATM   44  C   UNK N   1      27.561  11.035   4.596  0.00  0.00     0.000 A 
HETATM   45  C   UNK N   1      26.224  11.319   4.891  0.00  0.00     0.001 A 
HETATM   46  C   UNK N   1      25.819  12.638   5.108  0.00  0.00     0.007 A 
ENDBRANCH  40  41
ENDBRANCH   9  40
TORSDOF 5
ENDMDL
MODEL 3
REMARK VINA RESULT:      -8.4      5.062      8.831
REMARK  5 active torsions:
REMARK  status: ('A' for Active; 'I' for Inactive)
REMARK    1  A    between atoms: C_12  and  O_2 
REMARK    2  A    between atoms: C_17  and  N_9 
REMARK       I    between atoms: N_9  and  C_28 
REMARK    3  A    between atoms: C_16  and  C_27 
REMARK    4  A    between atoms: C_18  and  C_28 
REMARK    5  A    between atoms: C_27  and  C_36 
ROOT
HETATM    1  O   UNK N   1      25.358  15.875   2.272  0.00  0.00    -0.296 OA
HETATM    2  O   UNK N   1      22.111  12.463   4.940  0.00  0.00    -0.271 OA
HETATM    3  O   UNK N   1      25.167  16.522   5.689  0.00  0.00    -0.268 OA
HETATM    4  N   UNK N   1      24.522  14.976   4.208  0.00  0.00    -0.277 N 
HETATM    5  N   UNK N   1      22.470  13.637   3.054  0.00  0.00    -0.338 N 
HETATM    6  C   UNK N   1      23.146  14.694   2.341  0.00  0.00     0.173 C 
HETATM    7  C   UNK N   1      24.607  14.768   2.800  0.00  0.00     0.276 A 
HETATM    8  C   UNK N   1      22.905  14.361   0.880  0.00  0.00     0.034 C 
HETATM    9  C   UNK N   1      23.841  14.079   5.111  0.00  0.00     0.189 C 
HETATM   10  C   UNK N   1      25.739  16.716   3.380  0.00  0.00     0.220 A 
HETATM   11  C   UNK N   1      21.535  12.893   2.262  0.00  0.00     0.127 C 
HETATM   12  C   UNK N   1      21.600  13.557   0.890  0.00  0.00     0.022 C 
HETATM   13  C   UNK N   1      22.735  13.344   4.368  0.00  0.00     0.243 C 
HETATM   14  C   UNK N   1      25.107  16.101   4.541  0.00  0.00     0.280 A 
HETATM   15  C   UNK N   1      25.247  18.136   3.154  0.00  0.00     0.082 C 
ENDROOT
BRANCH  10  16
HETATM   16  N   UNK N   1      27.162  16.682   3.650  0.00  0.00    -0.321 N 
HETATM   17  C   UNK N   1      28.090  16.012   2.936  0.00  0.00     0.226 C 
HETATM   18  O   UNK N   1      27.753  15.285   2.011  0.00  0.00    -0.273 OA
HETATM   19  H   UNK N   1      27.482  17.197   4.426  0.00  0.00     0.166 HD
BRANCH  17  20
HETATM   20  C   UNK N   1      29.555  16.166   3.272  0.00  0.00     0.107 C 
HETATM   21  C   UNK N   1      29.694  16.909   4.583  0.00  0.00     0.027 C 
HETATM   22  C   UNK N   1      29.246  16.039   5.752  0.00  0.00     0.054 C 
HETATM   23  C   UNK N   1      30.145  14.761   5.802  0.00  0.00     0.235 C 
HETATM   24  C   UNK N   1      29.401  16.884   6.978  0.00  0.00    -0.039 A 
HETATM   25  N   UNK N   1      30.008  14.032   4.520  0.00  0.00     0.090 N 
HETATM   26  C   UNK N   1      31.636  15.080   6.188  0.00  0.00     0.077 C 
HETATM   27  C   UNK N   1      30.372  14.852   3.351  0.00  0.00     0.286 C 
HETATM   28  C   UNK N   1      30.821  12.821   4.516  0.00  0.00     0.310 C 
HETATM   29  C   UNK N   1      31.664  16.058   7.338  0.00  0.00    -0.028 A 
HETATM   30  C   UNK N   1      30.605  16.842   7.631  0.00  0.00     0.005 A 
HETATM   31  C   UNK N   1      32.662  16.405   8.244  0.00  0.00     0.096 A 
HETATM   32  C   UNK N   1      30.928  17.635   8.671  0.00  0.00     0.043 A 
HETATM   33  N   UNK N   1      32.191  17.385   9.073  0.00  0.00    -0.365 N 
HETATM   34  C   UNK N   1      30.020  18.576   9.160  0.00  0.00     0.030 A 
HETATM   35  H   UNK N   1      32.675  17.820   9.813  0.00  0.00     0.165 HD
HETATM   36  C   UNK N   1      28.761  18.667   8.516  0.00  0.00     0.003 A 
HETATM   37  C   UNK N   1      28.454  17.832   7.409  0.00  0.00     0.008 A 
ENDBRANCH  17  20
ENDBRANCH  10  16
BRANCH   7  38
HETATM   38  O   UNK N   1      25.281  13.573   2.525  0.00  0.00    -0.347 OA
HETATM   39  H   UNK N   1      25.784  12.745   2.568  0.00  0.00     0.215 HD
ENDBRANCH   7  38
BRANCH   9  40
HETATM   40  C   UNK N   1      24.888  13.105   5.637  0.00  0.00     0.073 C 
BRANCH  40  41
HETATM   41  C   UNK N   1      24.724  12.858   7.093  0.00  0.00    -0.056 A 
HETATM   42  C   UNK N   1      25.251  13.770   8.013  0.00  0.00     0.007 A 
HETATM   43  C   UNK N   1      25.118  13.533   9.385  0.00  0.00     0.001 A 
HETATM   44  C   UNK N   1      24.465  12.382   9.836  0.00  0.00     0.000 A 
HETATM   45  C   UNK N   1      23.945  11.468   8.915  0.00  0.00     0.001 A 
HETATM   46  C   UNK N   1      24.073  11.705   7.544  0.00  0.00     0.007 A 
ENDBRANCH  40  41
ENDBRANCH   9  40
TORSDOF 5
ENDMDL
MODEL 4
REMARK VINA RESULT:      -8.4      8.811     12.413
REMARK  5 active torsions:
REMARK  status: ('A' for Active; 'I' for Inactive)
REMARK    1  A    between atoms: C_12  and  O_2 
REMARK    2  A    between atoms: C_17  and  N_9 
REMARK       I    between atoms: N_9  and  C_28 
REMARK    3  A    between atoms: C_16  and  C_27 
REMARK    4  A    between atoms: C_18  and  C_28 
REMARK    5  A    between atoms: C_27  and  C_36 
ROOT
HETATM    1  O   UNK N   1      31.337  14.469   4.681  0.00  0.00    -0.296 OA
HETATM    2  O   UNK N   1      26.720  15.519   2.057  0.00  0.00    -0.271 OA
HETATM    3  O   UNK N   1      30.728  17.870   4.246  0.00  0.00    -0.268 OA
HETATM    4  N   UNK N   1      29.700  15.905   3.965  0.00  0.00    -0.277 N 
HETATM    5  N   UNK N   1      28.514  14.175   2.252  0.00  0.00    -0.338 N 
HETATM    6  C   UNK N   1      29.850  13.922   2.737  0.00  0.00     0.173 C 
HETATM    7  C   UNK N   1      30.007  14.523   4.139  0.00  0.00     0.276 A 
HETATM    8  C   UNK N   1      30.004  12.417   2.618  0.00  0.00     0.034 C 
HETATM    9  C   UNK N   1      28.447  16.387   3.437  0.00  0.00     0.189 C 
HETATM   10  C   UNK N   1      31.797  15.825   4.854  0.00  0.00     0.220 A 
HETATM   11  C   UNK N   1      27.942  13.091   1.507  0.00  0.00     0.127 C 
HETATM   12  C   UNK N   1      29.038  12.030   1.492  0.00  0.00     0.022 C 
HETATM   13  C   UNK N   1      27.836  15.337   2.521  0.00  0.00     0.243 C 
HETATM   14  C   UNK N   1      30.723  16.648   4.310  0.00  0.00     0.280 A 
HETATM   15  C   UNK N   1      33.104  16.034   4.106  0.00  0.00     0.082 C 
ENDROOT
BRANCH  10  16
HETATM   16  N   UNK N   1      31.913  16.209   6.246  0.00  0.00    -0.321 N 
HETATM   17  C   UNK N   1      31.852  15.376   7.306  0.00  0.00     0.226 C 
HETATM   18  O   UNK N   1      31.601  14.190   7.148  0.00  0.00    -0.273 OA
HETATM   19  H   UNK N   1      32.049  17.165   6.436  0.00  0.00     0.166 HD
BRANCH  17  20
HETATM   20  C   UNK N   1      32.107  15.910   8.697  0.00  0.00     0.107 C 
HETATM   21  C   UNK N   1      32.899  14.891   9.488  0.00  0.00     0.027 C 
HETATM   22  C   UNK N   1      34.332  14.798   8.976  0.00  0.00     0.054 C 
HETATM   23  C   UNK N   1      35.014  16.196   9.133  0.00  0.00     0.235 C 
HETATM   24  C   UNK N   1      35.000  13.750   9.809  0.00  0.00    -0.039 A 
HETATM   25  N   UNK N   1      34.241  17.194   8.357  0.00  0.00     0.090 N 
HETATM   26  C   UNK N   1      35.233  16.601  10.637  0.00  0.00     0.077 C 
HETATM   27  C   UNK N   1      32.830  17.278   8.774  0.00  0.00     0.286 C 
HETATM   28  C   UNK N   1      34.841  18.518   8.460  0.00  0.00     0.310 C 
HETATM   29  C   UNK N   1      35.768  15.419  11.407  0.00  0.00    -0.028 A 
HETATM   30  C   UNK N   1      35.621  14.153  10.962  0.00  0.00     0.005 A 
HETATM   31  C   UNK N   1      36.417  15.322  12.636  0.00  0.00     0.096 A 
HETATM   32  C   UNK N   1      36.156  13.312  11.867  0.00  0.00     0.043 A 
HETATM   33  N   UNK N   1      36.658  14.005  12.910  0.00  0.00    -0.365 N 
HETATM   34  C   UNK N   1      36.108  11.930  11.672  0.00  0.00     0.030 A 
HETATM   35  H   UNK N   1      37.107  13.636  13.705  0.00  0.00     0.165 HD
HETATM   36  C   UNK N   1      35.470  11.456  10.498  0.00  0.00     0.003 A 
HETATM   37  C   UNK N   1      34.897  12.366   9.571  0.00  0.00     0.008 A 
ENDBRANCH  17  20
ENDBRANCH  10  16
BRANCH   7  38
HETATM   38  O   UNK N   1      29.111  13.936   5.040  0.00  0.00    -0.347 OA
HETATM   39  H   UNK N   1      28.486  13.357   5.504  0.00  0.00     0.215 HD
ENDBRANCH   7  38
BRANCH   9  40
HETATM   40  C   UNK N   1      27.542  16.662   4.632  0.00  0.00     0.073 C 
BRANCH  40  41
HETATM   41  C   UNK N   1      27.404  18.119   4.890  0.00  0.00    -0.056 A 
HETATM   42  C   UNK N   1      26.978  18.967   3.863  0.00  0.00     0.007 A 
HETATM   43  C   UNK N   1      26.865  20.341   4.093  0.00  0.00     0.001 A 
HETATM   44  C   UNK N   1      27.186  20.869   5.347  0.00  0.00     0.000 A 
HETATM   45  C   UNK N   1      27.619  20.021   6.372  0.00  0.00     0.001 A 
HETATM   46  C   UNK N   1      27.728  18.647   6.144  0.00  0.00     0.007 A 
ENDBRANCH  40  41
ENDBRANCH   9  40
TORSDOF 5
ENDMDL
MODEL 5
REMARK VINA RESULT:      -8.4     15.354     18.548
REMARK  5 active torsions:
REMARK  status: ('A' for Active; 'I' for Inactive)
REMARK    1  A    between atoms: C_12  and  O_2 
REMARK    2  A    between atoms: C_17  and  N_9 
REMARK       I    between atoms: N_9  and  C_28 
REMARK    3  A    between atoms: C_16  and  C_27 
REMARK    4  A    between atoms: C_18  and  C_28 
REMARK    5  A    between atoms: C_27  and  C_36 
ROOT
HETATM    1  O   UNK N   1      28.039  21.560 -10.173  0.00  0.00    -0.296 OA
HETATM    2  O   UNK N   1      31.273  19.537  -6.332  0.00  0.00    -0.271 OA
HETATM    3  O   UNK N   1      26.877  22.123  -6.938  0.00  0.00    -0.268 OA
HETATM    4  N   UNK N   1      28.693  21.346  -7.987  0.00  0.00    -0.277 N 
HETATM    5  N   UNK N   1      30.385  19.269  -8.383  0.00  0.00    -0.338 N 
HETATM    6  C   UNK N   1      29.397  19.606  -9.379  0.00  0.00     0.173 C 
HETATM    7  C   UNK N   1      29.114  21.113  -9.329  0.00  0.00     0.276 A 
HETATM    8  C   UNK N   1      29.978  19.063 -10.670  0.00  0.00     0.034 C 
HETATM    9  C   UNK N   1      29.494  21.029  -6.829  0.00  0.00     0.189 C 
HETATM   10  C   UNK N   1      27.001  22.086  -9.322  0.00  0.00     0.220 A 
HETATM   11  C   UNK N   1      31.330  18.276  -8.801  0.00  0.00     0.127 C 
HETATM   12  C   UNK N   1      30.890  17.916 -10.217  0.00  0.00     0.022 C 
HETATM   13  C   UNK N   1      30.439  19.882  -7.156  0.00  0.00     0.243 C 
HETATM   14  C   UNK N   1      27.479  21.842  -7.966  0.00  0.00     0.280 A 
HETATM   15  C   UNK N   1      25.687  21.372  -9.594  0.00  0.00     0.082 C 
ENDROOT
BRANCH  10  16
HETATM   16  N   UNK N   1      26.857  23.524  -9.429  0.00  0.00    -0.321 N 
HETATM   17  C   UNK N   1      25.776  24.242  -9.060  0.00  0.00     0.226 C 
HETATM   18  O   UNK N   1      24.765  23.681  -8.664  0.00  0.00    -0.273 OA
HETATM   19  H   UNK N   1      27.618  24.022  -9.806  0.00  0.00     0.166 HD
BRANCH  17  20
HETATM   20  C   UNK N   1      25.818  25.752  -9.125  0.00  0.00     0.107 C 
HETATM   21  C   UNK N   1      25.811  26.316  -7.720  0.00  0.00     0.027 C 
HETATM   22  C   UNK N   1      27.138  26.046  -7.019  0.00  0.00     0.054 C 
HETATM   23  C   UNK N   1      28.285  26.733  -7.829  0.00  0.00     0.235 C 
HETATM   24  C   UNK N   1      27.000  26.619  -5.643  0.00  0.00    -0.039 A 
HETATM   25  N   UNK N   1      28.294  26.180  -9.204  0.00  0.00     0.090 N 
HETATM   26  C   UNK N   1      28.207  28.302  -7.784  0.00  0.00     0.077 C 
HETATM   27  C   UNK N   1      27.011  26.361  -9.905  0.00  0.00     0.286 C 
HETATM   28  C   UNK N   1      29.355  26.780 -10.003  0.00  0.00     0.310 C 
HETATM   29  C   UNK N   1      27.916  28.754  -6.373  0.00  0.00    -0.028 A 
HETATM   30  C   UNK N   1      27.365  27.927  -5.460  0.00  0.00     0.005 A 
HETATM   31  C   UNK N   1      28.064  29.985  -5.738  0.00  0.00     0.096 A 
HETATM   32  C   UNK N   1      27.184  28.608  -4.312  0.00  0.00     0.043 A 
HETATM   33  N   UNK N   1      27.609  29.881  -4.453  0.00  0.00    -0.365 N 
HETATM   34  C   UNK N   1      26.594  27.997  -3.205  0.00  0.00     0.030 A 
HETATM   35  H   UNK N   1      27.595  30.590  -3.768  0.00  0.00     0.165 HD
HETATM   36  C   UNK N   1      26.189  26.645  -3.341  0.00  0.00     0.003 A 
HETATM   37  C   UNK N   1      26.375  25.957  -4.570  0.00  0.00     0.008 A 
ENDBRANCH  17  20
ENDBRANCH  10  16
BRANCH   7  38
HETATM   38  O   UNK N   1      30.268  21.850  -9.612  0.00  0.00    -0.347 OA
HETATM   39  H   UNK N   1      31.168  22.148  -9.820  0.00  0.00     0.215 HD
ENDBRANCH   7  38
BRANCH   9  40
HETATM   40  C   UNK N   1      30.270  22.291  -6.471  0.00  0.00     0.073 C 
BRANCH  40  41
HETATM   41  C   UNK N   1      30.132  22.629  -5.031  0.00  0.00    -0.056 A 
HETATM   42  C   UNK N   1      31.060  22.131  -4.111  0.00  0.00     0.007 A 
HETATM   43  C   UNK N   1      30.924  22.428  -2.751  0.00  0.00     0.001 A 
HETATM   44  C   UNK N   1      29.856  23.216  -2.311  0.00  0.00     0.000 A 
HETATM   45  C   UNK N   1      28.925  23.708  -3.231  0.00  0.00     0.001 A 
HETATM   46  C   UNK N   1      29.062  23.416  -4.590  0.00  0.00     0.007 A 
ENDBRANCH  40  41
ENDBRANCH   9  40
TORSDOF 5
ENDMDL
MODEL 6
REMARK VINA RESULT:      -8.3     12.325     17.308
REMARK  5 active torsions:
REMARK  status: ('A' for Active; 'I' for Inactive)
REMARK    1  A    between atoms: C_12  and  O_2 
REMARK    2  A    between atoms: C_17  and  N_9 
REMARK       I    between atoms: N_9  and  C_28 
REMARK    3  A    between atoms: C_16  and  C_27 
REMARK    4  A    between atoms: C_18  and  C_28 
REMARK    5  A    between atoms: C_27  and  C_36 
ROOT
HETATM    1  O   UNK N   1      34.669  13.542  12.765  0.00  0.00    -0.296 OA
HETATM    2  O   UNK N   1      37.822   9.952  15.311  0.00  0.00    -0.271 OA
HETATM    3  O   UNK N   1      37.658  12.887  11.100  0.00  0.00    -0.268 OA
HETATM    4  N   UNK N   1      36.476  12.132  12.841  0.00  0.00    -0.277 N 
HETATM    5  N   UNK N   1      36.383  11.671  15.508  0.00  0.00    -0.338 N 
HETATM    6  C   UNK N   1      35.680  12.794  14.936  0.00  0.00     0.173 C 
HETATM    7  C   UNK N   1      35.254  12.454  13.503  0.00  0.00     0.276 A 
HETATM    8  C   UNK N   1      34.568  13.075  15.930  0.00  0.00     0.034 C 
HETATM    9  C   UNK N   1      37.371  11.086  13.275  0.00  0.00     0.189 C 
HETATM   10  C   UNK N   1      35.537  13.834  11.651  0.00  0.00     0.220 A 
HETATM   11  C   UNK N   1      36.097  11.439  16.894  0.00  0.00     0.127 C 
HETATM   12  C   UNK N   1      35.116  12.547  17.262  0.00  0.00     0.022 C 
HETATM   13  C   UNK N   1      37.220  10.869  14.773  0.00  0.00     0.243 C 
HETATM   14  C   UNK N   1      36.676  12.941  11.829  0.00  0.00     0.280 A 
HETATM   15  C   UNK N   1      35.955  15.295  11.681  0.00  0.00     0.082 C 
ENDROOT
BRANCH  10  16
HETATM   16  N   UNK N   1      34.957  13.473  10.374  0.00  0.00    -0.321 N 
HETATM   17  C   UNK N   1      33.887  14.058   9.795  0.00  0.00     0.226 C 
HETATM   18  O   UNK N   1      33.260  14.925  10.386  0.00  0.00    -0.273 OA
HETATM   19  H   UNK N   1      35.382  12.733   9.883  0.00  0.00     0.166 HD
BRANCH  17  20
HETATM   20  C   UNK N   1      33.467  13.647   8.402  0.00  0.00     0.107 C 
HETATM   21  C   UNK N   1      32.330  14.532   7.940  0.00  0.00     0.027 C 
HETATM   22  C   UNK N   1      32.820  15.948   7.659  0.00  0.00     0.054 C 
HETATM   23  C   UNK N   1      33.903  15.892   6.532  0.00  0.00     0.235 C 
HETATM   24  C   UNK N   1      31.613  16.727   7.241  0.00  0.00    -0.039 A 
HETATM   25  N   UNK N   1      35.018  15.028   6.985  0.00  0.00     0.090 N 
HETATM   26  C   UNK N   1      33.309  15.473   5.138  0.00  0.00     0.077 C 
HETATM   27  C   UNK N   1      34.584  13.662   7.328  0.00  0.00     0.286 C 
HETATM   28  C   UNK N   1      36.064  14.949   5.973  0.00  0.00     0.310 C 
HETATM   29  C   UNK N   1      32.016  16.213   4.895  0.00  0.00    -0.028 A 
HETATM   30  C   UNK N   1      31.304  16.754   5.907  0.00  0.00     0.005 A 
HETATM   31  C   UNK N   1      31.283  16.456   3.736  0.00  0.00     0.096 A 
HETATM   32  C   UNK N   1      30.187  17.310   5.400  0.00  0.00     0.043 A 
HETATM   33  N   UNK N   1      30.148  17.145   4.062  0.00  0.00    -0.365 N 
HETATM   34  C   UNK N   1      29.248  17.914   6.239  0.00  0.00     0.030 A 
HETATM   35  H   UNK N   1      29.445  17.458   3.446  0.00  0.00     0.165 HD
HETATM   36  C   UNK N   1      29.513  17.908   7.631  0.00  0.00     0.003 A 
HETATM   37  C   UNK N   1      30.690  17.297   8.138  0.00  0.00     0.008 A 
ENDBRANCH  17  20
ENDBRANCH  10  16
BRANCH   7  38
HETATM   38  O   UNK N   1      34.387  11.357  13.483  0.00  0.00    -0.347 OA
HETATM   39  H   UNK N   1      33.874  10.558  13.684  0.00  0.00     0.215 HD
ENDBRANCH   7  38
BRANCH   9  40
HETATM   40  C   UNK N   1      36.987   9.830  12.500  0.00  0.00     0.073 C 
BRANCH  40  41
HETATM   41  C   UNK N   1      38.160   9.232  11.813  0.00  0.00    -0.056 A 
HETATM   42  C   UNK N   1      38.973   8.320  12.496  0.00  0.00     0.007 A 
HETATM   43  C   UNK N   1      40.090   7.769  11.861  0.00  0.00     0.001 A 
HETATM   44  C   UNK N   1      40.400   8.135  10.548  0.00  0.00     0.000 A 
HETATM   45  C   UNK N   1      39.591   9.052   9.869  0.00  0.00     0.001 A 
HETATM   46  C   UNK N   1      38.472   9.600  10.500  0.00  0.00     0.007 A 
ENDBRANCH  40  41
ENDBRANCH   9  40
TORSDOF 5
ENDMDL
MODEL 7
REMARK VINA RESULT:      -8.2     11.045     15.986
REMARK  5 active torsions:
REMARK  status: ('A' for Active; 'I' for Inactive)
REMARK    1  A    between atoms: C_12  and  O_2 
REMARK    2  A    between atoms: C_17  and  N_9 
REMARK       I    between atoms: N_9  and  C_28 
REMARK    3  A    between atoms: C_16  and  C_27 
REMARK    4  A    between atoms: C_18  and  C_28 
REMARK    5  A    between atoms: C_27  and  C_36 
ROOT
HETATM    1  O   UNK N   1      35.627  14.197  10.782  0.00  0.00    -0.296 OA
HETATM    2  O   UNK N   1      35.910  10.422  14.651  0.00  0.00    -0.271 OA
HETATM    3  O   UNK N   1      36.232  10.993   9.557  0.00  0.00    -0.268 OA
HETATM    4  N   UNK N   1      35.701  12.014  11.474  0.00  0.00    -0.277 N 
HETATM    5  N   UNK N   1      36.378  12.538  14.044  0.00  0.00    -0.338 N 
HETATM    6  C   UNK N   1      36.542  13.546  13.025  0.00  0.00     0.173 C 
HETATM    7  C   UNK N   1      35.485  13.347  11.932  0.00  0.00     0.276 A 
HETATM    8  C   UNK N   1      36.492  14.854  13.792  0.00  0.00     0.034 C 
HETATM    9  C   UNK N   1      35.647  10.853  12.331  0.00  0.00     0.189 C 
HETATM   10  C   UNK N   1      35.896  13.355   9.643  0.00  0.00     0.220 A 
HETATM   11  C   UNK N   1      36.596  13.008  15.380  0.00  0.00     0.127 C 
HETATM   12  C   UNK N   1      36.963  14.478  15.203  0.00  0.00     0.022 C 
HETATM   13  C   UNK N   1      36.001  11.250  13.757  0.00  0.00     0.243 C 
HETATM   14  C   UNK N   1      35.991  12.009  10.196  0.00  0.00     0.280 A 
HETATM   15  C   UNK N   1      37.190  13.781   8.968  0.00  0.00     0.082 C 
ENDROOT
BRANCH  10  16
HETATM   16  N   UNK N   1      34.795  13.310   8.701  0.00  0.00    -0.321 N 
HETATM   17  C   UNK N   1      33.674  14.059   8.756  0.00  0.00     0.226 C 
HETATM   18  O   UNK N   1      33.474  14.806   9.703  0.00  0.00    -0.273 OA
HETATM   19  H   UNK N   1      34.873  12.675   7.953  0.00  0.00     0.166 HD
BRANCH  17  20
HETATM   20  C   UNK N   1      32.663  13.983   7.634  0.00  0.00     0.107 C 
HETATM   21  C   UNK N   1      31.536  14.955   7.908  0.00  0.00     0.027 C 
HETATM   22  C   UNK N   1      32.006  16.396   7.742  0.00  0.00     0.054 C 
HETATM   23  C   UNK N   1      32.497  16.598   6.271  0.00  0.00     0.235 C 
HETATM   24  C   UNK N   1      30.825  17.255   8.063  0.00  0.00    -0.039 A 
HETATM   25  N   UNK N   1      33.603  15.649   6.003  0.00  0.00     0.090 N 
HETATM   26  C   UNK N   1      31.329  16.515   5.223  0.00  0.00     0.077 C 
HETATM   27  C   UNK N   1      33.215  14.242   6.210  0.00  0.00     0.286 C 
HETATM   28  C   UNK N   1      34.107  15.802   4.643  0.00  0.00     0.310 C 
HETATM   29  C   UNK N   1      30.139  17.296   5.726  0.00  0.00    -0.028 A 
HETATM   30  C   UNK N   1      29.984  17.592   7.035  0.00  0.00     0.005 A 
HETATM   31  C   UNK N   1      29.015  17.804   5.081  0.00  0.00     0.096 A 
HETATM   32  C   UNK N   1      28.822  18.254   7.193  0.00  0.00     0.043 A 
HETATM   33  N   UNK N   1      28.203  18.403   6.004  0.00  0.00    -0.365 N 
HETATM   34  C   UNK N   1      28.395  18.651   8.462  0.00  0.00     0.030 A 
HETATM   35  H   UNK N   1      27.343  18.852   5.836  0.00  0.00     0.165 HD
HETATM   36  C   UNK N   1      29.223  18.322   9.565  0.00  0.00     0.003 A 
HETATM   37  C   UNK N   1      30.433  17.606   9.369  0.00  0.00     0.008 A 
ENDBRANCH  17  20
ENDBRANCH  10  16
BRANCH   7  38
HETATM   38  O   UNK N   1      34.193  13.478  12.453  0.00  0.00    -0.347 OA
HETATM   39  H   UNK N   1      33.390  13.452  12.997  0.00  0.00     0.215 HD
ENDBRANCH   7  38
BRANCH   9  40
HETATM   40  C   UNK N   1      34.224  10.313  12.252  0.00  0.00     0.073 C 
BRANCH  40  41
HETATM   41  C   UNK N   1      34.191   8.937  11.692  0.00  0.00    -0.056 A 
HETATM   42  C   UNK N   1      35.013   7.947  12.241  0.00  0.00     0.007 A 
HETATM   43  C   UNK N   1      35.002   6.655  11.707  0.00  0.00     0.001 A 
HETATM   44  C   UNK N   1      34.176   6.356  10.619  0.00  0.00     0.000 A 
HETATM   45  C   UNK N   1      33.361   7.348  10.066  0.00  0.00     0.001 A 
HETATM   46  C   UNK N   1      33.367   8.638  10.603  0.00  0.00     0.007 A 
ENDBRANCH  40  41
ENDBRANCH   9  40
TORSDOF 5
ENDMDL
MODEL 8
REMARK VINA RESULT:      -8.1     13.399     18.703
REMARK  5 active torsions:
REMARK  status: ('A' for Active; 'I' for Inactive)
REMARK    1  A    between atoms: C_12  and  O_2 
REMARK    2  A    between atoms: C_17  and  N_9 
REMARK       I    between atoms: N_9  and  C_28 
REMARK    3  A    between atoms: C_16  and  C_27 
REMARK    4  A    between atoms: C_18  and  C_28 
REMARK    5  A    between atoms: C_27  and  C_36 
ROOT
HETATM    1  O   UNK N   1      35.849   8.807  11.911  0.00  0.00    -0.296 OA
HETATM    2  O   UNK N   1      35.837   7.676  17.205  0.00  0.00    -0.271 OA
HETATM    3  O   UNK N   1      33.977  11.050  13.808  0.00  0.00    -0.268 OA
HETATM    4  N   UNK N   1      35.397   9.346  14.093  0.00  0.00    -0.277 N 
HETATM    5  N   UNK N   1      35.814   6.869  15.105  0.00  0.00    -0.338 N 
HETATM    6  C   UNK N   1      35.607   7.054  13.688  0.00  0.00     0.173 C 
HETATM    7  C   UNK N   1      36.126   8.435  13.272  0.00  0.00     0.276 A 
HETATM    8  C   UNK N   1      36.286   5.852  13.059  0.00  0.00     0.034 C 
HETATM    9  C   UNK N   1      35.406   9.308  15.536  0.00  0.00     0.189 C 
HETATM   10  C   UNK N   1      34.981   9.958  11.938  0.00  0.00     0.220 A 
HETATM   11  C   UNK N   1      36.207   5.540  15.475  0.00  0.00     0.127 C 
HETATM   12  C   UNK N   1      36.237   4.779  14.154  0.00  0.00     0.022 C 
HETATM   13  C   UNK N   1      35.687   7.890  16.011  0.00  0.00     0.243 C 
HETATM   14  C   UNK N   1      34.700  10.174  13.352  0.00  0.00     0.280 A 
HETATM   15  C   UNK N   1      33.713   9.677  11.147  0.00  0.00     0.082 C 
ENDROOT
BRANCH  10  16
HETATM   16  N   UNK N   1      35.633  11.169  11.483  0.00  0.00    -0.321 N 
HETATM   17  C   UNK N   1      36.031  11.429  10.220  0.00  0.00     0.226 C 
HETATM   18  O   UNK N   1      35.929  10.576   9.350  0.00  0.00    -0.273 OA
HETATM   19  H   UNK N   1      35.803  11.866  12.158  0.00  0.00     0.166 HD
BRANCH  17  20
HETATM   20  C   UNK N   1      36.596  12.788   9.874  0.00  0.00     0.107 C 
HETATM   21  C   UNK N   1      35.648  13.500   8.933  0.00  0.00     0.027 C 
HETATM   22  C   UNK N   1      34.375  13.922   9.658  0.00  0.00     0.054 C 
HETATM   23  C   UNK N   1      34.756  14.897  10.819  0.00  0.00     0.235 C 
HETATM   24  C   UNK N   1      33.514  14.583   8.628  0.00  0.00    -0.039 A 
HETATM   25  N   UNK N   1      35.682  14.199  11.742  0.00  0.00     0.090 N 
HETATM   26  C   UNK N   1      35.306  16.276  10.300  0.00  0.00     0.077 C 
HETATM   27  C   UNK N   1      36.903  13.717  11.075  0.00  0.00     0.286 C 
HETATM   28  C   UNK N   1      36.062  15.063  12.854  0.00  0.00     0.310 C 
HETATM   29  C   UNK N   1      34.444  16.770   9.164  0.00  0.00    -0.028 A 
HETATM   30  C   UNK N   1      33.657  15.935   8.452  0.00  0.00     0.005 A 
HETATM   31  C   UNK N   1      34.289  18.028   8.588  0.00  0.00     0.096 A 
HETATM   32  C   UNK N   1      33.041  16.641   7.485  0.00  0.00     0.043 A 
HETATM   33  N   UNK N   1      33.409  17.937   7.546  0.00  0.00    -0.365 N 
HETATM   34  C   UNK N   1      32.189  16.012   6.575  0.00  0.00     0.030 A 
HETATM   35  H   UNK N   1      33.105  18.668   6.960  0.00  0.00     0.165 HD
HETATM   36  C   UNK N   1      32.011  14.612   6.705  0.00  0.00     0.003 A 
HETATM   37  C   UNK N   1      32.688  13.890   7.723  0.00  0.00     0.008 A 
ENDBRANCH  17  20
ENDBRANCH  10  16
BRANCH   7  38
HETATM   38  O   UNK N   1      37.498   8.552  13.518  0.00  0.00    -0.347 OA
HETATM   39  H   UNK N   1      38.376   8.722  13.895  0.00  0.00     0.215 HD
ENDBRANCH   7  38
BRANCH   9  40
HETATM   40  C   UNK N   1      36.501  10.265  15.994  0.00  0.00     0.073 C 
BRANCH  40  41
HETATM   41  C   UNK N   1      35.972  11.298  16.922  0.00  0.00    -0.056 A 
HETATM   42  C   UNK N   1      35.688  12.581  16.441  0.00  0.00     0.007 A 
HETATM   43  C   UNK N   1      35.209  13.563  17.313  0.00  0.00     0.001 A 
HETATM   44  C   UNK N   1      35.022  13.266  18.666  0.00  0.00     0.000 A 
HETATM   45  C   UNK N   1      35.312  11.985  19.147  0.00  0.00     0.001 A 
HETATM   46  C   UNK N   1      35.787  11.001  18.276  0.00  0.00     0.007 A 
ENDBRANCH  40  41
ENDBRANCH   9  40
TORSDOF 5
ENDMDL
MODEL 9
REMARK VINA RESULT:      -8.1     14.657     16.803
REMARK  5 active torsions:
REMARK  status: ('A' for Active; 'I' for Inactive)
REMARK    1  A    between atoms: C_12  and  O_2 
REMARK    2  A    between atoms: C_17  and  N_9 
REMARK       I    between atoms: N_9  and  C_28 
REMARK    3  A    between atoms: C_16  and  C_27 
REMARK    4  A    between atoms: C_18  and  C_28 
REMARK    5  A    between atoms: C_27  and  C_36 
ROOT
HETATM    1  O   UNK N   1      29.491  25.238  -3.360  0.00  0.00    -0.296 OA
HETATM    2  O   UNK N   1      27.476  27.898  -7.622  0.00  0.00    -0.271 OA
HETATM    3  O   UNK N   1      27.577  23.235  -5.471  0.00  0.00    -0.268 OA
HETATM    4  N   UNK N   1      28.449  25.293  -5.400  0.00  0.00    -0.277 N 
HETATM    5  N   UNK N   1      27.999  27.964  -5.435  0.00  0.00    -0.338 N 
HETATM    6  C   UNK N   1      28.322  27.293  -4.198  0.00  0.00     0.173 C 
HETATM    7  C   UNK N   1      29.215  26.081  -4.491  0.00  0.00     0.276 A 
HETATM    8  C   UNK N   1      28.919  28.387  -3.333  0.00  0.00     0.034 C 
HETATM    9  C   UNK N   1      27.965  25.779  -6.671  0.00  0.00     0.189 C 
HETATM   10  C   UNK N   1      28.912  23.944  -3.624  0.00  0.00     0.220 A 
HETATM   11  C   UNK N   1      27.973  29.394  -5.340  0.00  0.00     0.127 C 
HETATM   12  C   UNK N   1      28.293  29.677  -3.876  0.00  0.00     0.022 C 
HETATM   13  C   UNK N   1      27.782  27.288  -6.609  0.00  0.00     0.243 C 
HETATM   14  C   UNK N   1      28.222  24.104  -4.898  0.00  0.00     0.280 A 
HETATM   15  C   UNK N   1      27.954  23.560  -2.507  0.00  0.00     0.082 C 
ENDROOT
BRANCH  10  16
HETATM   16  N   UNK N   1      29.907  22.915  -3.848  0.00  0.00    -0.321 N 
HETATM   17  C   UNK N   1      30.774  22.437  -2.932  0.00  0.00     0.226 C 
HETATM   18  O   UNK N   1      30.828  22.930  -1.814  0.00  0.00    -0.273 OA
HETATM   19  H   UNK N   1      29.954  22.529  -4.752  0.00  0.00     0.166 HD
BRANCH  17  20
HETATM   20  C   UNK N   1      31.679  21.278  -3.284  0.00  0.00     0.107 C 
HETATM   21  C   UNK N   1      31.129  20.564  -4.500  0.00  0.00     0.027 C 
HETATM   22  C   UNK N   1      31.294  21.416  -5.753  0.00  0.00     0.054 C 
HETATM   23  C   UNK N   1      32.816  21.692  -5.979  0.00  0.00     0.235 C 
HETATM   24  C   UNK N   1      30.694  20.624  -6.872  0.00  0.00    -0.039 A 
HETATM   25  N   UNK N   1      33.355  22.393  -4.790  0.00  0.00     0.090 N 
HETATM   26  C   UNK N   1      33.619  20.395  -6.361  0.00  0.00     0.077 C 
HETATM   27  C   UNK N   1      33.165  21.636  -3.540  0.00  0.00     0.286 C 
HETATM   28  C   UNK N   1      34.774  22.685  -4.952  0.00  0.00     0.310 C 
HETATM   29  C   UNK N   1      32.844  19.603  -7.385  0.00  0.00    -0.028 A 
HETATM   30  C   UNK N   1      31.515  19.767  -7.555  0.00  0.00     0.005 A 
HETATM   31  C   UNK N   1      33.223  18.595  -8.268  0.00  0.00     0.096 A 
HETATM   32  C   UNK N   1      31.090  18.906  -8.501  0.00  0.00     0.043 A 
HETATM   33  N   UNK N   1      32.124  18.172  -8.962  0.00  0.00    -0.365 N 
HETATM   34  C   UNK N   1      29.740  18.839  -8.850  0.00  0.00     0.030 A 
HETATM   35  H   UNK N   1      32.091  17.473  -9.656  0.00  0.00     0.165 HD
HETATM   36  C   UNK N   1      28.844  19.700  -8.168  0.00  0.00     0.003 A 
HETATM   37  C   UNK N   1      29.317  20.583  -7.162  0.00  0.00     0.008 A 
ENDBRANCH  17  20
ENDBRANCH  10  16
BRANCH   7  38
HETATM   38  O   UNK N   1      30.418  26.476  -5.085  0.00  0.00    -0.347 OA
HETATM   39  H   UNK N   1      31.274  26.879  -5.301  0.00  0.00     0.215 HD
ENDBRANCH   7  38
BRANCH   9  40
HETATM   40  C   UNK N   1      29.009  25.398  -7.714  0.00  0.00     0.073 C 
BRANCH  40  41
HETATM   41  C   UNK N   1      28.493  24.371  -8.655  0.00  0.00    -0.056 A 
HETATM   42  C   UNK N   1      27.118  24.124  -8.725  0.00  0.00     0.007 A 
HETATM   43  C   UNK N   1      26.627  23.145  -9.593  0.00  0.00     0.001 A 
HETATM   44  C   UNK N   1      27.511  22.407 -10.386  0.00  0.00     0.000 A 
HETATM   45  C   UNK N   1      28.886  22.649 -10.311  0.00  0.00     0.001 A 
HETATM   46  C   UNK N   1      29.378  23.631  -9.447  0.00  0.00     0.007 A 
ENDBRANCH  40  41
ENDBRANCH   9  40
TORSDOF 5
ENDMDL
