MODEL 1
REMARK VINA RESULT:      -7.0      0.000      0.000
REMARK  3 active torsions:
REMARK  status: ('A' for Active; 'I' for Inactive)
REMARK    1  A    between atoms: N_1  and  C_15 
REMARK    2  A    between atoms: C_9  and  C_10 
REMARK    3  A    between atoms: C_10  and  C_15 
ROOT
HETATM    1  C   UNK N   1      36.332   9.321  16.414  0.00  0.00     0.044 C 
HETATM    2  C   UNK N   1      35.179   9.572  17.333  0.00  0.00     0.044 C 
HETATM    3  C   UNK N   1      35.192  11.948  15.299  0.00  0.00    -0.018 C 
HETATM    4  C   UNK N   1      35.790   9.421  15.047  0.00  0.00    -0.047 A 
HETATM    5  C   UNK N   1      35.204  10.989  17.746  0.00  0.00    -0.047 A 
HETATM    6  C   UNK N   1      35.260  10.630  14.523  0.00  0.00    -0.019 A 
HETATM    7  C   UNK N   1      35.205  12.075  16.822  0.00  0.00    -0.019 A 
HETATM    8  C   UNK N   1      35.141  13.132  14.623  0.00  0.00    -0.012 C 
HETATM    9  C   UNK N   1      35.823   8.260  14.264  0.00  0.00     0.008 A 
HETATM   10  C   UNK N   1      35.224  11.231  19.124  0.00  0.00     0.008 A 
HETATM   11  C   UNK N   1      34.774  10.594  13.199  0.00  0.00     0.013 A 
HETATM   12  C   UNK N   1      35.211  13.380  17.368  0.00  0.00     0.013 A 
HETATM   13  C   UNK N   1      35.330   8.263  12.963  0.00  0.00     0.001 A 
HETATM   14  C   UNK N   1      35.237  12.530  19.622  0.00  0.00     0.001 A 
HETATM   15  C   UNK N   1      34.802   9.432  12.430  0.00  0.00     0.001 A 
HETATM   16  C   UNK N   1      35.226  13.606  18.744  0.00  0.00     0.001 A 
ENDROOT
BRANCH   8  17
HETATM   17  C   UNK N   1      35.228  13.323  13.140  0.00  0.00     0.058 C 
BRANCH  17  18
HETATM   18  C   UNK N   1      36.023  14.566  12.777  0.00  0.00     0.275 C 
BRANCH  18  19
HETATM   19  N   UNK N   1      35.895  14.861  11.352  0.00  0.00     0.080 N 
HETATM   20  C   UNK N   1      34.836  14.013  10.838  0.00  0.00     0.309 C 
HETATM   21  C   UNK N   1      35.447  16.235  11.183  0.00  0.00     0.309 C 
ENDBRANCH  18  19
ENDBRANCH  17  18
ENDBRANCH   8  17
TORSDOF 3
ENDMDL
MODEL 2
REMARK VINA RESULT:      -6.9     21.351     25.175
REMARK  3 active torsions:
REMARK  status: ('A' for Active; 'I' for Inactive)
REMARK    1  A    between atoms: N_1  and  C_15 
REMARK    2  A    between atoms: C_9  and  C_10 
REMARK    3  A    between atoms: C_10  and  C_15 
ROOT
HETATM    1  C   UNK N   1      25.601  23.598  -6.914  0.00  0.00     0.044 C 
HETATM    2  C   UNK N   1      25.932  25.021  -7.231  0.00  0.00     0.044 C 
HETATM    3  C   UNK N   1      27.763  24.228  -4.822  0.00  0.00    -0.018 C 
HETATM    4  C   UNK N   1      26.888  22.880  -6.878  0.00  0.00    -0.047 A 
HETATM    5  C   UNK N   1      25.985  25.785  -5.969  0.00  0.00    -0.047 A 
HETATM    6  C   UNK N   1      27.895  23.165  -5.918  0.00  0.00    -0.019 A 
HETATM    7  C   UNK N   1      26.822  25.430  -4.871  0.00  0.00    -0.019 A 
HETATM    8  C   UNK N   1      28.505  24.123  -3.683  0.00  0.00    -0.012 C 
HETATM    9  C   UNK N   1      27.086  21.883  -7.842  0.00  0.00     0.008 A 
HETATM   10  C   UNK N   1      25.156  26.911  -5.893  0.00  0.00     0.008 A 
HETATM   11  C   UNK N   1      29.081  22.406  -5.990  0.00  0.00     0.013 A 
HETATM   12  C   UNK N   1      26.778  26.271  -3.734  0.00  0.00     0.013 A 
HETATM   13  C   UNK N   1      28.273  21.158  -7.885  0.00  0.00     0.001 A 
HETATM   14  C   UNK N   1      25.136  27.709  -4.754  0.00  0.00     0.001 A 
HETATM   15  C   UNK N   1      29.274  21.421  -6.958  0.00  0.00     0.001 A 
HETATM   16  C   UNK N   1      25.951  27.393  -3.675  0.00  0.00     0.001 A 
ENDROOT
BRANCH   8  17
HETATM   17  C   UNK N   1      29.422  22.999  -3.309  0.00  0.00     0.058 C 
BRANCH  17  18
HETATM   18  C   UNK N   1      30.795  23.503  -2.897  0.00  0.00     0.275 C 
BRANCH  18  19
HETATM   19  N   UNK N   1      31.816  22.494  -3.164  0.00  0.00     0.080 N 
HETATM   20  C   UNK N   1      31.125  21.232  -3.350  0.00  0.00     0.309 C 
HETATM   21  C   UNK N   1      32.475  22.797  -4.425  0.00  0.00     0.309 C 
ENDBRANCH  18  19
ENDBRANCH  17  18
ENDBRANCH   8  17
TORSDOF 3
ENDMDL
MODEL 3
REMARK VINA RESULT:      -6.9      7.041     11.050
REMARK  3 active torsions:
REMARK  status: ('A' for Active; 'I' for Inactive)
REMARK    1  A    between atoms: N_1  and  C_15 
REMARK    2  A    between atoms: C_9  and  C_10 
REMARK    3  A    between atoms: C_10  and  C_15 
ROOT
HETATM    1  C   UNK N   1      29.692  15.570   5.633  0.00  0.00     0.044 C 
HETATM    2  C   UNK N   1      28.940  16.853   5.786  0.00  0.00     0.044 C 
HETATM    3  C   UNK N   1      31.763  17.359   7.032  0.00  0.00    -0.018 C 
HETATM    4  C   UNK N   1      30.975  15.925   5.000  0.00  0.00    -0.047 A 
HETATM    5  C   UNK N   1      29.139  17.357   7.159  0.00  0.00    -0.047 A 
HETATM    6  C   UNK N   1      31.938  16.752   5.636  0.00  0.00    -0.019 A 
HETATM    7  C   UNK N   1      30.424  17.594   7.729  0.00  0.00    -0.019 A 
HETATM    8  C   UNK N   1      32.861  17.710   7.760  0.00  0.00    -0.012 C 
HETATM    9  C   UNK N   1      31.218  15.402   3.723  0.00  0.00     0.008 A 
HETATM   10  C   UNK N   1      27.978  17.604   7.901  0.00  0.00     0.008 A 
HETATM   11  C   UNK N   1      33.126  17.016   4.923  0.00  0.00     0.013 A 
HETATM   12  C   UNK N   1      30.456  18.096   9.051  0.00  0.00     0.013 A 
HETATM   13  C   UNK N   1      32.401  15.689   3.049  0.00  0.00     0.001 A 
HETATM   14  C   UNK N   1      28.052  18.092   9.202  0.00  0.00     0.001 A 
HETATM   15  C   UNK N   1      33.357  16.499   3.649  0.00  0.00     0.001 A 
HETATM   16  C   UNK N   1      29.291  18.343   9.776  0.00  0.00     0.001 A 
ENDROOT
BRANCH   8  17
HETATM   17  C   UNK N   1      34.295  17.493   7.385  0.00  0.00     0.058 C 
BRANCH  17  18
HETATM   18  C   UNK N   1      34.907  16.326   8.141  0.00  0.00     0.275 C 
BRANCH  18  19
HETATM   19  N   UNK N   1      34.339  16.227   9.483  0.00  0.00     0.080 N 
HETATM   20  C   UNK N   1      34.083  14.821   9.732  0.00  0.00     0.309 C 
HETATM   21  C   UNK N   1      35.334  16.647  10.459  0.00  0.00     0.309 C 
ENDBRANCH  18  19
ENDBRANCH  17  18
ENDBRANCH   8  17
TORSDOF 3
ENDMDL
MODEL 4
REMARK VINA RESULT:      -6.7      1.960      4.509
REMARK  3 active torsions:
REMARK  status: ('A' for Active; 'I' for Inactive)
REMARK    1  A    between atoms: N_1  and  C_15 
REMARK    2  A    between atoms: C_9  and  C_10 
REMARK    3  A    between atoms: C_10  and  C_15 
ROOT
HETATM    1  C   UNK N   1      34.895  13.683  18.836  0.00  0.00     0.044 C 
HETATM    2  C   UNK N   1      35.682  12.568  19.448  0.00  0.00     0.044 C 
HETATM    3  C   UNK N   1      35.696  12.040  16.365  0.00  0.00    -0.018 C 
HETATM    4  C   UNK N   1      35.744  14.240  17.768  0.00  0.00    -0.047 A 
HETATM    5  C   UNK N   1      35.244  11.295  18.845  0.00  0.00    -0.047 A 
HETATM    6  C   UNK N   1      36.121  13.489  16.623  0.00  0.00    -0.019 A 
HETATM    7  C   UNK N   1      35.253  11.048  17.440  0.00  0.00    -0.019 A 
HETATM    8  C   UNK N   1      35.667  11.558  15.090  0.00  0.00    -0.012 C 
HETATM    9  C   UNK N   1      36.170  15.565  17.921  0.00  0.00     0.008 A 
HETATM   10  C   UNK N   1      34.808  10.306  19.734  0.00  0.00     0.008 A 
HETATM   11  C   UNK N   1      36.936  14.138  15.672  0.00  0.00     0.013 A 
HETATM   12  C   UNK N   1      34.822   9.770  17.011  0.00  0.00     0.013 A 
HETATM   13  C   UNK N   1      36.977  16.170  16.963  0.00  0.00     0.001 A 
HETATM   14  C   UNK N   1      34.384   9.063  19.272  0.00  0.00     0.001 A 
HETATM   15  C   UNK N   1      37.363  15.454  15.836  0.00  0.00     0.001 A 
HETATM   16  C   UNK N   1      34.396   8.793  17.910  0.00  0.00     0.001 A 
ENDROOT
BRANCH   8  17
HETATM   17  C   UNK N   1      35.937  12.327  13.833  0.00  0.00     0.058 C 
BRANCH  17  18
HETATM   18  C   UNK N   1      34.924  12.007  12.747  0.00  0.00     0.275 C 
BRANCH  18  19
HETATM   19  N   UNK N   1      35.564  11.986  11.435  0.00  0.00     0.080 N 
HETATM   20  C   UNK N   1      36.917  12.478  11.617  0.00  0.00     0.309 C 
HETATM   21  C   UNK N   1      35.681  10.610  10.977  0.00  0.00     0.309 C 
ENDBRANCH  18  19
ENDBRANCH  17  18
ENDBRANCH   8  17
TORSDOF 3
ENDMDL
MODEL 5
REMARK VINA RESULT:      -6.6     10.117     13.235
REMARK  3 active torsions:
REMARK  status: ('A' for Active; 'I' for Inactive)
REMARK    1  A    between atoms: N_1  and  C_15 
REMARK    2  A    between atoms: C_9  and  C_10 
REMARK    3  A    between atoms: C_10  and  C_15 
ROOT
HETATM    1  C   UNK N   1      31.679  16.467   7.675  0.00  0.00     0.044 C 
HETATM    2  C   UNK N   1      32.481  17.437   6.868  0.00  0.00     0.044 C 
HETATM    3  C   UNK N   1      29.615  17.438   5.615  0.00  0.00    -0.018 C 
HETATM    4  C   UNK N   1      30.455  17.185   8.072  0.00  0.00    -0.047 A 
HETATM    5  C   UNK N   1      32.225  17.185   5.436  0.00  0.00    -0.047 A 
HETATM    6  C   UNK N   1      29.496  17.639   7.129  0.00  0.00    -0.019 A 
HETATM    7  C   UNK N   1      30.920  17.189   4.860  0.00  0.00    -0.019 A 
HETATM    8  C   UNK N   1      28.493  17.446   4.840  0.00  0.00    -0.012 C 
HETATM    9  C   UNK N   1      30.263  17.403   9.443  0.00  0.00     0.008 A 
HETATM   10  C   UNK N   1      33.349  16.937   4.640  0.00  0.00     0.008 A 
HETATM   11  C   UNK N   1      28.366  18.312   7.639  0.00  0.00     0.013 A 
HETATM   12  C   UNK N   1      30.834  16.950   3.468  0.00  0.00     0.013 A 
HETATM   13  C   UNK N   1      29.137  18.075   9.908  0.00  0.00     0.001 A 
HETATM   14  C   UNK N   1      33.222  16.699   3.276  0.00  0.00     0.001 A 
HETATM   15  C   UNK N   1      28.187  18.533   9.003  0.00  0.00     0.001 A 
HETATM   16  C   UNK N   1      31.964  16.710   2.688  0.00  0.00     0.001 A 
ENDROOT
BRANCH   8  17
HETATM   17  C   UNK N   1      27.076  17.552   5.311  0.00  0.00     0.058 C 
BRANCH  17  18
HETATM   18  C   UNK N   1      26.255  18.478   4.429  0.00  0.00     0.275 C 
BRANCH  18  19
HETATM   19  N   UNK N   1      26.821  19.824   4.428  0.00  0.00     0.080 N 
HETATM   20  C   UNK N   1      26.313  20.495   3.247  0.00  0.00     0.309 C 
HETATM   21  C   UNK N   1      26.313  20.562   5.576  0.00  0.00     0.309 C 
ENDBRANCH  18  19
ENDBRANCH  17  18
ENDBRANCH   8  17
TORSDOF 3
ENDMDL
MODEL 6
REMARK VINA RESULT:      -6.6     22.145     26.602
REMARK  3 active torsions:
REMARK  status: ('A' for Active; 'I' for Inactive)
REMARK    1  A    between atoms: N_1  and  C_15 
REMARK    2  A    between atoms: C_9  and  C_10 
REMARK    3  A    between atoms: C_10  and  C_15 
ROOT
HETATM    1  C   UNK N   1      26.985  26.972  -7.385  0.00  0.00     0.044 C 
HETATM    2  C   UNK N   1      25.694  26.376  -7.847  0.00  0.00     0.044 C 
HETATM    3  C   UNK N   1      26.490  24.805  -5.262  0.00  0.00    -0.018 C 
HETATM    4  C   UNK N   1      26.794  27.301  -5.961  0.00  0.00    -0.047 A 
HETATM    5  C   UNK N   1      25.809  24.905  -7.798  0.00  0.00    -0.047 A 
HETATM    6  C   UNK N   1      26.562  26.308  -4.973  0.00  0.00    -0.019 A 
HETATM    7  C   UNK N   1      26.166  24.185  -6.620  0.00  0.00    -0.019 A 
HETATM    8  C   UNK N   1      26.753  23.910  -4.267  0.00  0.00    -0.012 C 
HETATM    9  C   UNK N   1      26.854  28.655  -5.609  0.00  0.00     0.008 A 
HETATM   10  C   UNK N   1      25.540  24.223  -8.990  0.00  0.00     0.008 A 
HETATM   11  C   UNK N   1      26.396  26.754  -3.645  0.00  0.00     0.013 A 
HETATM   12  C   UNK N   1      26.217  22.775  -6.722  0.00  0.00     0.013 A 
HETATM   13  C   UNK N   1      26.681  29.057  -4.288  0.00  0.00     0.001 A 
HETATM   14  C   UNK N   1      25.608  22.835  -9.052  0.00  0.00     0.001 A 
HETATM   15  C   UNK N   1      26.450  28.105  -3.304  0.00  0.00     0.001 A 
HETATM   16  C   UNK N   1      25.941  22.109  -7.916  0.00  0.00     0.001 A 
ENDROOT
BRANCH   8  17
HETATM   17  C   UNK N   1      27.206  24.223  -2.874  0.00  0.00     0.058 C 
BRANCH  17  18
HETATM   18  C   UNK N   1      28.433  23.416  -2.485  0.00  0.00     0.275 C 
BRANCH  18  19
HETATM   19  N   UNK N   1      29.400  23.389  -3.579  0.00  0.00     0.080 N 
HETATM   20  C   UNK N   1      30.340  24.467  -3.340  0.00  0.00     0.309 C 
HETATM   21  C   UNK N   1      30.163  22.151  -3.517  0.00  0.00     0.309 C 
ENDBRANCH  18  19
ENDBRANCH  17  18
ENDBRANCH   8  17
TORSDOF 3
ENDMDL
MODEL 7
REMARK VINA RESULT:      -6.5     22.752     25.388
REMARK  3 active torsions:
REMARK  status: ('A' for Active; 'I' for Inactive)
REMARK    1  A    between atoms: N_1  and  C_15 
REMARK    2  A    between atoms: C_9  and  C_10 
REMARK    3  A    between atoms: C_10  and  C_15 
ROOT
HETATM    1  C   UNK N   1      29.219  21.932  -7.566  0.00  0.00     0.044 C 
HETATM    2  C   UNK N   1      29.617  21.283  -6.279  0.00  0.00     0.044 C 
HETATM    3  C   UNK N   1      27.571  23.521  -5.515  0.00  0.00    -0.018 C 
HETATM    4  C   UNK N   1      27.745  21.935  -7.579  0.00  0.00    -0.047 A 
HETATM    5  C   UNK N   1      29.906  22.338  -5.288  0.00  0.00    -0.047 A 
HETATM    6  C   UNK N   1      26.974  22.664  -6.635  0.00  0.00    -0.019 A 
HETATM    7  C   UNK N   1      28.974  23.357  -4.933  0.00  0.00    -0.019 A 
HETATM    8  C   UNK N   1      26.841  24.541  -4.980  0.00  0.00    -0.012 C 
HETATM    9  C   UNK N   1      27.118  21.181  -8.580  0.00  0.00     0.008 A 
HETATM   10  C   UNK N   1      31.170  22.294  -4.688  0.00  0.00     0.008 A 
HETATM   11  C   UNK N   1      25.571  22.584  -6.757  0.00  0.00     0.013 A 
HETATM   12  C   UNK N   1      29.387  24.288  -3.951  0.00  0.00     0.013 A 
HETATM   13  C   UNK N   1      25.730  21.124  -8.665  0.00  0.00     0.001 A 
HETATM   14  C   UNK N   1      31.541  23.234  -3.731  0.00  0.00     0.001 A 
HETATM   15  C   UNK N   1      24.955  21.825  -7.751  0.00  0.00     0.001 A 
HETATM   16  C   UNK N   1      30.648  24.229  -3.358  0.00  0.00     0.001 A 
ENDROOT
BRANCH   8  17
HETATM   17  C   UNK N   1      25.489  25.008  -5.424  0.00  0.00     0.058 C 
BRANCH  17  18
HETATM   18  C   UNK N   1      25.528  26.433  -5.949  0.00  0.00     0.275 C 
BRANCH  18  19
HETATM   19  N   UNK N   1      26.393  27.265  -5.117  0.00  0.00     0.080 N 
HETATM   20  C   UNK N   1      27.027  28.228  -5.998  0.00  0.00     0.309 C 
HETATM   21  C   UNK N   1      25.577  28.028  -4.185  0.00  0.00     0.309 C 
ENDBRANCH  18  19
ENDBRANCH  17  18
ENDBRANCH   8  17
TORSDOF 3
ENDMDL
MODEL 8
REMARK VINA RESULT:      -6.3      3.214      5.945
REMARK  3 active torsions:
REMARK  status: ('A' for Active; 'I' for Inactive)
REMARK    1  A    between atoms: N_1  and  C_15 
REMARK    2  A    between atoms: C_9  and  C_10 
REMARK    3  A    between atoms: C_10  and  C_15 
ROOT
HETATM    1  C   UNK N   1      34.008  11.490  14.785  0.00  0.00     0.044 C 
HETATM    2  C   UNK N   1      35.136  12.341  15.275  0.00  0.00     0.044 C 
HETATM    3  C   UNK N   1      35.368   9.630  16.819  0.00  0.00    -0.018 C 
HETATM    4  C   UNK N   1      34.611  10.205  14.389  0.00  0.00    -0.047 A 
HETATM    5  C   UNK N   1      35.189  12.251  16.747  0.00  0.00    -0.047 A 
HETATM    6  C   UNK N   1      35.244   9.339  15.320  0.00  0.00    -0.019 A 
HETATM    7  C   UNK N   1      35.300  11.018  17.455  0.00  0.00    -0.019 A 
HETATM    8  C   UNK N   1      35.527   8.600  17.698  0.00  0.00    -0.012 C 
HETATM    9  C   UNK N   1      34.533   9.858  13.034  0.00  0.00     0.008 A 
HETATM   10  C   UNK N   1      35.127  13.464  17.444  0.00  0.00     0.008 A 
HETATM   11  C   UNK N   1      35.781   8.138  14.813  0.00  0.00     0.013 A 
HETATM   12  C   UNK N   1      35.359  11.092  18.866  0.00  0.00     0.013 A 
HETATM   13  C   UNK N   1      35.079   8.665  12.571  0.00  0.00     0.001 A 
HETATM   14  C   UNK N   1      35.181  13.494  18.834  0.00  0.00     0.001 A 
HETATM   15  C   UNK N   1      35.706   7.803  13.462  0.00  0.00     0.001 A 
HETATM   16  C   UNK N   1      35.302  12.309  19.546  0.00  0.00     0.001 A 
ENDROOT
BRANCH   8  17
HETATM   17  C   UNK N   1      35.515   7.137  17.379  0.00  0.00     0.058 C 
BRANCH  17  18
HETATM   18  C   UNK N   1      35.274   6.291  18.618  0.00  0.00     0.275 C 
BRANCH  18  19
HETATM   19  N   UNK N   1      33.896   5.811  18.655  0.00  0.00     0.080 N 
HETATM   20  C   UNK N   1      33.944   4.414  19.041  0.00  0.00     0.309 C 
HETATM   21  C   UNK N   1      33.171   6.508  19.706  0.00  0.00     0.309 C 
ENDBRANCH  18  19
ENDBRANCH  17  18
ENDBRANCH   8  17
TORSDOF 3
ENDMDL
MODEL 9
REMARK VINA RESULT:      -6.3      2.754      6.873
REMARK  3 active torsions:
REMARK  status: ('A' for Active; 'I' for Inactive)
REMARK    1  A    between atoms: N_1  and  C_15 
REMARK    2  A    between atoms: C_9  and  C_10 
REMARK    3  A    between atoms: C_10  and  C_15 
ROOT
HETATM    1  C   UNK N   1      36.715  13.640  14.287  0.00  0.00     0.044 C 
HETATM    2  C   UNK N   1      35.466  13.640  13.464  0.00  0.00     0.044 C 
HETATM    3  C   UNK N   1      35.012  11.520  15.719  0.00  0.00    -0.018 C 
HETATM    4  C   UNK N   1      36.279  13.801  15.685  0.00  0.00    -0.047 A 
HETATM    5  C   UNK N   1      35.081  12.241  13.193  0.00  0.00    -0.047 A 
HETATM    6  C   UNK N   1      35.491  12.829  16.356  0.00  0.00    -0.019 A 
HETATM    7  C   UNK N   1      34.867  11.273  14.219  0.00  0.00    -0.019 A 
HETATM    8  C   UNK N   1      34.704  10.454  16.512  0.00  0.00    -0.012 C 
HETATM    9  C   UNK N   1      36.683  14.969  16.346  0.00  0.00     0.008 A 
HETATM   10  C   UNK N   1      34.924  11.892  11.847  0.00  0.00     0.008 A 
HETATM   11  C   UNK N   1      35.141  13.102  17.695  0.00  0.00     0.013 A 
HETATM   12  C   UNK N   1      34.482   9.976  13.805  0.00  0.00     0.013 A 
HETATM   13  C   UNK N   1      36.314  15.205  17.667  0.00  0.00     0.001 A 
HETATM   14  C   UNK N   1      34.550  10.603  11.480  0.00  0.00     0.001 A 
HETATM   15  C   UNK N   1      35.539  14.270  18.342  0.00  0.00     0.001 A 
HETATM   16  C   UNK N   1      34.324   9.645  12.460  0.00  0.00     0.001 A 
ENDROOT
BRANCH   8  17
HETATM   17  C   UNK N   1      34.857  10.366  17.999  0.00  0.00     0.058 C 
BRANCH  17  18
HETATM   18  C   UNK N   1      34.164   9.139  18.566  0.00  0.00     0.275 C 
BRANCH  18  19
HETATM   19  N   UNK N   1      34.227   9.139  20.025  0.00  0.00     0.080 N 
HETATM   20  C   UNK N   1      35.235   8.168  20.405  0.00  0.00     0.309 C 
HETATM   21  C   UNK N   1      34.703  10.435  20.486  0.00  0.00     0.309 C 
ENDBRANCH  18  19
ENDBRANCH  17  18
ENDBRANCH   8  17
TORSDOF 3
ENDMDL
