MODEL 1
REMARK VINA RESULT:      -6.0      0.000      0.000
REMARK  4 active torsions:
REMARK  status: ('A' for Active; 'I' for Inactive)
REMARK    1  A    between atoms: C_9  and  O_3 
REMARK    2  A    between atoms: O_4  and  C_13 
REMARK    3  A    between atoms: C_10  and  N_7 
REMARK    4  A    between atoms: C_12  and  C_13 
ROOT
HETATM    1  F   UNK N   1      37.727  15.624  16.772  0.00  0.00    -0.199 F 
HETATM    2  O   UNK N   1      34.002  12.191  15.091  0.00  0.00    -0.246 OA
HETATM    3  O   UNK N   1      35.842  14.564  18.404  0.00  0.00    -0.265 OA
HETATM    4  N   UNK N   1      35.793  13.487  14.567  0.00  0.00    -0.279 N 
HETATM    5  N   UNK N   1      34.887  13.362  16.773  0.00  0.00    -0.273 N 
HETATM    6  C   UNK N   1      34.853  12.981  15.456  0.00  0.00     0.331 A 
HETATM    7  C   UNK N   1      36.738  14.356  15.018  0.00  0.00     0.146 A 
HETATM    8  C   UNK N   1      36.778  14.752  16.350  0.00  0.00     0.199 A 
HETATM    9  C   UNK N   1      35.832  14.238  17.230  0.00  0.00     0.289 A 
HETATM   10  H   UNK N   1      34.219  12.999  17.399  0.00  0.00     0.173 HD
ENDROOT
BRANCH   4  11
HETATM   11  C   UNK N   1      35.866  13.158  13.133  0.00  0.00     0.235 C 
HETATM   12  O   UNK N   1      35.933  14.325  12.366  0.00  0.00    -0.356 OA
HETATM   13  C   UNK N   1      36.175  13.804  11.096  0.00  0.00     0.176 C 
HETATM   14  C   UNK N   1      37.244  12.727  11.252  0.00  0.00     0.153 C 
HETATM   15  C   UNK N   1      36.985  12.241  12.660  0.00  0.00     0.088 C 
BRANCH  13  16
HETATM   16  C   UNK N   1      36.535  14.900  10.104  0.00  0.00     0.198 C 
BRANCH  16  17
HETATM   17  O   UNK N   1      37.160  15.953  10.775  0.00  0.00    -0.398 OA
HETATM   18  H   UNK N   1      37.448  15.872  11.697  0.00  0.00     0.209 HD
ENDBRANCH  16  17
ENDBRANCH  13  16
BRANCH  14  19
HETATM   19  O   UNK N   1      38.525  13.282  11.214  0.00  0.00    -0.393 OA
HETATM   20  H   UNK N   1      39.415  13.203  10.837  0.00  0.00     0.210 HD
ENDBRANCH  14  19
ENDBRANCH   4  11
TORSDOF 4
ENDMDL
MODEL 2
REMARK VINA RESULT:      -5.8      2.333      2.898
REMARK  4 active torsions:
REMARK  status: ('A' for Active; 'I' for Inactive)
REMARK    1  A    between atoms: C_9  and  O_3 
REMARK    2  A    between atoms: O_4  and  C_13 
REMARK    3  A    between atoms: C_10  and  N_7 
REMARK    4  A    between atoms: C_12  and  C_13 
ROOT
HETATM    1  F   UNK N   1      33.750  10.406  15.374  0.00  0.00    -0.199 F 
HETATM    2  O   UNK N   1      36.647  14.754  14.284  0.00  0.00    -0.246 OA
HETATM    3  O   UNK N   1      35.000  11.871  17.279  0.00  0.00    -0.265 OA
HETATM    4  N   UNK N   1      35.372  13.050  13.490  0.00  0.00    -0.279 N 
HETATM    5  N   UNK N   1      35.849  13.337  15.813  0.00  0.00    -0.273 N 
HETATM    6  C   UNK N   1      35.990  13.756  14.515  0.00  0.00     0.331 A 
HETATM    7  C   UNK N   1      34.633  11.947  13.791  0.00  0.00     0.146 A 
HETATM    8  C   UNK N   1      34.488  11.512  15.103  0.00  0.00     0.199 A 
HETATM    9  C   UNK N   1      35.111  12.227  16.120  0.00  0.00     0.289 A 
HETATM   10  H   UNK N   1      36.287  13.842  16.535  0.00  0.00     0.173 HD
ENDROOT
BRANCH   4  11
HETATM   11  C   UNK N   1      35.444  13.396  12.060  0.00  0.00     0.235 C 
HETATM   12  O   UNK N   1      34.732  14.573  11.805  0.00  0.00    -0.356 OA
HETATM   13  C   UNK N   1      35.072  14.814  10.474  0.00  0.00     0.176 C 
HETATM   14  C   UNK N   1      36.575  14.586  10.350  0.00  0.00     0.153 C 
HETATM   15  C   UNK N   1      36.818  13.551  11.424  0.00  0.00     0.088 C 
BRANCH  13  16
HETATM   16  C   UNK N   1      34.611  16.192  10.024  0.00  0.00     0.198 C 
BRANCH  16  17
HETATM   17  O   UNK N   1      34.949  17.140  10.992  0.00  0.00    -0.398 OA
HETATM   18  H   UNK N   1      35.116  18.067  10.763  0.00  0.00     0.209 HD
ENDBRANCH  16  17
ENDBRANCH  13  16
BRANCH  14  19
HETATM   19  O   UNK N   1      37.287  15.738  10.688  0.00  0.00    -0.393 OA
HETATM   20  H   UNK N   1      37.409  16.431  11.356  0.00  0.00     0.210 HD
ENDBRANCH  14  19
ENDBRANCH   4  11
TORSDOF 4
ENDMDL
MODEL 3
REMARK VINA RESULT:      -5.7      7.150      9.020
REMARK  4 active torsions:
REMARK  status: ('A' for Active; 'I' for Inactive)
REMARK    1  A    between atoms: C_9  and  O_3 
REMARK    2  A    between atoms: O_4  and  C_13 
REMARK    3  A    between atoms: C_10  and  N_7 
REMARK    4  A    between atoms: C_12  and  C_13 
ROOT
HETATM    1  F   UNK N   1      35.271  19.067   8.305  0.00  0.00    -0.199 F 
HETATM    2  O   UNK N   1      32.217  14.724   8.853  0.00  0.00    -0.246 OA
HETATM    3  O   UNK N   1      35.484  17.359  10.396  0.00  0.00    -0.265 OA
HETATM    4  N   UNK N   1      32.741  16.558   7.618  0.00  0.00    -0.279 N 
HETATM    5  N   UNK N   1      33.850  16.013   9.662  0.00  0.00    -0.273 N 
HETATM    6  C   UNK N   1      32.900  15.723   8.717  0.00  0.00     0.331 A 
HETATM    7  C   UNK N   1      33.534  17.657   7.495  0.00  0.00     0.146 A 
HETATM    8  C   UNK N   1      34.497  17.962   8.450  0.00  0.00     0.199 A 
HETATM    9  C   UNK N   1      34.647  17.119   9.545  0.00  0.00     0.289 A 
HETATM   10  H   UNK N   1      33.960  15.417  10.438  0.00  0.00     0.173 HD
ENDROOT
BRANCH   4  11
HETATM   11  C   UNK N   1      31.761  16.358   6.537  0.00  0.00     0.235 C 
HETATM   12  O   UNK N   1      30.729  17.297   6.632  0.00  0.00    -0.356 OA
HETATM   13  C   UNK N   1      30.033  17.058   5.448  0.00  0.00     0.176 C 
HETATM   14  C   UNK N   1      31.072  16.921   4.340  0.00  0.00     0.153 C 
HETATM   15  C   UNK N   1      32.260  16.378   5.099  0.00  0.00     0.088 C 
BRANCH  13  16
HETATM   16  C   UNK N   1      28.986  18.132   5.192  0.00  0.00     0.198 C 
BRANCH  16  17
HETATM   17  O   UNK N   1      28.599  18.100   3.851  0.00  0.00    -0.398 OA
HETATM   18  H   UNK N   1      28.648  18.886   3.286  0.00  0.00     0.209 HD
ENDBRANCH  16  17
ENDBRANCH  13  16
BRANCH  14  19
HETATM   19  O   UNK N   1      31.422  18.170   3.823  0.00  0.00    -0.393 OA
HETATM   20  H   UNK N   1      31.087  19.031   3.526  0.00  0.00     0.210 HD
ENDBRANCH  14  19
ENDBRANCH   4  11
TORSDOF 4
ENDMDL
MODEL 4
REMARK VINA RESULT:      -5.6      4.145      6.527
REMARK  4 active torsions:
REMARK  status: ('A' for Active; 'I' for Inactive)
REMARK    1  A    between atoms: C_9  and  O_3 
REMARK    2  A    between atoms: O_4  and  C_13 
REMARK    3  A    between atoms: C_10  and  N_7 
REMARK    4  A    between atoms: C_12  and  C_13 
ROOT
HETATM    1  F   UNK N   1      31.582  15.227   8.246  0.00  0.00    -0.199 F 
HETATM    2  O   UNK N   1      35.948  17.335  10.479  0.00  0.00    -0.246 OA
HETATM    3  O   UNK N   1      32.281  17.830   7.968  0.00  0.00    -0.265 OA
HETATM    4  N   UNK N   1      34.651  15.496  10.164  0.00  0.00    -0.279 N 
HETATM    5  N   UNK N   1      34.126  17.628   9.223  0.00  0.00    -0.273 N 
HETATM    6  C   UNK N   1      34.952  16.841   9.984  0.00  0.00     0.331 A 
HETATM    7  C   UNK N   1      33.536  14.978   9.580  0.00  0.00     0.146 A 
HETATM    8  C   UNK N   1      32.690  15.769   8.812  0.00  0.00     0.199 A 
HETATM    9  C   UNK N   1      33.002  17.112   8.638  0.00  0.00     0.289 A 
HETATM   10  H   UNK N   1      34.344  18.579   9.097  0.00  0.00     0.173 HD
ENDROOT
BRANCH   4  11
HETATM   11  C   UNK N   1      35.454  14.547  10.953  0.00  0.00     0.235 C 
HETATM   12  O   UNK N   1      35.625  15.018  12.259  0.00  0.00    -0.356 OA
HETATM   13  C   UNK N   1      36.233  13.921  12.868  0.00  0.00     0.176 C 
HETATM   14  C   UNK N   1      35.470  12.680  12.415  0.00  0.00     0.153 C 
HETATM   15  C   UNK N   1      34.976  13.105  11.051  0.00  0.00     0.088 C 
BRANCH  13  16
HETATM   16  C   UNK N   1      36.304  14.092  14.378  0.00  0.00     0.198 C 
BRANCH  16  17
HETATM   17  O   UNK N   1      37.185  15.128  14.692  0.00  0.00    -0.398 OA
HETATM   18  H   UNK N   1      37.417  15.815  14.048  0.00  0.00     0.209 HD
ENDBRANCH  16  17
ENDBRANCH  13  16
BRANCH  14  19
HETATM   19  O   UNK N   1      34.358  12.451  13.226  0.00  0.00    -0.393 OA
HETATM   20  H   UNK N   1      33.956  12.621  14.093  0.00  0.00     0.210 HD
ENDBRANCH  14  19
ENDBRANCH   4  11
TORSDOF 4
ENDMDL
MODEL 5
REMARK VINA RESULT:      -5.5      7.117      9.090
REMARK  4 active torsions:
REMARK  status: ('A' for Active; 'I' for Inactive)
REMARK    1  A    between atoms: C_9  and  O_3 
REMARK    2  A    between atoms: O_4  and  C_13 
REMARK    3  A    between atoms: C_10  and  N_7 
REMARK    4  A    between atoms: C_12  and  C_13 
ROOT
HETATM    1  F   UNK N   1      28.602  18.596   9.423  0.00  0.00    -0.199 F 
HETATM    2  O   UNK N   1      31.399  16.358   5.467  0.00  0.00    -0.246 OA
HETATM    3  O   UNK N   1      27.835  18.690   6.827  0.00  0.00    -0.265 OA
HETATM    4  N   UNK N   1      31.226  16.783   7.692  0.00  0.00    -0.279 N 
HETATM    5  N   UNK N   1      29.607  17.528   6.101  0.00  0.00    -0.273 N 
HETATM    6  C   UNK N   1      30.778  16.869   6.380  0.00  0.00     0.331 A 
HETATM    7  C   UNK N   1      30.494  17.357   8.686  0.00  0.00     0.146 A 
HETATM    8  C   UNK N   1      29.309  18.030   8.413  0.00  0.00     0.199 A 
HETATM    9  C   UNK N   1      28.870  18.108   7.097  0.00  0.00     0.289 A 
HETATM   10  H   UNK N   1      29.293  17.584   5.170  0.00  0.00     0.173 HD
ENDROOT
BRANCH   4  11
HETATM   11  C   UNK N   1      32.461  16.106   8.122  0.00  0.00     0.235 C 
HETATM   12  O   UNK N   1      33.241  16.962   8.907  0.00  0.00    -0.356 OA
HETATM   13  C   UNK N   1      34.239  16.095   9.348  0.00  0.00     0.176 C 
HETATM   14  C   UNK N   1      33.550  14.804   9.777  0.00  0.00     0.153 C 
HETATM   15  C   UNK N   1      32.337  14.789   8.876  0.00  0.00     0.088 C 
BRANCH  13  16
HETATM   16  C   UNK N   1      35.093  16.735  10.432  0.00  0.00     0.198 C 
BRANCH  16  17
HETATM   17  O   UNK N   1      35.624  17.938   9.963  0.00  0.00    -0.398 OA
HETATM   18  H   UNK N   1      35.743  18.108   9.016  0.00  0.00     0.209 HD
ENDBRANCH  16  17
ENDBRANCH  13  16
BRANCH  14  19
HETATM   19  O   UNK N   1      33.106  14.886  11.099  0.00  0.00    -0.393 OA
HETATM   20  H   UNK N   1      33.364  15.079  12.014  0.00  0.00     0.210 HD
ENDBRANCH  14  19
ENDBRANCH   4  11
TORSDOF 4
ENDMDL
MODEL 6
REMARK VINA RESULT:      -5.4     14.645     15.525
REMARK  4 active torsions:
REMARK  status: ('A' for Active; 'I' for Inactive)
REMARK    1  A    between atoms: C_9  and  O_3 
REMARK    2  A    between atoms: O_4  and  C_13 
REMARK    3  A    between atoms: C_10  and  N_7 
REMARK    4  A    between atoms: C_12  and  C_13 
ROOT
HETATM    1  F   UNK N   1      25.347  13.056   9.886  0.00  0.00    -0.199 F 
HETATM    2  O   UNK N   1      20.225  12.369  11.219  0.00  0.00    -0.246 OA
HETATM    3  O   UNK N   1      24.556  11.636  12.053  0.00  0.00    -0.265 OA
HETATM    4  N   UNK N   1      21.727  13.281   9.779  0.00  0.00    -0.279 N 
HETATM    5  N   UNK N   1      22.375  11.982  11.675  0.00  0.00    -0.273 N 
HETATM    6  C   UNK N   1      21.388  12.542  10.906  0.00  0.00     0.331 A 
HETATM    7  C   UNK N   1      23.039  13.438   9.454  0.00  0.00     0.146 A 
HETATM    8  C   UNK N   1      24.047  12.878  10.230  0.00  0.00     0.199 A 
HETATM    9  C   UNK N   1      23.696  12.141  11.355  0.00  0.00     0.289 A 
HETATM   10  H   UNK N   1      22.130  11.458  12.472  0.00  0.00     0.173 HD
ENDROOT
BRANCH   4  11
HETATM   11  C   UNK N   1      20.766  13.930   8.872  0.00  0.00     0.235 C 
HETATM   12  O   UNK N   1      20.343  15.154   9.401  0.00  0.00    -0.356 OA
HETATM   13  C   UNK N   1      19.607  15.672   8.337  0.00  0.00     0.176 C 
HETATM   14  C   UNK N   1      20.424  15.435   7.072  0.00  0.00     0.153 C 
HETATM   15  C   UNK N   1      21.190  14.183   7.431  0.00  0.00     0.088 C 
BRANCH  13  16
HETATM   16  C   UNK N   1      19.235  17.129   8.575  0.00  0.00     0.198 C 
BRANCH  16  17
HETATM   17  O   UNK N   1      20.362  17.838   8.995  0.00  0.00    -0.398 OA
HETATM   18  H   UNK N   1      20.550  17.988   9.934  0.00  0.00     0.209 HD
ENDBRANCH  16  17
ENDBRANCH  13  16
BRANCH  14  19
HETATM   19  O   UNK N   1      21.347  16.463   6.869  0.00  0.00    -0.393 OA
HETATM   20  H   UNK N   1      22.280  16.720   6.937  0.00  0.00     0.210 HD
ENDBRANCH  14  19
ENDBRANCH   4  11
TORSDOF 4
ENDMDL
MODEL 7
REMARK VINA RESULT:      -5.3     14.635     15.616
REMARK  4 active torsions:
REMARK  status: ('A' for Active; 'I' for Inactive)
REMARK    1  A    between atoms: C_9  and  O_3 
REMARK    2  A    between atoms: O_4  and  C_13 
REMARK    3  A    between atoms: C_10  and  N_7 
REMARK    4  A    between atoms: C_12  and  C_13 
ROOT
HETATM    1  F   UNK N   1      20.445  11.950  11.936  0.00  0.00    -0.199 F 
HETATM    2  O   UNK N   1      24.896  13.295   9.317  0.00  0.00    -0.246 OA
HETATM    3  O   UNK N   1      22.927  11.644  12.976  0.00  0.00    -0.265 OA
HETATM    4  N   UNK N   1      22.628  13.170   9.307  0.00  0.00    -0.279 N 
HETATM    5  N   UNK N   1      23.955  12.461  11.162  0.00  0.00    -0.273 N 
HETATM    6  C   UNK N   1      23.872  12.986   9.897  0.00  0.00     0.331 A 
HETATM    7  C   UNK N   1      21.505  12.826   9.995  0.00  0.00     0.146 A 
HETATM    8  C   UNK N   1      21.579  12.289  11.275  0.00  0.00     0.199 A 
HETATM    9  C   UNK N   1      22.830  12.110  11.855  0.00  0.00     0.289 A 
HETATM   10  H   UNK N   1      24.839  12.335  11.576  0.00  0.00     0.173 HD
ENDROOT
BRANCH   4  11
HETATM   11  C   UNK N   1      22.403  13.723   7.961  0.00  0.00     0.235 C 
HETATM   12  O   UNK N   1      21.715  12.804   7.162  0.00  0.00    -0.356 OA
HETATM   13  C   UNK N   1      21.450  13.570   6.028  0.00  0.00     0.176 C 
HETATM   14  C   UNK N   1      20.964  14.931   6.514  0.00  0.00     0.153 C 
HETATM   15  C   UNK N   1      21.678  15.057   7.840  0.00  0.00     0.088 C 
BRANCH  13  16
HETATM   16  C   UNK N   1      20.484  12.861   5.091  0.00  0.00     0.198 C 
BRANCH  16  17
HETATM   17  O   UNK N   1      19.501  12.208   5.836  0.00  0.00    -0.398 OA
HETATM   18  H   UNK N   1      18.801  11.688   5.413  0.00  0.00     0.209 HD
ENDBRANCH  16  17
ENDBRANCH  13  16
BRANCH  14  19
HETATM   19  O   UNK N   1      19.590  14.914   6.763  0.00  0.00    -0.393 OA
HETATM   20  H   UNK N   1      18.843  15.407   7.138  0.00  0.00     0.210 HD
ENDBRANCH  14  19
ENDBRANCH   4  11
TORSDOF 4
ENDMDL
MODEL 8
REMARK VINA RESULT:      -5.2     19.845     22.203
REMARK  4 active torsions:
REMARK  status: ('A' for Active; 'I' for Inactive)
REMARK    1  A    between atoms: C_9  and  O_3 
REMARK    2  A    between atoms: O_4  and  C_13 
REMARK    3  A    between atoms: C_10  and  N_7 
REMARK    4  A    between atoms: C_12  and  C_13 
ROOT
HETATM    1  F   UNK N   1      30.290  20.673  -6.439  0.00  0.00    -0.199 F 
HETATM    2  O   UNK N   1      30.603  22.934  -1.615  0.00  0.00    -0.246 OA
HETATM    3  O   UNK N   1      31.844  19.701  -4.444  0.00  0.00    -0.265 OA
HETATM    4  N   UNK N   1      29.708  22.984  -3.702  0.00  0.00    -0.279 N 
HETATM    5  N   UNK N   1      31.253  21.304  -2.995  0.00  0.00    -0.273 N 
HETATM    6  C   UNK N   1      30.527  22.436  -2.722  0.00  0.00     0.331 A 
HETATM    7  C   UNK N   1      29.639  22.387  -4.924  0.00  0.00     0.146 A 
HETATM    8  C   UNK N   1      30.374  21.243  -5.211  0.00  0.00     0.199 A 
HETATM    9  C   UNK N   1      31.189  20.704  -4.223  0.00  0.00     0.289 A 
HETATM   10  H   UNK N   1      31.829  20.919  -2.297  0.00  0.00     0.173 HD
ENDROOT
BRANCH   4  11
HETATM   11  C   UNK N   1      28.880  24.190  -3.537  0.00  0.00     0.235 C 
HETATM   12  O   UNK N   1      28.786  24.889  -4.744  0.00  0.00    -0.356 OA
HETATM   13  C   UNK N   1      27.840  25.861  -4.424  0.00  0.00     0.176 C 
HETATM   14  C   UNK N   1      26.721  25.160  -3.662  0.00  0.00     0.153 C 
HETATM   15  C   UNK N   1      27.466  24.025  -2.997  0.00  0.00     0.088 C 
BRANCH  13  16
HETATM   16  C   UNK N   1      27.374  26.613  -5.663  0.00  0.00     0.198 C 
BRANCH  16  17
HETATM   17  O   UNK N   1      26.260  27.393  -5.347  0.00  0.00    -0.398 OA
HETATM   18  H   UNK N   1      26.225  27.931  -4.542  0.00  0.00     0.209 HD
ENDBRANCH  16  17
ENDBRANCH  13  16
BRANCH  14  19
HETATM   19  O   UNK N   1      25.784  24.609  -4.538  0.00  0.00    -0.393 OA
HETATM   20  H   UNK N   1      25.182  23.864  -4.694  0.00  0.00     0.210 HD
ENDBRANCH  14  19
ENDBRANCH   4  11
TORSDOF 4
ENDMDL
MODEL 9
REMARK VINA RESULT:      -5.2      3.887      5.622
REMARK  4 active torsions:
REMARK  status: ('A' for Active; 'I' for Inactive)
REMARK    1  A    between atoms: C_9  and  O_3 
REMARK    2  A    between atoms: O_4  and  C_13 
REMARK    3  A    between atoms: C_10  and  N_7 
REMARK    4  A    between atoms: C_12  and  C_13 
ROOT
HETATM    1  F   UNK N   1      35.212  12.302  12.594  0.00  0.00    -0.199 F 
HETATM    2  O   UNK N   1      35.652  17.168  10.446  0.00  0.00    -0.246 OA
HETATM    3  O   UNK N   1      36.529  14.340  13.797  0.00  0.00    -0.265 OA
HETATM    4  N   UNK N   1      34.857  15.048  10.249  0.00  0.00    -0.279 N 
HETATM    5  N   UNK N   1      36.116  15.789  12.139  0.00  0.00    -0.273 N 
HETATM    6  C   UNK N   1      35.549  16.050  10.918  0.00  0.00     0.331 A 
HETATM    7  C   UNK N   1      34.753  13.816  10.818  0.00  0.00     0.146 A 
HETATM    8  C   UNK N   1      35.328  13.540  12.053  0.00  0.00     0.199 A 
HETATM    9  C   UNK N   1      36.016  14.551  12.713  0.00  0.00     0.289 A 
HETATM   10  H   UNK N   1      36.603  16.503  12.610  0.00  0.00     0.173 HD
ENDROOT
BRANCH   4  11
HETATM   11  C   UNK N   1      34.205  15.200   8.938  0.00  0.00     0.235 C 
HETATM   12  O   UNK N   1      33.132  16.093   9.026  0.00  0.00    -0.356 OA
HETATM   13  C   UNK N   1      32.781  16.232   7.684  0.00  0.00     0.176 C 
HETATM   14  C   UNK N   1      34.077  16.405   6.900  0.00  0.00     0.153 C 
HETATM   15  C   UNK N   1      35.058  15.634   7.754  0.00  0.00     0.088 C 
BRANCH  13  16
HETATM   16  C   UNK N   1      31.777  17.358   7.485  0.00  0.00     0.198 C 
BRANCH  16  17
HETATM   17  O   UNK N   1      31.994  18.354   8.439  0.00  0.00    -0.398 OA
HETATM   18  H   UNK N   1      32.570  19.113   8.262  0.00  0.00     0.209 HD
ENDBRANCH  16  17
ENDBRANCH  13  16
BRANCH  14  19
HETATM   19  O   UNK N   1      34.478  17.743   6.882  0.00  0.00    -0.393 OA
HETATM   20  H   UNK N   1      34.398  18.604   7.322  0.00  0.00     0.210 HD
ENDBRANCH  14  19
ENDBRANCH   4  11
TORSDOF 4
ENDMDL
