MODEL 1
REMARK VINA RESULT:      -7.3      0.000      0.000
REMARK  5 active torsions:
REMARK  status: ('A' for Active; 'I' for Inactive)
REMARK    1  A    between atoms: O_2  and  C_13 
REMARK    2  A    between atoms: O_3  and  C_17 
REMARK    3  A    between atoms: N_6  and  C_12 
REMARK    4  A    between atoms: C_7  and  C_9 
REMARK    5  A    between atoms: C_8  and  C_9 
ROOT
HETATM    1  C   UNK N   1      21.116  14.922   7.770  0.00  0.00     0.020 A 
HETATM    2  C   UNK N   1      20.338  15.800   8.531  0.00  0.00     0.054 A 
HETATM    3  C   UNK N   1      21.818  15.428   6.670  0.00  0.00     0.055 A 
HETATM    4  C   UNK N   1      20.250  17.163   8.212  0.00  0.00     0.139 A 
HETATM    5  C   UNK N   1      21.749  16.776   6.331  0.00  0.00     0.102 A 
HETATM    6  C   UNK N   1      20.969  17.653   7.093  0.00  0.00     0.132 A 
ENDROOT
BRANCH   1   7
HETATM    7  C   UNK N   1      21.176  13.479   8.152  0.00  0.00     0.192 C 
HETATM    8  O   UNK N   1      20.740  12.649   7.363  0.00  0.00    -0.287 OA
BRANCH   7   9
HETATM    9  C   UNK N   1      21.739  12.998   9.448  0.00  0.00     0.015 A 
HETATM   10  C   UNK N   1      23.122  12.854   9.638  0.00  0.00     0.016 A 
HETATM   11  C   UNK N   1      23.635  12.404  10.853  0.00  0.00     0.007 A 
HETATM   12  C   UNK N   1      22.771  12.090  11.899  0.00  0.00    -0.062 A 
HETATM   13  C   UNK N   1      21.389  12.226  11.729  0.00  0.00     0.007 A 
HETATM   14  C   UNK N   1      23.321  11.611  13.191  0.00  0.00     0.048 C 
HETATM   15  C   UNK N   1      20.876  12.679  10.509  0.00  0.00     0.016 A 
ENDBRANCH   7   9
ENDBRANCH   1   7
BRANCH   4  16
HETATM   16  N   UNK N   1      19.439  18.010   9.026  0.00  0.00    -0.113 N 
HETATM   17  O   UNK N   1      18.194  17.670   9.286  0.00  0.00    -0.532 OA
HETATM   18  O   UNK N   1      19.873  19.026   9.477  0.00  0.00    -0.532 OA
ENDBRANCH   4  16
BRANCH   5  19
HETATM   19  O   UNK N   1      22.437  17.227   5.266  0.00  0.00    -0.358 OA
HETATM   20  H   UNK N   1      22.438  16.737   4.468  0.00  0.00     0.217 HD
ENDBRANCH   5  19
BRANCH   6  21
HETATM   21  O   UNK N   1      20.915  18.953   6.750  0.00  0.00    -0.356 OA
HETATM   22  H   UNK N   1      21.261  19.235   5.925  0.00  0.00     0.218 HD
ENDBRANCH   6  21
TORSDOF 5
ENDMDL
MODEL 2
REMARK VINA RESULT:      -6.9     10.602     12.390
REMARK  5 active torsions:
REMARK  status: ('A' for Active; 'I' for Inactive)
REMARK    1  A    between atoms: O_2  and  C_13 
REMARK    2  A    between atoms: O_3  and  C_17 
REMARK    3  A    between atoms: N_6  and  C_12 
REMARK    4  A    between atoms: C_7  and  C_9 
REMARK    5  A    between atoms: C_8  and  C_9 
ROOT
HETATM    1  C   UNK N   1      32.378  16.521   7.745  0.00  0.00     0.020 A 
HETATM    2  C   UNK N   1      32.753  15.573   8.701  0.00  0.00     0.054 A 
HETATM    3  C   UNK N   1      33.132  17.695   7.631  0.00  0.00     0.055 A 
HETATM    4  C   UNK N   1      33.859  15.777   9.538  0.00  0.00     0.139 A 
HETATM    5  C   UNK N   1      34.235  17.923   8.450  0.00  0.00     0.102 A 
HETATM    6  C   UNK N   1      34.609  16.972   9.406  0.00  0.00     0.132 A 
ENDROOT
BRANCH   1   7
HETATM    7  C   UNK N   1      31.191  16.256   6.877  0.00  0.00     0.192 C 
HETATM    8  O   UNK N   1      31.120  15.177   6.301  0.00  0.00    -0.287 OA
BRANCH   7   9
HETATM    9  C   UNK N   1      30.086  17.239   6.678  0.00  0.00     0.015 A 
HETATM   10  C   UNK N   1      29.438  17.845   7.765  0.00  0.00     0.016 A 
HETATM   11  C   UNK N   1      28.408  18.762   7.566  0.00  0.00     0.007 A 
HETATM   12  C   UNK N   1      28.010  19.088   6.272  0.00  0.00    -0.062 A 
HETATM   13  C   UNK N   1      28.643  18.495   5.175  0.00  0.00     0.007 A 
HETATM   14  C   UNK N   1      26.912  20.065   6.063  0.00  0.00     0.048 C 
HETATM   15  C   UNK N   1      29.678  17.576   5.377  0.00  0.00     0.016 A 
ENDBRANCH   7   9
ENDBRANCH   1   7
BRANCH   4  16
HETATM   16  N   UNK N   1      34.193  14.772  10.495  0.00  0.00    -0.113 N 
HETATM   17  O   UNK N   1      34.512  13.560  10.089  0.00  0.00    -0.532 OA
HETATM   18  O   UNK N   1      34.188  15.011  11.664  0.00  0.00    -0.532 OA
ENDBRANCH   4  16
BRANCH   5  19
HETATM   19  O   UNK N   1      34.937  19.063   8.312  0.00  0.00    -0.358 OA
HETATM   20  H   UNK N   1      35.020  19.651   9.037  0.00  0.00     0.217 HD
ENDBRANCH   5  19
BRANCH   6  21
HETATM   21  O   UNK N   1      35.678  17.210  10.187  0.00  0.00    -0.356 OA
HETATM   22  H   UNK N   1      36.528  16.918   9.922  0.00  0.00     0.218 HD
ENDBRANCH   6  21
TORSDOF 5
ENDMDL
MODEL 3
REMARK VINA RESULT:      -6.9      3.534      5.425
REMARK  5 active torsions:
REMARK  status: ('A' for Active; 'I' for Inactive)
REMARK    1  A    between atoms: O_2  and  C_13 
REMARK    2  A    between atoms: O_3  and  C_17 
REMARK    3  A    between atoms: N_6  and  C_12 
REMARK    4  A    between atoms: C_7  and  C_9 
REMARK    5  A    between atoms: C_8  and  C_9 
ROOT
HETATM    1  C   UNK N   1      20.893  18.031   4.813  0.00  0.00     0.020 A 
HETATM    2  C   UNK N   1      21.294  19.240   4.235  0.00  0.00     0.054 A 
HETATM    3  C   UNK N   1      20.313  17.055   3.994  0.00  0.00     0.055 A 
HETATM    4  C   UNK N   1      21.126  19.486   2.865  0.00  0.00     0.139 A 
HETATM    5  C   UNK N   1      20.135  17.273   2.631  0.00  0.00     0.102 A 
HETATM    6  C   UNK N   1      20.537  18.484   2.054  0.00  0.00     0.132 A 
ENDROOT
BRANCH   1   7
HETATM    7  C   UNK N   1      21.094  17.818   6.278  0.00  0.00     0.192 C 
HETATM    8  O   UNK N   1      21.057  18.794   7.018  0.00  0.00    -0.287 OA
BRANCH   7   9
HETATM    9  C   UNK N   1      21.338  16.477   6.884  0.00  0.00     0.015 A 
HETATM   10  C   UNK N   1      22.509  15.752   6.615  0.00  0.00     0.016 A 
HETATM   11  C   UNK N   1      22.725  14.500   7.188  0.00  0.00     0.007 A 
HETATM   12  C   UNK N   1      21.770  13.953   8.041  0.00  0.00    -0.062 A 
HETATM   13  C   UNK N   1      20.596  14.659   8.321  0.00  0.00     0.007 A 
HETATM   14  C   UNK N   1      22.003  12.619   8.649  0.00  0.00     0.048 C 
HETATM   15  C   UNK N   1      20.381  15.916   7.747  0.00  0.00     0.016 A 
ENDBRANCH   7   9
ENDBRANCH   1   7
BRANCH   4  16
HETATM   16  N   UNK N   1      21.555  20.739   2.333  0.00  0.00    -0.113 N 
HETATM   17  O   UNK N   1      20.880  21.299   1.351  0.00  0.00    -0.532 OA
HETATM   18  O   UNK N   1      22.521  21.291   2.765  0.00  0.00    -0.532 OA
ENDBRANCH   4  16
BRANCH   5  19
HETATM   19  O   UNK N   1      19.574  16.312   1.874  0.00  0.00    -0.358 OA
HETATM   20  H   UNK N   1      18.881  16.528   1.281  0.00  0.00     0.217 HD
ENDBRANCH   5  19
BRANCH   6  21
HETATM   21  O   UNK N   1      20.356  18.676   0.735  0.00  0.00    -0.356 OA
HETATM   22  H   UNK N   1      19.495  18.629   0.368  0.00  0.00     0.218 HD
ENDBRANCH   6  21
TORSDOF 5
ENDMDL
MODEL 4
REMARK VINA RESULT:      -6.7      8.059     10.516
REMARK  5 active torsions:
REMARK  status: ('A' for Active; 'I' for Inactive)
REMARK    1  A    between atoms: O_2  and  C_13 
REMARK    2  A    between atoms: O_3  and  C_17 
REMARK    3  A    between atoms: N_6  and  C_12 
REMARK    4  A    between atoms: C_7  and  C_9 
REMARK    5  A    between atoms: C_8  and  C_9 
ROOT
HETATM    1  C   UNK N   1      29.012  17.588   6.208  0.00  0.00     0.020 A 
HETATM    2  C   UNK N   1      30.293  17.169   6.581  0.00  0.00     0.054 A 
HETATM    3  C   UNK N   1      28.087  17.898   7.212  0.00  0.00     0.055 A 
HETATM    4  C   UNK N   1      30.661  17.057   7.929  0.00  0.00     0.139 A 
HETATM    5  C   UNK N   1      28.427  17.795   8.558  0.00  0.00     0.102 A 
HETATM    6  C   UNK N   1      29.709  17.376   8.929  0.00  0.00     0.132 A 
ENDROOT
BRANCH   1   7
HETATM    7  C   UNK N   1      28.670  17.691   4.757  0.00  0.00     0.192 C 
HETATM    8  O   UNK N   1      29.402  17.138   3.946  0.00  0.00    -0.287 OA
BRANCH   7   9
HETATM    9  C   UNK N   1      27.481  18.434   4.247  0.00  0.00     0.015 A 
HETATM   10  C   UNK N   1      26.269  17.781   3.972  0.00  0.00     0.016 A 
HETATM   11  C   UNK N   1      25.166  18.487   3.497  0.00  0.00     0.007 A 
HETATM   12  C   UNK N   1      25.258  19.861   3.289  0.00  0.00    -0.062 A 
HETATM   13  C   UNK N   1      26.456  20.530   3.557  0.00  0.00     0.007 A 
HETATM   14  C   UNK N   1      24.081  20.610   2.782  0.00  0.00     0.048 C 
HETATM   15  C   UNK N   1      27.562  19.821   4.035  0.00  0.00     0.016 A 
ENDBRANCH   7   9
ENDBRANCH   1   7
BRANCH   4  16
HETATM   16  N   UNK N   1      31.984  16.624   8.248  0.00  0.00    -0.113 N 
HETATM   17  O   UNK N   1      32.355  15.392   7.969  0.00  0.00    -0.532 OA
HETATM   18  O   UNK N   1      32.763  17.364   8.766  0.00  0.00    -0.532 OA
ENDBRANCH   4  16
BRANCH   5  19
HETATM   19  O   UNK N   1      27.512  18.102   9.496  0.00  0.00    -0.358 OA
HETATM   20  H   UNK N   1      27.204  18.983   9.579  0.00  0.00     0.217 HD
ENDBRANCH   5  19
BRANCH   6  21
HETATM   21  O   UNK N   1      30.018  17.283  10.235  0.00  0.00    -0.356 OA
HETATM   22  H   UNK N   1      29.739  17.950  10.832  0.00  0.00     0.218 HD
ENDBRANCH   6  21
TORSDOF 5
ENDMDL
MODEL 5
REMARK VINA RESULT:      -6.6      9.145     11.419
REMARK  5 active torsions:
REMARK  status: ('A' for Active; 'I' for Inactive)
REMARK    1  A    between atoms: O_2  and  C_13 
REMARK    2  A    between atoms: O_3  and  C_17 
REMARK    3  A    between atoms: N_6  and  C_12 
REMARK    4  A    between atoms: C_7  and  C_9 
REMARK    5  A    between atoms: C_8  and  C_9 
ROOT
HETATM    1  C   UNK N   1      30.173  17.031   5.907  0.00  0.00     0.020 A 
HETATM    2  C   UNK N   1      31.550  17.157   5.699  0.00  0.00     0.054 A 
HETATM    3  C   UNK N   1      29.683  17.088   7.217  0.00  0.00     0.055 A 
HETATM    4  C   UNK N   1      32.437  17.338   6.770  0.00  0.00     0.139 A 
HETATM    5  C   UNK N   1      30.541  17.268   8.298  0.00  0.00     0.102 A 
HETATM    6  C   UNK N   1      31.919  17.394   8.089  0.00  0.00     0.132 A 
ENDROOT
BRANCH   1   7
HETATM    7  C   UNK N   1      29.271  16.839   4.731  0.00  0.00     0.192 C 
HETATM    8  O   UNK N   1      29.435  15.851   4.027  0.00  0.00    -0.287 OA
BRANCH   7   9
HETATM    9  C   UNK N   1      28.180  17.792   4.373  0.00  0.00     0.015 A 
HETATM   10  C   UNK N   1      28.313  19.173   4.583  0.00  0.00     0.016 A 
HETATM   11  C   UNK N   1      27.287  20.052   4.244  0.00  0.00     0.007 A 
HETATM   12  C   UNK N   1      26.107  19.562   3.689  0.00  0.00    -0.062 A 
HETATM   13  C   UNK N   1      25.955  18.189   3.473  0.00  0.00     0.007 A 
HETATM   14  C   UNK N   1      25.016  20.502   3.330  0.00  0.00     0.048 C 
HETATM   15  C   UNK N   1      26.986  17.308   3.812  0.00  0.00     0.016 A 
ENDBRANCH   7   9
ENDBRANCH   1   7
BRANCH   4  16
HETATM   16  N   UNK N   1      33.832  17.461   6.496  0.00  0.00    -0.113 N 
HETATM   17  O   UNK N   1      34.563  18.311   7.186  0.00  0.00    -0.532 OA
HETATM   18  O   UNK N   1      34.351  16.802   5.647  0.00  0.00    -0.532 OA
ENDBRANCH   4  16
BRANCH   5  19
HETATM   19  O   UNK N   1      30.035  17.318   9.544  0.00  0.00    -0.358 OA
HETATM   20  H   UNK N   1      29.129  17.521   9.673  0.00  0.00     0.217 HD
ENDBRANCH   5  19
BRANCH   6  21
HETATM   21  O   UNK N   1      32.732  17.566   9.146  0.00  0.00    -0.356 OA
HETATM   22  H   UNK N   1      32.945  16.839   9.698  0.00  0.00     0.218 HD
ENDBRANCH   6  21
TORSDOF 5
ENDMDL
MODEL 6
REMARK VINA RESULT:      -6.6     10.018     12.048
REMARK  5 active torsions:
REMARK  status: ('A' for Active; 'I' for Inactive)
REMARK    1  A    between atoms: O_2  and  C_13 
REMARK    2  A    between atoms: O_3  and  C_17 
REMARK    3  A    between atoms: N_6  and  C_12 
REMARK    4  A    between atoms: C_7  and  C_9 
REMARK    5  A    between atoms: C_8  and  C_9 
ROOT
HETATM    1  C   UNK N   1      31.244  17.056   7.675  0.00  0.00     0.020 A 
HETATM    2  C   UNK N   1      32.301  17.747   8.276  0.00  0.00     0.054 A 
HETATM    3  C   UNK N   1      31.540  15.981   6.828  0.00  0.00     0.055 A 
HETATM    4  C   UNK N   1      33.636  17.384   8.046  0.00  0.00     0.139 A 
HETATM    5  C   UNK N   1      32.856  15.600   6.583  0.00  0.00     0.102 A 
HETATM    6  C   UNK N   1      33.912  16.292   7.185  0.00  0.00     0.132 A 
ENDROOT
BRANCH   1   7
HETATM    7  C   UNK N   1      29.840  17.483   7.953  0.00  0.00     0.192 C 
HETATM    8  O   UNK N   1      29.343  17.183   9.032  0.00  0.00    -0.287 OA
BRANCH   7   9
HETATM    9  C   UNK N   1      29.012  18.257   6.982  0.00  0.00     0.015 A 
HETATM   10  C   UNK N   1      28.182  19.308   7.399  0.00  0.00     0.016 A 
HETATM   11  C   UNK N   1      27.415  20.023   6.482  0.00  0.00     0.007 A 
HETATM   12  C   UNK N   1      27.466  19.696   5.130  0.00  0.00    -0.062 A 
HETATM   13  C   UNK N   1      28.287  18.651   4.694  0.00  0.00     0.007 A 
HETATM   14  C   UNK N   1      26.647  20.459   4.156  0.00  0.00     0.048 C 
HETATM   15  C   UNK N   1      29.057  17.935   5.615  0.00  0.00     0.016 A 
ENDBRANCH   7   9
ENDBRANCH   1   7
BRANCH   4  16
HETATM   16  N   UNK N   1      34.672  18.126   8.688  0.00  0.00    -0.113 N 
HETATM   17  O   UNK N   1      35.309  17.607   9.717  0.00  0.00    -0.532 OA
HETATM   18  O   UNK N   1      34.973  19.216   8.307  0.00  0.00    -0.532 OA
ENDBRANCH   4  16
BRANCH   5  19
HETATM   19  O   UNK N   1      33.102  14.562   5.763  0.00  0.00    -0.358 OA
HETATM   20  H   UNK N   1      32.577  14.436   4.997  0.00  0.00     0.217 HD
ENDBRANCH   5  19
BRANCH   6  21
HETATM   21  O   UNK N   1      35.177  15.909   6.935  0.00  0.00    -0.356 OA
HETATM   22  H   UNK N   1      35.814  15.915   7.624  0.00  0.00     0.218 HD
ENDBRANCH   6  21
TORSDOF 5
ENDMDL
MODEL 7
REMARK VINA RESULT:      -6.6     16.915     18.894
REMARK  5 active torsions:
REMARK  status: ('A' for Active; 'I' for Inactive)
REMARK    1  A    between atoms: O_2  and  C_13 
REMARK    2  A    between atoms: O_3  and  C_17 
REMARK    3  A    between atoms: N_6  and  C_12 
REMARK    4  A    between atoms: C_7  and  C_9 
REMARK    5  A    between atoms: C_8  and  C_9 
ROOT
HETATM    1  C   UNK N   1      29.689  22.415  -4.956  0.00  0.00     0.020 A 
HETATM    2  C   UNK N   1      30.757  21.588  -5.314  0.00  0.00     0.054 A 
HETATM    3  C   UNK N   1      29.608  22.875  -3.636  0.00  0.00     0.055 A 
HETATM    4  C   UNK N   1      31.737  21.215  -4.382  0.00  0.00     0.139 A 
HETATM    5  C   UNK N   1      30.567  22.520  -2.691  0.00  0.00     0.102 A 
HETATM    6  C   UNK N   1      31.635  21.692  -3.051  0.00  0.00     0.132 A 
ENDROOT
BRANCH   1   7
HETATM    7  C   UNK N   1      28.671  22.783  -5.986  0.00  0.00     0.192 C 
HETATM    8  O   UNK N   1      28.611  22.113  -7.010  0.00  0.00    -0.287 OA
BRANCH   7   9
HETATM    9  C   UNK N   1      27.724  23.926  -5.830  0.00  0.00     0.015 A 
HETATM   10  C   UNK N   1      26.401  23.730  -5.407  0.00  0.00     0.016 A 
HETATM   11  C   UNK N   1      25.527  24.806  -5.265  0.00  0.00     0.007 A 
HETATM   12  C   UNK N   1      25.965  26.098  -5.546  0.00  0.00    -0.062 A 
HETATM   13  C   UNK N   1      27.280  26.314  -5.970  0.00  0.00     0.007 A 
HETATM   14  C   UNK N   1      25.031  27.241  -5.394  0.00  0.00     0.048 C 
HETATM   15  C   UNK N   1      28.156  25.233  -6.110  0.00  0.00     0.016 A 
ENDBRANCH   7   9
ENDBRANCH   1   7
BRANCH   4  16
HETATM   16  N   UNK N   1      32.804  20.367  -4.807  0.00  0.00    -0.113 N 
HETATM   17  O   UNK N   1      33.049  19.248  -4.158  0.00  0.00    -0.532 OA
HETATM   18  O   UNK N   1      33.482  20.657  -5.745  0.00  0.00    -0.532 OA
ENDBRANCH   4  16
BRANCH   5  19
HETATM   19  O   UNK N   1      30.456  22.981  -1.432  0.00  0.00    -0.358 OA
HETATM   20  H   UNK N   1      30.874  23.783  -1.188  0.00  0.00     0.217 HD
ENDBRANCH   5  19
BRANCH   6  21
HETATM   21  O   UNK N   1      32.552  21.360  -2.124  0.00  0.00    -0.356 OA
HETATM   22  H   UNK N   1      33.138  22.011  -1.790  0.00  0.00     0.218 HD
ENDBRANCH   6  21
TORSDOF 5
ENDMDL
MODEL 8
REMARK VINA RESULT:      -6.4      3.867      6.134
REMARK  5 active torsions:
REMARK  status: ('A' for Active; 'I' for Inactive)
REMARK    1  A    between atoms: O_2  and  C_13 
REMARK    2  A    between atoms: O_3  and  C_17 
REMARK    3  A    between atoms: N_6  and  C_12 
REMARK    4  A    between atoms: C_7  and  C_9 
REMARK    5  A    between atoms: C_8  and  C_9 
ROOT
HETATM    1  C   UNK N   1      21.025  18.438   4.434  0.00  0.00     0.020 A 
HETATM    2  C   UNK N   1      20.685  17.541   3.417  0.00  0.00     0.054 A 
HETATM    3  C   UNK N   1      21.217  19.786   4.105  0.00  0.00     0.055 A 
HETATM    4  C   UNK N   1      20.536  17.964   2.088  0.00  0.00     0.139 A 
HETATM    5  C   UNK N   1      21.075  20.232   2.794  0.00  0.00     0.102 A 
HETATM    6  C   UNK N   1      20.736  19.333   1.777  0.00  0.00     0.132 A 
ENDROOT
BRANCH   1   7
HETATM    7  C   UNK N   1      21.171  17.936   5.833  0.00  0.00     0.192 C 
HETATM    8  O   UNK N   1      21.087  18.741   6.752  0.00  0.00    -0.287 OA
BRANCH   7   9
HETATM    9  C   UNK N   1      21.414  16.502   6.167  0.00  0.00     0.015 A 
HETATM   10  C   UNK N   1      20.362  15.639   6.508  0.00  0.00     0.016 A 
HETATM   11  C   UNK N   1      20.602  14.302   6.817  0.00  0.00     0.007 A 
HETATM   12  C   UNK N   1      21.903  13.806   6.790  0.00  0.00    -0.062 A 
HETATM   13  C   UNK N   1      22.966  14.650   6.452  0.00  0.00     0.007 A 
HETATM   14  C   UNK N   1      22.156  12.381   7.120  0.00  0.00     0.048 C 
HETATM   15  C   UNK N   1      22.723  15.992   6.141  0.00  0.00     0.016 A 
ENDBRANCH   7   9
ENDBRANCH   1   7
BRANCH   4  16
HETATM   16  N   UNK N   1      20.189  17.001   1.093  0.00  0.00    -0.113 N 
HETATM   17  O   UNK N   1      20.370  17.281  -0.181  0.00  0.00    -0.532 OA
HETATM   18  O   UNK N   1      19.734  15.941   1.397  0.00  0.00    -0.532 OA
ENDBRANCH   4  16
BRANCH   5  19
HETATM   19  O   UNK N   1      21.268  21.534   2.515  0.00  0.00    -0.358 OA
HETATM   20  H   UNK N   1      20.913  22.192   3.080  0.00  0.00     0.217 HD
ENDBRANCH   5  19
BRANCH   6  21
HETATM   21  O   UNK N   1      20.603  19.784   0.517  0.00  0.00    -0.356 OA
HETATM   22  H   UNK N   1      20.830  20.670   0.310  0.00  0.00     0.218 HD
ENDBRANCH   6  21
TORSDOF 5
ENDMDL
MODEL 9
REMARK VINA RESULT:      -6.4     13.467     15.285
REMARK  5 active torsions:
REMARK  status: ('A' for Active; 'I' for Inactive)
REMARK    1  A    between atoms: O_2  and  C_13 
REMARK    2  A    between atoms: O_3  and  C_17 
REMARK    3  A    between atoms: N_6  and  C_12 
REMARK    4  A    between atoms: C_7  and  C_9 
REMARK    5  A    between atoms: C_8  and  C_9 
ROOT
HETATM    1  C   UNK N   1      35.976  15.474  10.748  0.00  0.00     0.020 A 
HETATM    2  C   UNK N   1      35.683  15.130  12.071  0.00  0.00     0.054 A 
HETATM    3  C   UNK N   1      36.879  14.680  10.032  0.00  0.00     0.055 A 
HETATM    4  C   UNK N   1      36.274  14.015  12.684  0.00  0.00     0.139 A 
HETATM    5  C   UNK N   1      37.480  13.569  10.616  0.00  0.00     0.102 A 
HETATM    6  C   UNK N   1      37.186  13.226  11.940  0.00  0.00     0.132 A 
ENDROOT
BRANCH   1   7
HETATM    7  C   UNK N   1      35.319  16.671  10.142  0.00  0.00     0.192 C 
HETATM    8  O   UNK N   1      35.810  17.773  10.353  0.00  0.00    -0.287 OA
BRANCH   7   9
HETATM    9  C   UNK N   1      34.095  16.591   9.293  0.00  0.00     0.015 A 
HETATM   10  C   UNK N   1      33.296  15.438   9.264  0.00  0.00     0.016 A 
HETATM   11  C   UNK N   1      32.155  15.377   8.467  0.00  0.00     0.007 A 
HETATM   12  C   UNK N   1      31.795  16.470   7.683  0.00  0.00    -0.062 A 
HETATM   13  C   UNK N   1      32.578  17.629   7.698  0.00  0.00     0.007 A 
HETATM   14  C   UNK N   1      30.579  16.400   6.835  0.00  0.00     0.048 C 
HETATM   15  C   UNK N   1      33.723  17.690   8.499  0.00  0.00     0.016 A 
ENDBRANCH   7   9
ENDBRANCH   1   7
BRANCH   4  16
HETATM   16  N   UNK N   1      35.936  13.713  14.038  0.00  0.00    -0.113 N 
HETATM   17  O   UNK N   1      36.865  13.755  14.970  0.00  0.00    -0.532 OA
HETATM   18  O   UNK N   1      34.819  13.423  14.342  0.00  0.00    -0.532 OA
ENDBRANCH   4  16
BRANCH   5  19
HETATM   19  O   UNK N   1      38.344  12.829   9.896  0.00  0.00    -0.358 OA
HETATM   20  H   UNK N   1      39.261  13.018   9.928  0.00  0.00     0.217 HD
ENDBRANCH   5  19
BRANCH   6  21
HETATM   21  O   UNK N   1      37.776  12.148  12.487  0.00  0.00    -0.356 OA
HETATM   22  H   UNK N   1      38.498  12.256  13.076  0.00  0.00     0.218 HD
ENDBRANCH   6  21
TORSDOF 5
ENDMDL
