REMARK  5 active torsions:
REMARK  status: ('A' for Active; 'I' for Inactive)
REMARK    1  A    between atoms: O_2  and  C_13 
REMARK    2  A    between atoms: O_3  and  C_17 
REMARK    3  A    between atoms: N_6  and  C_12 
REMARK    4  A    between atoms: C_7  and  C_9 
REMARK    5  A    between atoms: C_8  and  C_9 
ROOT
HETATM    1  C   UNK N   1       4.295   1.048  -0.000  0.00  0.00     0.020 A 
HETATM    2  C   UNK N   1       4.264   2.446  -0.000  0.00  0.00     0.054 A 
HETATM    3  C   UNK N   1       3.082   0.349  -0.000  0.00  0.00     0.055 A 
HETATM    4  C   UNK N   1       3.051   3.150  -0.000  0.00  0.00     0.139 A 
HETATM    5  C   UNK N   1       1.864   1.023   0.000  0.00  0.00     0.102 A 
HETATM    6  C   UNK N   1       1.835   2.422   0.000  0.00  0.00     0.132 A 
ENDROOT
BRANCH   1   7
HETATM    7  C   UNK N   1       5.614   0.346  -0.000  0.00  0.00     0.192 C 
HETATM    8  O   UNK N   1       6.634   1.024  -0.000  0.00  0.00    -0.287 OA
BRANCH   7   9
HETATM    9  C   UNK N   1       5.750  -1.140  -0.000  0.00  0.00     0.015 A 
HETATM   10  C   UNK N   1       4.626  -1.980  -0.001  0.00  0.00     0.016 A 
HETATM   11  C   UNK N   1       4.767  -3.366  -0.001  0.00  0.00     0.007 A 
HETATM   12  C   UNK N   1       6.038  -3.935   0.000  0.00  0.00    -0.062 A 
HETATM   13  C   UNK N   1       7.171  -3.115   0.001  0.00  0.00     0.007 A 
HETATM   14  C   UNK N   1       6.184  -5.412   0.000  0.00  0.00     0.048 C 
HETATM   15  C   UNK N   1       7.028  -1.724   0.000  0.00  0.00     0.016 A 
ENDBRANCH   7   9
ENDBRANCH   1   7
BRANCH   4  16
HETATM   16  N   UNK N   1       3.083   4.577  -0.000  0.00  0.00    -0.113 N 
HETATM   17  O   UNK N   1       4.240   5.206  -0.000  0.00  0.00    -0.532 OA
HETATM   18  O   UNK N   1       2.074   5.214   0.000  0.00  0.00    -0.532 OA
ENDBRANCH   4  16
BRANCH   5  19
HETATM   19  O   UNK N   1       0.718   0.318   0.000  0.00  0.00    -0.358 OA
HETATM   20  H   UNK N   1      -0.106   0.764   0.000  0.00  0.00     0.217 HD
ENDBRANCH   5  19
BRANCH   6  21
HETATM   21  O   UNK N   1       0.648   3.055   0.000  0.00  0.00    -0.356 OA
HETATM   22  H   UNK N   1       0.616   3.992   0.000  0.00  0.00     0.218 HD
ENDBRANCH   6  21
TORSDOF 5
