MODEL 1
REMARK VINA RESULT:      -8.5      0.000      0.000
REMARK  2 active torsions:
REMARK  status: ('A' for Active; 'I' for Inactive)
REMARK    1  A    between atoms: C_12  and  O_3 
REMARK    2  A    between atoms: C_10  and  C_20 
ROOT
HETATM    1  F   UNK N   1      33.793  11.689  15.025  0.00  0.00    -0.238 F 
HETATM    2  O   UNK N   1      33.910  14.213  11.375  0.00  0.00    -0.381 OA
HETATM    3  O   UNK N   1      36.253   8.714  19.533  0.00  0.00    -0.289 OA
HETATM    4  C   UNK N   1      35.712  12.888  12.281  0.00  0.00     0.001 C 
HETATM    5  C   UNK N   1      35.492  13.612  13.612  0.00  0.00     0.005 C 
HETATM    6  C   UNK N   1      35.950  12.769  14.806  0.00  0.00     0.035 C 
HETATM    7  C   UNK N   1      35.143  11.415  14.833  0.00  0.00     0.147 C 
HETATM    8  C   UNK N   1      35.295  14.010  11.298  0.00  0.00     0.125 C 
HETATM    9  C   UNK N   1      34.886  11.597  12.268  0.00  0.00     0.048 C 
HETATM   10  C   UNK N   1      35.285  10.691  13.458  0.00  0.00     0.160 C 
HETATM   11  C   UNK N   1      36.186  14.950  13.395  0.00  0.00     0.009 C 
HETATM   12  C   UNK N   1      35.664  10.571  16.044  0.00  0.00     0.037 C 
HETATM   13  C   UNK N   1      35.995  15.242  11.896  0.00  0.00     0.047 C 
HETATM   14  C   UNK N   1      35.845  13.583  16.115  0.00  0.00     0.017 C 
HETATM   15  C   UNK N   1      35.150  12.844  17.251  0.00  0.00     0.012 C 
HETATM   16  C   UNK N   1      37.201  12.524  12.080  0.00  0.00     0.019 C 
HETATM   17  C   UNK N   1      35.560  11.390  17.334  0.00  0.00    -0.057 C 
HETATM   18  C   UNK N   1      37.148  10.242  15.825  0.00  0.00     0.028 C 
HETATM   19  C   UNK N   1      34.990   9.229  16.259  0.00  0.00    -0.006 C 
HETATM   20  C   UNK N   1      35.231  13.621  18.555  0.00  0.00     0.015 C 
HETATM   21  C   UNK N   1      35.779  10.781  18.517  0.00  0.00     0.059 C 
HETATM   22  C   UNK N   1      35.225   8.566  17.413  0.00  0.00     0.052 C 
HETATM   23  C   UNK N   1      35.855   9.303  18.542  0.00  0.00     0.172 C 
HETATM   24  H   UNK N   1      32.968  14.435  11.434  0.00  0.00     0.211 HD
ENDROOT
BRANCH   8  25
HETATM   25  C   UNK N   1      35.656  13.829   9.839  0.00  0.00     0.158 C 
HETATM   26  O   UNK N   1      36.594  14.432   9.340  0.00  0.00    -0.295 OA
HETATM   27  C   UNK N   1      34.860  12.892   8.988  0.00  0.00     0.094 C 
ENDBRANCH   8  25
BRANCH  10  28
HETATM   28  O   UNK N   1      34.511   9.530  13.422  0.00  0.00    -0.392 OA
HETATM   29  H   UNK N   1      34.623   8.804  12.788  0.00  0.00     0.210 HD
ENDBRANCH  10  28
TORSDOF 2
ENDMDL
MODEL 2
REMARK VINA RESULT:      -8.1     14.963     18.911
REMARK  2 active torsions:
REMARK  status: ('A' for Active; 'I' for Inactive)
REMARK    1  A    between atoms: C_12  and  O_3 
REMARK    2  A    between atoms: C_10  and  C_20 
ROOT
HETATM    1  F   UNK N   1      19.588  17.027   4.964  0.00  0.00    -0.238 F 
HETATM    2  O   UNK N   1      20.257  13.681   7.804  0.00  0.00    -0.381 OA
HETATM    3  O   UNK N   1      21.235  20.815   0.702  0.00  0.00    -0.289 OA
HETATM    4  C   UNK N   1      21.944  15.041   6.740  0.00  0.00     0.001 C 
HETATM    5  C   UNK N   1      21.295  14.687   5.400  0.00  0.00     0.005 C 
HETATM    6  C   UNK N   1      21.554  15.759   4.337  0.00  0.00     0.035 C 
HETATM    7  C   UNK N   1      20.967  17.137   4.828  0.00  0.00     0.147 C 
HETATM    8  C   UNK N   1      21.631  13.749   7.535  0.00  0.00     0.125 C 
HETATM    9  C   UNK N   1      21.339  16.351   7.260  0.00  0.00     0.048 C 
HETATM   10  C   UNK N   1      21.552  17.487   6.232  0.00  0.00     0.160 C 
HETATM   11  C   UNK N   1      21.823  13.286   5.121  0.00  0.00     0.009 C 
HETATM   12  C   UNK N   1      21.283  18.209   3.732  0.00  0.00     0.037 C 
HETATM   13  C   UNK N   1      21.975  12.650   6.515  0.00  0.00     0.047 C 
HETATM   14  C   UNK N   1      21.009  15.303   2.965  0.00  0.00     0.017 C 
HETATM   15  C   UNK N   1      20.164  16.352   2.254  0.00  0.00     0.012 C 
HETATM   16  C   UNK N   1      23.471  15.225   6.595  0.00  0.00     0.019 C 
HETATM   17  C   UNK N   1      20.743  17.744   2.376  0.00  0.00    -0.057 C 
HETATM   18  C   UNK N   1      22.806  18.356   3.595  0.00  0.00     0.028 C 
HETATM   19  C   UNK N   1      20.775  19.612   4.007  0.00  0.00    -0.006 C 
HETATM   20  C   UNK N   1      19.803  15.915   0.842  0.00  0.00     0.015 C 
HETATM   21  C   UNK N   1      20.742  18.606   1.338  0.00  0.00     0.059 C 
HETATM   22  C   UNK N   1      20.805  20.518   3.004  0.00  0.00     0.052 C 
HETATM   23  C   UNK N   1      21.020  20.034   1.613  0.00  0.00     0.172 C 
HETATM   24  H   UNK N   1      19.308  13.556   7.962  0.00  0.00     0.211 HD
ENDROOT
BRANCH   8  25
HETATM   25  C   UNK N   1      22.369  13.536   8.840  0.00  0.00     0.158 C 
HETATM   26  O   UNK N   1      22.007  14.086   9.868  0.00  0.00    -0.295 OA
HETATM   27  C   UNK N   1      23.556  12.629   8.880  0.00  0.00     0.094 C 
ENDBRANCH   8  25
BRANCH  10  28
HETATM   28  O   UNK N   1      20.986  18.661   6.731  0.00  0.00    -0.392 OA
HETATM   29  H   UNK N   1      21.383  19.543   6.666  0.00  0.00     0.210 HD
ENDBRANCH  10  28
TORSDOF 2
ENDMDL
MODEL 3
REMARK VINA RESULT:      -7.9      8.123     12.397
REMARK  2 active torsions:
REMARK  status: ('A' for Active; 'I' for Inactive)
REMARK    1  A    between atoms: C_12  and  O_3 
REMARK    2  A    between atoms: C_10  and  C_20 
ROOT
HETATM    1  F   UNK N   1      30.299  18.103   4.452  0.00  0.00    -0.238 F 
HETATM    2  O   UNK N   1      34.288  17.805   6.376  0.00  0.00    -0.381 OA
HETATM    3  O   UNK N   1      24.549  16.756   3.860  0.00  0.00    -0.289 OA
HETATM    4  C   UNK N   1      32.475  16.221   6.542  0.00  0.00     0.001 C 
HETATM    5  C   UNK N   1      31.583  17.383   6.984  0.00  0.00     0.005 C 
HETATM    6  C   UNK N   1      30.107  17.129   6.661  0.00  0.00     0.035 C 
HETATM    7  C   UNK N   1      29.937  16.931   5.106  0.00  0.00     0.147 C 
HETATM    8  C   UNK N   1      33.834  16.700   7.109  0.00  0.00     0.125 C 
HETATM    9  C   UNK N   1      32.366  16.054   5.021  0.00  0.00     0.048 C 
HETATM   10  C   UNK N   1      30.895  15.802   4.612  0.00  0.00     0.160 C 
HETATM   11  C   UNK N   1      31.954  17.565   8.450  0.00  0.00     0.009 C 
HETATM   12  C   UNK N   1      28.426  16.639   4.823  0.00  0.00     0.037 C 
HETATM   13  C   UNK N   1      33.445  17.185   8.516  0.00  0.00     0.047 C 
HETATM   14  C   UNK N   1      29.223  18.253   7.246  0.00  0.00     0.017 C 
HETATM   15  C   UNK N   1      28.214  18.825   6.259  0.00  0.00     0.012 C 
HETATM   16  C   UNK N   1      32.049  14.897   7.216  0.00  0.00     0.019 C 
HETATM   17  C   UNK N   1      27.560  17.757   5.412  0.00  0.00    -0.057 C 
HETATM   18  C   UNK N   1      28.027  15.330   5.521  0.00  0.00     0.028 C 
HETATM   19  C   UNK N   1      28.047  16.441   3.367  0.00  0.00    -0.006 C 
HETATM   20  C   UNK N   1      27.262  19.799   6.936  0.00  0.00     0.015 C 
HETATM   21  C   UNK N   1      26.245  17.795   5.114  0.00  0.00     0.059 C 
HETATM   22  C   UNK N   1      26.737  16.424   3.037  0.00  0.00     0.052 C 
HETATM   23  C   UNK N   1      25.745  16.917   4.033  0.00  0.00     0.172 C 
HETATM   24  H   UNK N   1      34.616  18.608   5.941  0.00  0.00     0.211 HD
ENDROOT
BRANCH   8  25
HETATM   25  C   UNK N   1      34.961  15.691   7.170  0.00  0.00     0.158 C 
HETATM   26  O   UNK N   1      35.617  15.414   6.178  0.00  0.00    -0.295 OA
HETATM   27  C   UNK N   1      35.288  15.023   8.466  0.00  0.00     0.094 C 
ENDBRANCH   8  25
BRANCH  10  28
HETATM   28  O   UNK N   1      30.829  15.662   3.225  0.00  0.00    -0.392 OA
HETATM   29  H   UNK N   1      31.323  16.199   2.586  0.00  0.00     0.210 HD
ENDBRANCH  10  28
TORSDOF 2
ENDMDL
MODEL 4
REMARK VINA RESULT:      -7.8     21.496     24.357
REMARK  2 active torsions:
REMARK  status: ('A' for Active; 'I' for Inactive)
REMARK    1  A    between atoms: C_12  and  O_3 
REMARK    2  A    between atoms: C_10  and  C_20 
ROOT
HETATM    1  F   UNK N   1      30.241  24.600  -6.177  0.00  0.00    -0.238 F 
HETATM    2  O   UNK N   1      27.130  27.766  -6.166  0.00  0.00    -0.381 OA
HETATM    3  O   UNK N   1      32.576  19.411  -4.488  0.00  0.00    -0.289 OA
HETATM    4  C   UNK N   1      27.477  26.067  -4.488  0.00  0.00     0.001 C 
HETATM    5  C   UNK N   1      27.400  25.030  -5.611  0.00  0.00     0.005 C 
HETATM    6  C   UNK N   1      28.165  23.750  -5.264  0.00  0.00     0.035 C 
HETATM    7  C   UNK N   1      29.681  24.099  -5.007  0.00  0.00     0.147 C 
HETATM    8  C   UNK N   1      26.528  27.149  -5.062  0.00  0.00     0.125 C 
HETATM    9  C   UNK N   1      28.942  26.461  -4.267  0.00  0.00     0.048 C 
HETATM   10  C   UNK N   1      29.788  25.213  -3.919  0.00  0.00     0.160 C 
HETATM   11  C   UNK N   1      25.903  24.902  -5.861  0.00  0.00     0.009 C 
HETATM   12  C   UNK N   1      30.419  22.773  -4.622  0.00  0.00     0.037 C 
HETATM   13  C   UNK N   1      25.345  26.307  -5.568  0.00  0.00     0.047 C 
HETATM   14  C   UNK N   1      27.949  22.677  -6.354  0.00  0.00     0.017 C 
HETATM   15  C   UNK N   1      29.233  22.015  -6.837  0.00  0.00     0.012 C 
HETATM   16  C   UNK N   1      26.911  25.505  -3.165  0.00  0.00     0.019 C 
HETATM   17  C   UNK N   1      30.192  21.715  -5.706  0.00  0.00    -0.057 C 
HETATM   18  C   UNK N   1      29.823  22.228  -3.315  0.00  0.00     0.028 C 
HETATM   19  C   UNK N   1      31.908  22.892  -4.356  0.00  0.00    -0.006 C 
HETATM   20  C   UNK N   1      28.944  20.854  -7.776  0.00  0.00     0.015 C 
HETATM   21  C   UNK N   1      30.897  20.566  -5.661  0.00  0.00     0.059 C 
HETATM   22  C   UNK N   1      32.638  21.759  -4.254  0.00  0.00     0.052 C 
HETATM   23  C   UNK N   1      32.037  20.480  -4.722  0.00  0.00     0.172 C 
HETATM   24  H   UNK N   1      27.476  28.182  -6.973  0.00  0.00     0.211 HD
ENDROOT
BRANCH   8  25
HETATM   25  C   UNK N   1      26.062  28.239  -4.120  0.00  0.00     0.158 C 
HETATM   26  O   UNK N   1      25.267  28.002  -3.224  0.00  0.00    -0.295 OA
HETATM   27  C   UNK N   1      26.585  29.630  -4.278  0.00  0.00     0.094 C 
ENDBRANCH   8  25
BRANCH  10  28
HETATM   28  O   UNK N   1      31.115  25.603  -3.732  0.00  0.00    -0.392 OA
HETATM   29  H   UNK N   1      31.828  25.481  -4.377  0.00  0.00     0.210 HD
ENDBRANCH  10  28
TORSDOF 2
ENDMDL
MODEL 5
REMARK VINA RESULT:      -7.5      2.785      3.805
REMARK  2 active torsions:
REMARK  status: ('A' for Active; 'I' for Inactive)
REMARK    1  A    between atoms: C_12  and  O_3 
REMARK    2  A    between atoms: C_10  and  C_20 
ROOT
HETATM    1  F   UNK N   1      34.299  12.632  12.490  0.00  0.00    -0.238 F 
HETATM    2  O   UNK N   1      32.542  15.644   9.743  0.00  0.00    -0.381 OA
HETATM    3  O   UNK N   1      38.785   9.566  14.877  0.00  0.00    -0.289 OA
HETATM    4  C   UNK N   1      34.700  14.584   9.544  0.00  0.00     0.001 C 
HETATM    5  C   UNK N   1      34.988  15.042  10.975  0.00  0.00     0.005 C 
HETATM    6  C   UNK N   1      36.010  14.139  11.673  0.00  0.00     0.035 C 
HETATM    7  C   UNK N   1      35.457  12.663  11.722  0.00  0.00     0.147 C 
HETATM    8  C   UNK N   1      33.772  15.733   9.079  0.00  0.00     0.125 C 
HETATM    9  C   UNK N   1      34.106  13.170   9.579  0.00  0.00     0.048 C 
HETATM   10  C   UNK N   1      35.080  12.195  10.281  0.00  0.00     0.160 C 
HETATM   11  C   UNK N   1      35.360  16.509  10.799  0.00  0.00     0.009 C 
HETATM   12  C   UNK N   1      36.543  11.769  12.408  0.00  0.00     0.037 C 
HETATM   13  C   UNK N   1      34.511  16.977   9.603  0.00  0.00     0.047 C 
HETATM   14  C   UNK N   1      36.381  14.712  13.059  0.00  0.00     0.017 C 
HETATM   15  C   UNK N   1      36.333  13.688  14.185  0.00  0.00     0.012 C 
HETATM   16  C   UNK N   1      35.990  14.556   8.692  0.00  0.00     0.019 C 
HETATM   17  C   UNK N   1      36.907  12.349  13.778  0.00  0.00    -0.057 C 
HETATM   18  C   UNK N   1      37.817  11.777  11.551  0.00  0.00     0.028 C 
HETATM   19  C   UNK N   1      36.189  10.302  12.575  0.00  0.00    -0.006 C 
HETATM   20  C   UNK N   1      36.874  14.263  15.486  0.00  0.00     0.015 C 
HETATM   21  C   UNK N   1      37.682  11.626  14.613  0.00  0.00     0.059 C 
HETATM   22  C   UNK N   1      36.973   9.535  13.365  0.00  0.00     0.052 C 
HETATM   23  C   UNK N   1      37.935  10.206  14.281  0.00  0.00     0.172 C 
HETATM   24  H   UNK N   1      31.697  15.664  10.219  0.00  0.00     0.211 HD
ENDROOT
BRANCH   8  25
HETATM   25  C   UNK N   1      33.491  15.848   7.595  0.00  0.00     0.158 C 
HETATM   26  O   UNK N   1      32.849  14.993   7.006  0.00  0.00    -0.295 OA
HETATM   27  C   UNK N   1      33.999  17.030   6.834  0.00  0.00     0.094 C 
ENDBRANCH   8  25
BRANCH  10  28
HETATM   28  O   UNK N   1      34.508  10.922  10.304  0.00  0.00    -0.392 OA
HETATM   29  H   UNK N   1      34.961  10.111  10.583  0.00  0.00     0.210 HD
ENDBRANCH  10  28
TORSDOF 2
ENDMDL
MODEL 6
REMARK VINA RESULT:      -7.4      2.124      3.716
REMARK  2 active torsions:
REMARK  status: ('A' for Active; 'I' for Inactive)
REMARK    1  A    between atoms: C_12  and  O_3 
REMARK    2  A    between atoms: C_10  and  C_20 
ROOT
HETATM    1  F   UNK N   1      37.767  12.356  15.015  0.00  0.00    -0.238 F 
HETATM    2  O   UNK N   1      38.261  11.107  10.784  0.00  0.00    -0.381 OA
HETATM    3  O   UNK N   1      34.620  13.375  19.943  0.00  0.00    -0.289 OA
HETATM    4  C   UNK N   1      36.216  11.796  11.864  0.00  0.00     0.001 C 
HETATM    5  C   UNK N   1      36.496  10.737  12.932  0.00  0.00     0.005 C 
HETATM    6  C   UNK N   1      35.843  11.087  14.273  0.00  0.00     0.035 C 
HETATM    7  C   UNK N   1      36.401  12.470  14.782  0.00  0.00     0.147 C 
HETATM    8  C   UNK N   1      36.867  11.113  10.636  0.00  0.00     0.125 C 
HETATM    9  C   UNK N   1      36.806  13.137  12.319  0.00  0.00     0.048 C 
HETATM   10  C   UNK N   1      36.200  13.556  13.680  0.00  0.00     0.160 C 
HETATM   11  C   UNK N   1      36.055   9.444  12.258  0.00  0.00     0.009 C 
HETATM   12  C   UNK N   1      35.685  12.807  16.133  0.00  0.00     0.037 C 
HETATM   13  C   UNK N   1      36.364   9.666  10.766  0.00  0.00     0.047 C 
HETATM   14  C   UNK N   1      36.026   9.931  15.282  0.00  0.00     0.017 C 
HETATM   15  C   UNK N   1      36.527  10.376  16.649  0.00  0.00     0.012 C 
HETATM   16  C   UNK N   1      34.698  11.977  11.635  0.00  0.00     0.019 C 
HETATM   17  C   UNK N   1      35.868  11.653  17.123  0.00  0.00    -0.057 C 
HETATM   18  C   UNK N   1      34.178  12.961  15.878  0.00  0.00     0.028 C 
HETATM   19  C   UNK N   1      36.106  14.101  16.804  0.00  0.00    -0.006 C 
HETATM   20  C   UNK N   1      36.522   9.228  17.647  0.00  0.00     0.015 C 
HETATM   21  C   UNK N   1      35.492  11.823  18.407  0.00  0.00     0.059 C 
HETATM   22  C   UNK N   1      35.705  14.328  18.075  0.00  0.00     0.052 C 
HETATM   23  C   UNK N   1      35.160  13.190  18.865  0.00  0.00     0.172 C 
HETATM   24  H   UNK N   1      39.224  11.021  10.866  0.00  0.00     0.211 HD
ENDROOT
BRANCH   8  25
HETATM   25  C   UNK N   1      36.549  11.683   9.269  0.00  0.00     0.158 C 
HETATM   26  O   UNK N   1      36.975  12.774   8.925  0.00  0.00    -0.295 OA
HETATM   27  C   UNK N   1      35.708  10.897   8.316  0.00  0.00     0.094 C 
ENDBRANCH   8  25
BRANCH  10  28
HETATM   28  O   UNK N   1      36.762  14.773  14.069  0.00  0.00    -0.392 OA
HETATM   29  H   UNK N   1      36.643  15.191  14.936  0.00  0.00     0.210 HD
ENDBRANCH  10  28
TORSDOF 2
ENDMDL
MODEL 7
REMARK VINA RESULT:      -7.4      3.629      6.611
REMARK  2 active torsions:
REMARK  status: ('A' for Active; 'I' for Inactive)
REMARK    1  A    between atoms: C_12  and  O_3 
REMARK    2  A    between atoms: C_10  and  C_20 
ROOT
HETATM    1  F   UNK N   1      35.961  15.371  10.267  0.00  0.00    -0.238 F 
HETATM    2  O   UNK N   1      34.384  17.635   6.789  0.00  0.00    -0.381 OA
HETATM    3  O   UNK N   1      37.026  10.427  13.374  0.00  0.00    -0.289 OA
HETATM    4  C   UNK N   1      33.745  15.414   7.486  0.00  0.00     0.001 C 
HETATM    5  C   UNK N   1      35.229  15.043   7.450  0.00  0.00     0.005 C 
HETATM    6  C   UNK N   1      35.554  13.885   8.398  0.00  0.00     0.035 C 
HETATM    7  C   UNK N   1      35.176  14.293   9.873  0.00  0.00     0.147 C 
HETATM    8  C   UNK N   1      33.711  16.481   6.363  0.00  0.00     0.125 C 
HETATM    9  C   UNK N   1      33.375  15.870   8.902  0.00  0.00     0.048 C 
HETATM   10  C   UNK N   1      33.685  14.752   9.925  0.00  0.00     0.160 C 
HETATM   11  C   UNK N   1      35.494  14.825   5.966  0.00  0.00     0.009 C 
HETATM   12  C   UNK N   1      35.490  13.073  10.802  0.00  0.00     0.037 C 
HETATM   13  C   UNK N   1      34.552  15.816   5.260  0.00  0.00     0.047 C 
HETATM   14  C   UNK N   1      37.026  13.446   8.231  0.00  0.00     0.017 C 
HETATM   15  C   UNK N   1      37.782  13.299   9.545  0.00  0.00     0.012 C 
HETATM   16  C   UNK N   1      32.855  14.209   7.107  0.00  0.00     0.019 C 
HETATM   17  C   UNK N   1      36.949  12.643  10.624  0.00  0.00    -0.057 C 
HETATM   18  C   UNK N   1      34.606  11.886  10.390  0.00  0.00     0.028 C 
HETATM   19  C   UNK N   1      35.214  13.274  12.281  0.00  0.00    -0.006 C 
HETATM   20  C   UNK N   1      39.163  12.700   9.331  0.00  0.00     0.015 C 
HETATM   21  C   UNK N   1      37.474  11.734  11.471  0.00  0.00     0.059 C 
HETATM   22  C   UNK N   1      35.682  12.356  13.155  0.00  0.00     0.052 C 
HETATM   23  C   UNK N   1      36.706  11.382  12.686  0.00  0.00     0.172 C 
HETATM   24  H   UNK N   1      34.890  18.432   7.011  0.00  0.00     0.211 HD
ENDROOT
BRANCH   8  25
HETATM   25  C   UNK N   1      32.355  16.903   5.840  0.00  0.00     0.158 C 
HETATM   26  O   UNK N   1      31.511  17.380   6.583  0.00  0.00    -0.295 OA
HETATM   27  C   UNK N   1      32.038  16.743   4.388  0.00  0.00     0.094 C 
ENDBRANCH   8  25
BRANCH  10  28
HETATM   28  O   UNK N   1      33.345  15.201  11.203  0.00  0.00    -0.392 OA
HETATM   29  H   UNK N   1      32.988  16.078  11.409  0.00  0.00     0.210 HD
ENDBRANCH  10  28
TORSDOF 2
ENDMDL
MODEL 8
REMARK VINA RESULT:      -7.4      1.889      3.330
REMARK  2 active torsions:
REMARK  status: ('A' for Active; 'I' for Inactive)
REMARK    1  A    between atoms: C_12  and  O_3 
REMARK    2  A    between atoms: C_10  and  C_20 
ROOT
HETATM    1  F   UNK N   1      37.861  12.281  15.012  0.00  0.00    -0.238 F 
HETATM    2  O   UNK N   1      38.759  13.586  10.865  0.00  0.00    -0.381 OA
HETATM    3  O   UNK N   1      34.814   9.256  19.109  0.00  0.00    -0.289 OA
HETATM    4  C   UNK N   1      36.686  12.653  11.676  0.00  0.00     0.001 C 
HETATM    5  C   UNK N   1      37.501  11.476  12.219  0.00  0.00     0.005 C 
HETATM    6  C   UNK N   1      36.811  10.801  13.408  0.00  0.00     0.035 C 
HETATM    7  C   UNK N   1      36.616  11.852  14.567  0.00  0.00     0.147 C 
HETATM    8  C   UNK N   1      37.547  13.024  10.442  0.00  0.00     0.125 C 
HETATM    9  C   UNK N   1      36.539  13.712  12.775  0.00  0.00     0.048 C 
HETATM   10  C   UNK N   1      35.855  13.101  14.021  0.00  0.00     0.160 C 
HETATM   11  C   UNK N   1      37.746  10.625  10.979  0.00  0.00     0.009 C 
HETATM   12  C   UNK N   1      35.878  11.134  15.746  0.00  0.00     0.037 C 
HETATM   13  C   UNK N   1      37.845  11.644   9.830  0.00  0.00     0.047 C 
HETATM   14  C   UNK N   1      37.587   9.536  13.838  0.00  0.00     0.017 C 
HETATM   15  C   UNK N   1      37.847   9.448  15.336  0.00  0.00     0.012 C 
HETATM   16  C   UNK N   1      35.276  12.203  11.231  0.00  0.00     0.019 C 
HETATM   17  C   UNK N   1      36.653   9.879  16.159  0.00  0.00    -0.057 C 
HETATM   18  C   UNK N   1      34.490  10.681  15.269  0.00  0.00     0.028 C 
HETATM   19  C   UNK N   1      35.615  11.977  16.979  0.00  0.00    -0.006 C 
HETATM   20  C   UNK N   1      38.456   8.108  15.719  0.00  0.00     0.015 C 
HETATM   21  C   UNK N   1      36.291   9.222  17.280  0.00  0.00     0.059 C 
HETATM   22  C   UNK N   1      35.202  11.359  18.108  0.00  0.00     0.052 C 
HETATM   23  C   UNK N   1      35.333   9.878  18.198  0.00  0.00     0.172 C 
HETATM   24  H   UNK N   1      39.637  13.923  11.104  0.00  0.00     0.211 HD
ENDROOT
BRANCH   8  25
HETATM   25  C   UNK N   1      36.936  13.957   9.419  0.00  0.00     0.158 C 
HETATM   26  O   UNK N   1      36.696  15.123   9.690  0.00  0.00    -0.295 OA
HETATM   27  C   UNK N   1      36.625  13.451   8.047  0.00  0.00     0.094 C 
ENDBRANCH   8  25
BRANCH  10  28
HETATM   28  O   UNK N   1      35.743  14.086  15.004  0.00  0.00    -0.392 OA
HETATM   29  H   UNK N   1      35.015  14.159  15.640  0.00  0.00     0.210 HD
ENDBRANCH  10  28
TORSDOF 2
ENDMDL
MODEL 9
REMARK VINA RESULT:      -7.4     20.204     22.286
REMARK  2 active torsions:
REMARK  status: ('A' for Active; 'I' for Inactive)
REMARK    1  A    between atoms: C_12  and  O_3 
REMARK    2  A    between atoms: C_10  and  C_20 
ROOT
HETATM    1  F   UNK N   1      31.295  19.919  -4.142  0.00  0.00    -0.238 F 
HETATM    2  O   UNK N   1      34.801  17.647  -5.641  0.00  0.00    -0.381 OA
HETATM    3  O   UNK N   1      27.999  24.810  -3.469  0.00  0.00    -0.289 OA
HETATM    4  C   UNK N   1      34.623  20.041  -5.389  0.00  0.00     0.001 C 
HETATM    5  C   UNK N   1      33.347  19.972  -6.231  0.00  0.00     0.005 C 
HETATM    6  C   UNK N   1      32.395  21.132  -5.926  0.00  0.00     0.035 C 
HETATM    7  C   UNK N   1      31.992  21.094  -4.402  0.00  0.00     0.147 C 
HETATM    8  C   UNK N   1      35.410  18.856  -6.003  0.00  0.00     0.125 C 
HETATM    9  C   UNK N   1      34.251  19.944  -3.904  0.00  0.00     0.048 C 
HETATM   10  C   UNK N   1      33.278  21.083  -3.518  0.00  0.00     0.160 C 
HETATM   11  C   UNK N   1      33.878  19.861  -7.653  0.00  0.00     0.009 C 
HETATM   12  C   UNK N   1      31.050  22.313  -4.125  0.00  0.00     0.037 C 
HETATM   13  C   UNK N   1      35.192  19.070  -7.511  0.00  0.00     0.047 C 
HETATM   14  C   UNK N   1      31.188  21.110  -6.890  0.00  0.00     0.017 C 
HETATM   15  C   UNK N   1      29.839  21.254  -6.198  0.00  0.00     0.012 C 
HETATM   16  C   UNK N   1      35.380  21.367  -5.623  0.00  0.00     0.019 C 
HETATM   17  C   UNK N   1      29.861  22.284  -5.090  0.00  0.00    -0.057 C 
HETATM   18  C   UNK N   1      31.823  23.615  -4.385  0.00  0.00     0.028 C 
HETATM   19  C   UNK N   1      30.527  22.441  -2.706  0.00  0.00    -0.006 C 
HETATM   20  C   UNK N   1      28.708  21.400  -7.205  0.00  0.00     0.015 C 
HETATM   21  C   UNK N   1      28.835  23.136  -4.894  0.00  0.00     0.059 C 
HETATM   22  C   UNK N   1      29.532  23.323  -2.463  0.00  0.00     0.052 C 
HETATM   23  C   UNK N   1      28.777  23.882  -3.617  0.00  0.00     0.172 C 
HETATM   24  H   UNK N   1      34.384  16.788  -5.470  0.00  0.00     0.211 HD
ENDROOT
BRANCH   8  25
HETATM   25  C   UNK N   1      36.883  18.750  -5.672  0.00  0.00     0.158 C 
HETATM   26  O   UNK N   1      37.261  18.303  -4.600  0.00  0.00    -0.295 OA
HETATM   27  C   UNK N   1      37.902  19.190  -6.675  0.00  0.00     0.094 C 
ENDBRANCH   8  25
BRANCH  10  28
HETATM   28  O   UNK N   1      32.954  20.963  -2.166  0.00  0.00    -0.392 OA
HETATM   29  H   UNK N   1      33.558  20.653  -1.473  0.00  0.00     0.210 HD
ENDBRANCH  10  28
TORSDOF 2
ENDMDL
