MODEL 1
REMARK VINA RESULT:      -7.0      0.000      0.000
REMARK  1 active torsions:
REMARK  status: ('A' for Active; 'I' for Inactive)
REMARK    1  A    between atoms: O_3  and  C_20 
ROOT
HETATM    1  O   UNK N   1      31.974  16.788   7.734  0.00  0.00    -0.334 OA
HETATM    2  O   UNK N   1      34.496  17.484   6.562  0.00  0.00    -0.295 OA
HETATM    3  N   UNK N   1      29.309  14.891   3.734  0.00  0.00     0.089 N 
HETATM    4  C   UNK N   1      31.216  16.044   5.639  0.00  0.00     0.031 C 
HETATM    5  C   UNK N   1      31.289  16.384   4.153  0.00  0.00     0.036 C 
HETATM    6  C   UNK N   1      29.816  16.275   3.605  0.00  0.00     0.232 C 
HETATM    7  C   UNK N   1      32.480  16.250   6.541  0.00  0.00     0.212 C 
HETATM    8  C   UNK N   1      30.693  14.603   5.798  0.00  0.00     0.048 C 
HETATM    9  C   UNK N   1      30.284  16.956   6.318  0.00  0.00    -0.003 A 
HETATM   10  C   UNK N   1      31.888  17.777   3.986  0.00  0.00     0.015 C 
HETATM   11  C   UNK N   1      28.805  17.229   4.327  0.00  0.00     0.075 C 
HETATM   12  C   UNK N   1      29.334  14.393   5.116  0.00  0.00     0.273 C 
HETATM   13  C   UNK N   1      29.107  17.457   5.792  0.00  0.00    -0.046 A 
HETATM   14  C   UNK N   1      33.305  17.844   4.564  0.00  0.00     0.081 C 
HETATM   15  C   UNK N   1      33.480  17.224   5.937  0.00  0.00     0.157 C 
HETATM   16  C   UNK N   1      30.740  17.268   7.542  0.00  0.00     0.110 A 
HETATM   17  C   UNK N   1      30.028  13.963   2.867  0.00  0.00     0.310 C 
HETATM   18  C   UNK N   1      28.310  18.268   6.619  0.00  0.00     0.011 A 
HETATM   19  C   UNK N   1      29.972  18.051   8.408  0.00  0.00     0.099 A 
HETATM   20  C   UNK N   1      28.730  18.537   7.945  0.00  0.00     0.040 A 
ENDROOT
BRANCH  19  21
HETATM   21  O   UNK N   1      30.410  18.349   9.642  0.00  0.00    -0.358 OA
HETATM   22  H   UNK N   1      30.853  17.713  10.170  0.00  0.00     0.217 HD
ENDBRANCH  19  21
TORSDOF 1
ENDMDL
MODEL 2
REMARK VINA RESULT:      -6.8     13.358     14.622
REMARK  1 active torsions:
REMARK  status: ('A' for Active; 'I' for Inactive)
REMARK    1  A    between atoms: O_3  and  C_20 
ROOT
HETATM    1  O   UNK N   1      26.127  25.136  -3.354  0.00  0.00    -0.334 OA
HETATM    2  O   UNK N   1      27.957  23.478  -1.898  0.00  0.00    -0.295 OA
HETATM    3  N   UNK N   1      27.214  24.029  -8.283  0.00  0.00     0.089 N 
HETATM    4  C   UNK N   1      26.993  24.304  -5.372  0.00  0.00     0.031 C 
HETATM    5  C   UNK N   1      28.307  23.878  -6.022  0.00  0.00     0.036 C 
HETATM    6  C   UNK N   1      28.325  24.543  -7.450  0.00  0.00     0.232 C 
HETATM    7  C   UNK N   1      26.740  23.980  -3.860  0.00  0.00     0.212 C 
HETATM    8  C   UNK N   1      25.820  23.777  -6.221  0.00  0.00     0.048 C 
HETATM    9  C   UNK N   1      26.909  25.771  -5.321  0.00  0.00    -0.003 A 
HETATM   10  C   UNK N   1      29.470  24.322  -5.141  0.00  0.00     0.015 C 
HETATM   11  C   UNK N   1      28.222  26.106  -7.417  0.00  0.00     0.075 C 
HETATM   12  C   UNK N   1      25.892  24.248  -7.680  0.00  0.00     0.273 C 
HETATM   13  C   UNK N   1      27.376  26.647  -6.286  0.00  0.00    -0.046 A 
HETATM   14  C   UNK N   1      29.391  23.679  -3.753  0.00  0.00     0.081 C 
HETATM   15  C   UNK N   1      28.026  23.717  -3.093  0.00  0.00     0.157 C 
HETATM   16  C   UNK N   1      26.325  26.169  -4.180  0.00  0.00     0.110 A 
HETATM   17  C   UNK N   1      27.379  22.614  -8.601  0.00  0.00     0.310 C 
HETATM   18  C   UNK N   1      27.147  28.020  -6.092  0.00  0.00     0.011 A 
HETATM   19  C   UNK N   1      26.056  27.522  -3.954  0.00  0.00     0.099 A 
HETATM   20  C   UNK N   1      26.453  28.455  -4.936  0.00  0.00     0.040 A 
ENDROOT
BRANCH  19  21
HETATM   21  O   UNK N   1      25.451  27.926  -2.825  0.00  0.00    -0.358 OA
HETATM   22  H   UNK N   1      25.068  27.312  -2.229  0.00  0.00     0.217 HD
ENDBRANCH  19  21
TORSDOF 1
ENDMDL
MODEL 3
REMARK VINA RESULT:      -6.7      2.535      5.012
REMARK  1 active torsions:
REMARK  status: ('A' for Active; 'I' for Inactive)
REMARK    1  A    between atoms: O_3  and  C_20 
ROOT
HETATM    1  O   UNK N   1      29.736  16.473   6.098  0.00  0.00    -0.334 OA
HETATM    2  O   UNK N   1      28.159  17.875   8.039  0.00  0.00    -0.295 OA
HETATM    3  N   UNK N   1      34.176  15.614   8.599  0.00  0.00     0.089 N 
HETATM    4  C   UNK N   1      31.505  16.350   7.638  0.00  0.00     0.031 C 
HETATM    5  C   UNK N   1      32.198  17.163   8.728  0.00  0.00     0.036 C 
HETATM    6  C   UNK N   1      33.744  17.023   8.464  0.00  0.00     0.232 C 
HETATM    7  C   UNK N   1      29.948  16.433   7.484  0.00  0.00     0.212 C 
HETATM    8  C   UNK N   1      31.938  14.875   7.761  0.00  0.00     0.048 C 
HETATM    9  C   UNK N   1      31.905  16.843   6.312  0.00  0.00    -0.003 A 
HETATM   10  C   UNK N   1      31.708  18.605   8.667  0.00  0.00     0.015 C 
HETATM   11  C   UNK N   1      34.188  17.531   7.049  0.00  0.00     0.075 C 
HETATM   12  C   UNK N   1      33.461  14.702   7.695  0.00  0.00     0.273 C 
HETATM   13  C   UNK N   1      33.159  17.311   5.962  0.00  0.00    -0.046 A 
HETATM   14  C   UNK N   1      30.195  18.687   8.895  0.00  0.00     0.081 C 
HETATM   15  C   UNK N   1      29.363  17.687   8.117  0.00  0.00     0.157 C 
HETATM   16  C   UNK N   1      30.866  16.803   5.463  0.00  0.00     0.110 A 
HETATM   17  C   UNK N   1      34.056  15.136   9.972  0.00  0.00     0.310 C 
HETATM   18  C   UNK N   1      33.372  17.682   4.623  0.00  0.00     0.011 A 
HETATM   19  C   UNK N   1      31.036  17.140   4.117  0.00  0.00     0.099 A 
HETATM   20  C   UNK N   1      32.313  17.562   3.689  0.00  0.00     0.040 A 
ENDROOT
BRANCH  19  21
HETATM   21  O   UNK N   1      30.007  17.079   3.255  0.00  0.00    -0.358 OA
HETATM   22  H   UNK N   1      29.772  17.815   2.723  0.00  0.00     0.217 HD
ENDBRANCH  19  21
TORSDOF 1
ENDMDL
MODEL 4
REMARK VINA RESULT:      -6.7     12.127     13.776
REMARK  1 active torsions:
REMARK  status: ('A' for Active; 'I' for Inactive)
REMARK    1  A    between atoms: O_3  and  C_20 
ROOT
HETATM    1  O   UNK N   1      29.073  24.836  -3.325  0.00  0.00    -0.334 OA
HETATM    2  O   UNK N   1      26.365  25.736  -3.058  0.00  0.00    -0.295 OA
HETATM    3  N   UNK N   1      29.462  23.784  -8.370  0.00  0.00     0.089 N 
HETATM    4  C   UNK N   1      28.729  24.512  -5.626  0.00  0.00     0.031 C 
HETATM    5  C   UNK N   1      27.673  24.035  -6.620  0.00  0.00     0.036 C 
HETATM    6  C   UNK N   1      28.414  23.063  -7.613  0.00  0.00     0.232 C 
HETATM    7  C   UNK N   1      28.289  25.343  -4.373  0.00  0.00     0.212 C 
HETATM    8  C   UNK N   1      29.831  25.270  -6.392  0.00  0.00     0.048 C 
HETATM    9  C   UNK N   1      29.340  23.360  -4.949  0.00  0.00    -0.003 A 
HETATM   10  C   UNK N   1      26.536  23.361  -5.859  0.00  0.00     0.015 C 
HETATM   11  C   UNK N   1      29.084  21.835  -6.908  0.00  0.00     0.075 C 
HETATM   12  C   UNK N   1      30.463  24.422  -7.503  0.00  0.00     0.273 C 
HETATM   13  C   UNK N   1      29.614  22.130  -5.522  0.00  0.00    -0.046 A 
HETATM   14  C   UNK N   1      25.869  24.334  -4.881  0.00  0.00     0.081 C 
HETATM   15  C   UNK N   1      26.818  25.158  -4.032  0.00  0.00     0.157 C 
HETATM   16  C   UNK N   1      29.588  23.648  -3.661  0.00  0.00     0.110 A 
HETATM   17  C   UNK N   1      28.896  24.777  -9.277  0.00  0.00     0.310 C 
HETATM   18  C   UNK N   1      30.263  21.167  -4.731  0.00  0.00     0.011 A 
HETATM   19  C   UNK N   1      30.252  22.730  -2.843  0.00  0.00     0.099 A 
HETATM   20  C   UNK N   1      30.614  21.482  -3.395  0.00  0.00     0.040 A 
ENDROOT
BRANCH  19  21
HETATM   21  O   UNK N   1      30.525  23.020  -1.560  0.00  0.00    -0.358 OA
HETATM   22  H   UNK N   1      31.407  23.115  -1.258  0.00  0.00     0.217 HD
ENDBRANCH  19  21
TORSDOF 1
ENDMDL
MODEL 5
REMARK VINA RESULT:      -6.7      1.853      4.369
REMARK  1 active torsions:
REMARK  status: ('A' for Active; 'I' for Inactive)
REMARK    1  A    between atoms: O_3  and  C_20 
ROOT
HETATM    1  O   UNK N   1      34.679  17.141   6.055  0.00  0.00    -0.334 OA
HETATM    2  O   UNK N   1      34.221  18.707   8.412  0.00  0.00    -0.295 OA
HETATM    3  N   UNK N   1      29.902  16.252   4.295  0.00  0.00     0.089 N 
HETATM    4  C   UNK N   1      32.361  17.023   5.694  0.00  0.00     0.031 C 
HETATM    5  C   UNK N   1      31.041  16.885   6.447  0.00  0.00     0.036 C 
HETATM    6  C   UNK N   1      30.205  15.798   5.670  0.00  0.00     0.232 C 
HETATM    7  C   UNK N   1      33.516  17.883   6.312  0.00  0.00     0.212 C 
HETATM    8  C   UNK N   1      32.071  17.499   4.257  0.00  0.00     0.048 C 
HETATM    9  C   UNK N   1      33.040  15.721   5.625  0.00  0.00    -0.003 A 
HETATM   10  C   UNK N   1      31.327  16.498   7.894  0.00  0.00     0.015 C 
HETATM   11  C   UNK N   1      30.920  14.407   5.574  0.00  0.00     0.075 C 
HETATM   12  C   UNK N   1      31.106  16.566   3.513  0.00  0.00     0.273 C 
HETATM   13  C   UNK N   1      32.426  14.490   5.474  0.00  0.00    -0.046 A 
HETATM   14  C   UNK N   1      32.170  17.567   8.597  0.00  0.00     0.081 C 
HETATM   15  C   UNK N   1      33.366  18.074   7.814  0.00  0.00     0.157 C 
HETATM   16  C   UNK N   1      34.368  15.876   5.752  0.00  0.00     0.110 A 
HETATM   17  C   UNK N   1      28.999  17.398   4.284  0.00  0.00     0.310 C 
HETATM   18  C   UNK N   1      33.249  13.355   5.363  0.00  0.00     0.011 A 
HETATM   19  C   UNK N   1      35.226  14.780   5.625  0.00  0.00     0.099 A 
HETATM   20  C   UNK N   1      34.657  13.507   5.405  0.00  0.00     0.040 A 
ENDROOT
BRANCH  19  21
HETATM   21  O   UNK N   1      36.557  14.930   5.727  0.00  0.00    -0.358 OA
HETATM   22  H   UNK N   1      37.091  15.082   4.972  0.00  0.00     0.217 HD
ENDBRANCH  19  21
TORSDOF 1
ENDMDL
MODEL 6
REMARK VINA RESULT:      -6.6     13.902     15.516
REMARK  1 active torsions:
REMARK  status: ('A' for Active; 'I' for Inactive)
REMARK    1  A    between atoms: O_3  and  C_20 
ROOT
HETATM    1  O   UNK N   1      26.869  24.843  -4.168  0.00  0.00    -0.334 OA
HETATM    2  O   UNK N   1      25.273  24.639  -6.540  0.00  0.00    -0.295 OA
HETATM    3  N   UNK N   1      27.640  29.932  -3.711  0.00  0.00     0.089 N 
HETATM    4  C   UNK N   1      26.927  27.178  -4.417  0.00  0.00     0.031 C 
HETATM    5  C   UNK N   1      27.023  28.262  -5.487  0.00  0.00     0.036 C 
HETATM    6  C   UNK N   1      28.092  29.296  -4.968  0.00  0.00     0.232 C 
HETATM    7  C   UNK N   1      26.094  25.882  -4.705  0.00  0.00     0.212 C 
HETATM    8  C   UNK N   1      26.454  27.817  -3.097  0.00  0.00     0.048 C 
HETATM    9  C   UNK N   1      28.247  26.572  -4.196  0.00  0.00    -0.003 A 
HETATM   10  C   UNK N   1      27.405  27.623  -6.818  0.00  0.00     0.015 C 
HETATM   11  C   UNK N   1      29.503  28.665  -4.712  0.00  0.00     0.075 C 
HETATM   12  C   UNK N   1      27.366  28.963  -2.640  0.00  0.00     0.273 C 
HETATM   13  C   UNK N   1      29.462  27.233  -4.226  0.00  0.00    -0.046 A 
HETATM   14  C   UNK N   1      26.355  26.600  -7.264  0.00  0.00     0.081 C 
HETATM   15  C   UNK N   1      25.887  25.635  -6.191  0.00  0.00     0.157 C 
HETATM   16  C   UNK N   1      28.128  25.253  -3.974  0.00  0.00     0.110 A 
HETATM   17  C   UNK N   1      26.470  30.779  -3.916  0.00  0.00     0.310 C 
HETATM   18  C   UNK N   1      30.620  26.495  -3.924  0.00  0.00     0.011 A 
HETATM   19  C   UNK N   1      29.248  24.483  -3.647  0.00  0.00     0.099 A 
HETATM   20  C   UNK N   1      30.507  25.121  -3.600  0.00  0.00     0.040 A 
ENDROOT
BRANCH  19  21
HETATM   21  O   UNK N   1      29.134  23.168  -3.401  0.00  0.00    -0.358 OA
HETATM   22  H   UNK N   1      28.297  22.746  -3.375  0.00  0.00     0.217 HD
ENDBRANCH  19  21
TORSDOF 1
ENDMDL
MODEL 7
REMARK VINA RESULT:      -6.6      1.696      2.207
REMARK  1 active torsions:
REMARK  status: ('A' for Active; 'I' for Inactive)
REMARK    1  A    between atoms: O_3  and  C_20 
ROOT
HETATM    1  O   UNK N   1      31.884  16.185   9.425  0.00  0.00    -0.334 OA
HETATM    2  O   UNK N   1      34.559  17.126   9.842  0.00  0.00    -0.295 OA
HETATM    3  N   UNK N   1      31.819  15.043   4.385  0.00  0.00     0.089 N 
HETATM    4  C   UNK N   1      32.369  15.841   7.152  0.00  0.00     0.031 C 
HETATM    5  C   UNK N   1      33.142  16.458   5.990  0.00  0.00     0.036 C 
HETATM    6  C   UNK N   1      32.167  16.433   4.753  0.00  0.00     0.232 C 
HETATM    7  C   UNK N   1      32.977  15.890   8.596  0.00  0.00     0.212 C 
HETATM    8  C   UNK N   1      31.998  14.389   6.793  0.00  0.00     0.048 C 
HETATM    9  C   UNK N   1      31.129  16.595   7.387  0.00  0.00    -0.003 A 
HETATM   10  C   UNK N   1      33.588  17.865   6.373  0.00  0.00     0.015 C 
HETATM   11  C   UNK N   1      30.833  17.220   4.990  0.00  0.00     0.075 C 
HETATM   12  C   UNK N   1      31.199  14.293   5.487  0.00  0.00     0.273 C 
HETATM   13  C   UNK N   1      30.330  17.170   6.416  0.00  0.00    -0.046 A 
HETATM   14  C   UNK N   1      34.505  17.841   7.600  0.00  0.00     0.081 C 
HETATM   15  C   UNK N   1      34.032  16.975   8.752  0.00  0.00     0.157 C 
HETATM   16  C   UNK N   1      30.870  16.675   8.703  0.00  0.00     0.110 A 
HETATM   17  C   UNK N   1      32.973  14.306   3.880  0.00  0.00     0.310 C 
HETATM   18  C   UNK N   1      29.142  17.798   6.829  0.00  0.00     0.011 A 
HETATM   19  C   UNK N   1      29.691  17.270   9.159  0.00  0.00     0.099 A 
HETATM   20  C   UNK N   1      28.805  17.817   8.205  0.00  0.00     0.040 A 
ENDROOT
BRANCH  19  21
HETATM   21  O   UNK N   1      29.413  17.334  10.472  0.00  0.00    -0.358 OA
HETATM   22  H   UNK N   1      30.081  17.512  11.104  0.00  0.00     0.217 HD
ENDBRANCH  19  21
TORSDOF 1
ENDMDL
MODEL 8
REMARK VINA RESULT:      -6.5      2.155      3.539
REMARK  1 active torsions:
REMARK  status: ('A' for Active; 'I' for Inactive)
REMARK    1  A    between atoms: O_3  and  C_20 
ROOT
HETATM    1  O   UNK N   1      27.933  18.928   7.908  0.00  0.00    -0.334 OA
HETATM    2  O   UNK N   1      30.424  18.358   9.207  0.00  0.00    -0.295 OA
HETATM    3  N   UNK N   1      27.472  15.060   4.513  0.00  0.00     0.089 N 
HETATM    4  C   UNK N   1      28.203  17.017   6.570  0.00  0.00     0.031 C 
HETATM    5  C   UNK N   1      29.274  16.219   5.831  0.00  0.00     0.036 C 
HETATM    6  C   UNK N   1      28.682  15.906   4.406  0.00  0.00     0.232 C 
HETATM    7  C   UNK N   1      28.542  17.665   7.955  0.00  0.00     0.212 C 
HETATM    8  C   UNK N   1      26.933  16.154   6.697  0.00  0.00     0.048 C 
HETATM    9  C   UNK N   1      27.868  18.231   5.811  0.00  0.00    -0.003 A 
HETATM   10  C   UNK N   1      30.562  17.034   5.779  0.00  0.00     0.015 C 
HETATM   11  C   UNK N   1      28.305  17.188   3.587  0.00  0.00     0.075 C 
HETATM   12  C   UNK N   1      26.417  15.665   5.337  0.00  0.00     0.273 C 
HETATM   13  C   UNK N   1      27.808  18.338   4.433  0.00  0.00    -0.046 A 
HETATM   14  C   UNK N   1      31.080  17.343   7.187  0.00  0.00     0.081 C 
HETATM   15  C   UNK N   1      30.038  17.839   8.171  0.00  0.00     0.157 C 
HETATM   16  C   UNK N   1      27.642  19.259   6.645  0.00  0.00     0.110 A 
HETATM   17  C   UNK N   1      27.781  13.726   5.015  0.00  0.00     0.310 C 
HETATM   18  C   UNK N   1      27.405  19.570   3.887  0.00  0.00     0.011 A 
HETATM   19  C   UNK N   1      27.217  20.495   6.150  0.00  0.00     0.099 A 
HETATM   20  C   UNK N   1      27.075  20.642   4.753  0.00  0.00     0.040 A 
ENDROOT
BRANCH  19  21
HETATM   21  O   UNK N   1      26.966  21.521   6.979  0.00  0.00    -0.358 OA
HETATM   22  H   UNK N   1      26.105  21.883   7.061  0.00  0.00     0.217 HD
ENDBRANCH  19  21
TORSDOF 1
ENDMDL
MODEL 9
REMARK VINA RESULT:      -6.4      8.026      9.499
REMARK  1 active torsions:
REMARK  status: ('A' for Active; 'I' for Inactive)
REMARK    1  A    between atoms: O_3  and  C_20 
ROOT
HETATM    1  O   UNK N   1      21.116  12.648   9.564  0.00  0.00    -0.334 OA
HETATM    2  O   UNK N   1      22.811  11.761  11.699  0.00  0.00    -0.295 OA
HETATM    3  N   UNK N   1      24.203  12.378   5.429  0.00  0.00     0.089 N 
HETATM    4  C   UNK N   1      22.886  12.358   8.049  0.00  0.00     0.031 C 
HETATM    5  C   UNK N   1      24.399  12.529   7.932  0.00  0.00     0.036 C 
HETATM    6  C   UNK N   1      24.654  13.235   6.548  0.00  0.00     0.232 C 
HETATM    7  C   UNK N   1      22.267  11.864   9.401  0.00  0.00     0.212 C 
HETATM    8  C   UNK N   1      22.393  11.464   6.894  0.00  0.00     0.048 C 
HETATM    9  C   UNK N   1      22.223  13.665   7.943  0.00  0.00    -0.003 A 
HETATM   10  C   UNK N   1      24.905  13.340   9.121  0.00  0.00     0.015 C 
HETATM   11  C   UNK N   1      23.943  14.625   6.411  0.00  0.00     0.075 C 
HETATM   12  C   UNK N   1      22.781  12.017   5.516  0.00  0.00     0.273 C 
HETATM   13  C   UNK N   1      22.615  14.714   7.129  0.00  0.00    -0.046 A 
HETATM   14  C   UNK N   1      24.603  12.630  10.445  0.00  0.00     0.081 C 
HETATM   15  C   UNK N   1      23.196  12.084  10.586  0.00  0.00     0.157 C 
HETATM   16  C   UNK N   1      21.169  13.726   8.774  0.00  0.00     0.110 A 
HETATM   17  C   UNK N   1      25.009  11.168   5.309  0.00  0.00     0.310 C 
HETATM   18  C   UNK N   1      21.813  15.869   7.115  0.00  0.00     0.011 A 
HETATM   19  C   UNK N   1      20.331  14.844   8.777  0.00  0.00     0.099 A 
HETATM   20  C   UNK N   1      20.647  15.919   7.918  0.00  0.00     0.040 A 
ENDROOT
BRANCH  19  21
HETATM   21  O   UNK N   1      19.262  14.904   9.588  0.00  0.00    -0.358 OA
HETATM   22  H   UNK N   1      19.242  14.443  10.404  0.00  0.00     0.217 HD
ENDBRANCH  19  21
TORSDOF 1
ENDMDL
