MODEL 1
REMARK VINA RESULT:      -7.3      0.000      0.000
REMARK  5 active torsions:
REMARK  status: ('A' for Active; 'I' for Inactive)
REMARK    1  A    between atoms: O_2  and  C_16 
REMARK    2  A    between atoms: O_4  and  C_19 
REMARK       I    between atoms: N_6  and  C_15 
REMARK    3  A    between atoms: C_7  and  C_11 
REMARK    4  A    between atoms: C_11  and  C_19 
REMARK    5  A    between atoms: C_15  and  C_18 
ROOT
HETATM    1  O   UNK N   1      26.889  21.754  -7.549  0.00  0.00    -0.267 OA
HETATM    2  N   UNK N   1      28.562  22.463  -6.201  0.00  0.00    -0.281 N 
HETATM    3  C   UNK N   1      29.790  23.397  -4.535  0.00  0.00    -0.013 A 
HETATM    4  C   UNK N   1      28.549  23.979  -4.530  0.00  0.00     0.003 A 
HETATM    5  C   UNK N   1      27.819  23.396  -5.536  0.00  0.00     0.053 A 
HETATM    6  C   UNK N   1      29.781  22.463  -5.560  0.00  0.00     0.024 A 
HETATM    7  C   UNK N   1      28.021  24.965  -3.701  0.00  0.00     0.051 A 
HETATM    8  C   UNK N   1      26.493  23.784  -5.772  0.00  0.00     0.034 A 
HETATM    9  C   UNK N   1      30.947  21.565  -5.792  0.00  0.00     0.069 C 
HETATM   10  C   UNK N   1      28.080  21.691  -7.269  0.00  0.00     0.263 C 
HETATM   11  C   UNK N   1      26.693  25.369  -3.905  0.00  0.00     0.069 A 
HETATM   12  C   UNK N   1      25.931  24.775  -4.946  0.00  0.00     0.039 A 
ENDROOT
BRANCH  10  13
HETATM   13  C   UNK N   1      28.910  20.771  -8.112  0.00  0.00     0.033 A 
HETATM   14  C   UNK N   1      28.996  19.413  -7.759  0.00  0.00     0.018 A 
HETATM   15  C   UNK N   1      29.756  18.522  -8.525  0.00  0.00     0.025 A 
HETATM   16  C   UNK N   1      30.412  18.972  -9.672  0.00  0.00     0.034 A 
HETATM   17 Cl   UNK N   1      31.397  17.874 -10.615  0.00  0.00    -0.084 Cl
HETATM   18  C   UNK N   1      30.288  20.304 -10.065  0.00  0.00     0.025 A 
HETATM   19  C   UNK N   1      29.532  21.188  -9.295  0.00  0.00     0.018 A 
ENDBRANCH  10  13
BRANCH   3  20
HETATM   20  C   UNK N   1      30.946  23.688  -3.621  0.00  0.00     0.151 C 
BRANCH  20  21
HETATM   21  C   UNK N   1      30.956  22.821  -2.402  0.00  0.00     0.143 C 
HETATM   22  O   UNK N   1      30.218  23.065  -1.463  0.00  0.00    -0.650 OA
BRANCH  21  23
HETATM   23  O   UNK N   1      31.820  21.792  -2.323  0.00  0.00    -0.776 OA
HETATM   24  H   UNK N   1      31.705  20.868  -2.222  0.00  0.00     0.167 HD
ENDBRANCH  21  23
ENDBRANCH  20  21
ENDBRANCH   3  20
BRANCH  11  25
HETATM   25  O   UNK N   1      26.169  26.317  -3.092  0.00  0.00    -0.356 OA
HETATM   26  C   UNK N   1      25.864  27.589  -3.516  0.00  0.00     0.210 C 
ENDBRANCH  11  25
TORSDOF 5
ENDMDL
MODEL 2
REMARK VINA RESULT:      -7.2      3.573      6.879
REMARK  5 active torsions:
REMARK  status: ('A' for Active; 'I' for Inactive)
REMARK    1  A    between atoms: O_2  and  C_16 
REMARK    2  A    between atoms: O_4  and  C_19 
REMARK       I    between atoms: N_6  and  C_15 
REMARK    3  A    between atoms: C_7  and  C_11 
REMARK    4  A    between atoms: C_11  and  C_19 
REMARK    5  A    between atoms: C_15  and  C_18 
ROOT
HETATM    1  O   UNK N   1      26.791  25.117  -6.985  0.00  0.00    -0.267 OA
HETATM    2  N   UNK N   1      28.499  24.578  -5.603  0.00  0.00    -0.281 N 
HETATM    3  C   UNK N   1      30.305  23.614  -4.620  0.00  0.00    -0.013 A 
HETATM    4  C   UNK N   1      29.773  22.718  -5.511  0.00  0.00     0.003 A 
HETATM    5  C   UNK N   1      28.690  23.321  -6.101  0.00  0.00     0.053 A 
HETATM    6  C   UNK N   1      29.518  24.754  -4.693  0.00  0.00     0.024 A 
HETATM    7  C   UNK N   1      30.181  21.429  -5.842  0.00  0.00     0.051 A 
HETATM    8  C   UNK N   1      27.940  22.645  -7.072  0.00  0.00     0.034 A 
HETATM    9  C   UNK N   1      29.869  25.981  -3.925  0.00  0.00     0.069 C 
HETATM   10  C   UNK N   1      27.479  25.443  -6.026  0.00  0.00     0.263 C 
HETATM   11  C   UNK N   1      29.457  20.729  -6.819  0.00  0.00     0.069 A 
HETATM   12  C   UNK N   1      28.333  21.342  -7.432  0.00  0.00     0.039 A 
ENDROOT
BRANCH  10  13
HETATM   13  C   UNK N   1      27.152  26.764  -5.397  0.00  0.00     0.033 A 
HETATM   14  C   UNK N   1      27.648  27.941  -5.987  0.00  0.00     0.018 A 
HETATM   15  C   UNK N   1      27.359  29.194  -5.433  0.00  0.00     0.025 A 
HETATM   16  C   UNK N   1      26.545  29.286  -4.302  0.00  0.00     0.034 A 
HETATM   17 Cl   UNK N   1      26.211  30.845  -3.579  0.00  0.00    -0.084 Cl
HETATM   18  C   UNK N   1      26.002  28.131  -3.743  0.00  0.00     0.025 A 
HETATM   19  C   UNK N   1      26.295  26.885  -4.298  0.00  0.00     0.018 A 
ENDBRANCH  10  13
BRANCH   3  20
HETATM   20  C   UNK N   1      31.504  23.430  -3.734  0.00  0.00     0.151 C 
BRANCH  20  21
HETATM   21  C   UNK N   1      31.204  22.625  -2.509  0.00  0.00     0.143 C 
HETATM   22  O   UNK N   1      30.440  23.052  -1.660  0.00  0.00    -0.650 OA
BRANCH  21  23
HETATM   23  O   UNK N   1      31.819  21.443  -2.322  0.00  0.00    -0.776 OA
HETATM   24  H   UNK N   1      32.067  20.967  -1.554  0.00  0.00     0.167 HD
ENDBRANCH  21  23
ENDBRANCH  20  21
ENDBRANCH   3  20
BRANCH  11  25
HETATM   25  O   UNK N   1      29.859  19.481  -7.156  0.00  0.00    -0.356 OA
HETATM   26  C   UNK N   1      29.794  18.988  -8.439  0.00  0.00     0.210 C 
ENDBRANCH  11  25
TORSDOF 5
ENDMDL
MODEL 3
REMARK VINA RESULT:      -7.0     11.393     14.356
REMARK  5 active torsions:
REMARK  status: ('A' for Active; 'I' for Inactive)
REMARK    1  A    between atoms: O_2  and  C_16 
REMARK    2  A    between atoms: O_4  and  C_19 
REMARK       I    between atoms: N_6  and  C_15 
REMARK    3  A    between atoms: C_7  and  C_11 
REMARK    4  A    between atoms: C_11  and  C_19 
REMARK    5  A    between atoms: C_15  and  C_18 
ROOT
HETATM    1  O   UNK N   1      29.474  17.324   3.544  0.00  0.00    -0.267 OA
HETATM    2  N   UNK N   1      29.343  17.627   5.783  0.00  0.00    -0.281 N 
HETATM    3  C   UNK N   1      29.779  17.758   8.007  0.00  0.00    -0.013 A 
HETATM    4  C   UNK N   1      30.734  16.962   7.430  0.00  0.00     0.003 A 
HETATM    5  C   UNK N   1      30.460  16.902   6.087  0.00  0.00     0.053 A 
HETATM    6  C   UNK N   1      28.938  18.166   6.983  0.00  0.00     0.024 A 
HETATM    7  C   UNK N   1      31.821  16.305   8.000  0.00  0.00     0.051 A 
HETATM    8  C   UNK N   1      31.278  16.159   5.225  0.00  0.00     0.034 A 
HETATM    9  C   UNK N   1      27.833  19.134   7.235  0.00  0.00     0.069 C 
HETATM   10  C   UNK N   1      28.827  17.766   4.485  0.00  0.00     0.263 C 
HETATM   11  C   UNK N   1      32.666  15.561   7.162  0.00  0.00     0.069 A 
HETATM   12  C   UNK N   1      32.388  15.488   5.772  0.00  0.00     0.039 A 
ENDROOT
BRANCH  10  13
HETATM   13  C   UNK N   1      27.526  18.427   4.141  0.00  0.00     0.033 A 
HETATM   14  C   UNK N   1      27.523  19.795   3.811  0.00  0.00     0.018 A 
HETATM   15  C   UNK N   1      26.330  20.446   3.478  0.00  0.00     0.025 A 
HETATM   16  C   UNK N   1      25.131  19.730   3.440  0.00  0.00     0.034 A 
HETATM   17 Cl   UNK N   1      23.628  20.544   3.063  0.00  0.00    -0.084 Cl
HETATM   18  C   UNK N   1      25.131  18.363   3.709  0.00  0.00     0.025 A 
HETATM   19  C   UNK N   1      26.323  17.720   4.044  0.00  0.00     0.018 A 
ENDBRANCH  10  13
BRANCH   3  20
HETATM   20  C   UNK N   1      29.649  18.138   9.455  0.00  0.00     0.151 C 
BRANCH  20  21
HETATM   21  C   UNK N   1      28.989  17.078  10.278  0.00  0.00     0.143 C 
HETATM   22  O   UNK N   1      27.812  16.806  10.109  0.00  0.00    -0.650 OA
BRANCH  21  23
HETATM   23  O   UNK N   1      29.687  16.452  11.244  0.00  0.00    -0.776 OA
HETATM   24  H   UNK N   1      30.287  15.733  11.233  0.00  0.00     0.167 HD
ENDBRANCH  21  23
ENDBRANCH  20  21
ENDBRANCH   3  20
BRANCH  11  25
HETATM   25  O   UNK N   1      33.734  14.932   7.708  0.00  0.00    -0.356 OA
HETATM   26  C   UNK N   1      33.631  14.028   8.740  0.00  0.00     0.210 C 
ENDBRANCH  11  25
TORSDOF 5
ENDMDL
MODEL 4
REMARK VINA RESULT:      -6.8     12.114     14.654
REMARK  5 active torsions:
REMARK  status: ('A' for Active; 'I' for Inactive)
REMARK    1  A    between atoms: O_2  and  C_16 
REMARK    2  A    between atoms: O_4  and  C_19 
REMARK       I    between atoms: N_6  and  C_15 
REMARK    3  A    between atoms: C_7  and  C_11 
REMARK    4  A    between atoms: C_11  and  C_19 
REMARK    5  A    between atoms: C_15  and  C_18 
ROOT
HETATM    1  O   UNK N   1      32.007  14.842   4.448  0.00  0.00    -0.267 OA
HETATM    2  N   UNK N   1      30.968  16.112   6.005  0.00  0.00    -0.281 N 
HETATM    3  C   UNK N   1      30.480  17.559   7.685  0.00  0.00    -0.013 A 
HETATM    4  C   UNK N   1      31.808  17.231   7.774  0.00  0.00     0.003 A 
HETATM    5  C   UNK N   1      32.086  16.365   6.747  0.00  0.00     0.053 A 
HETATM    6  C   UNK N   1      29.979  16.872   6.590  0.00  0.00     0.024 A 
HETATM    7  C   UNK N   1      32.778  17.649   8.681  0.00  0.00     0.051 A 
HETATM    8  C   UNK N   1      33.381  15.857   6.574  0.00  0.00     0.034 A 
HETATM    9  C   UNK N   1      28.575  17.071   6.132  0.00  0.00     0.069 C 
HETATM   10  C   UNK N   1      30.946  15.276   4.878  0.00  0.00     0.263 C 
HETATM   11  C   UNK N   1      34.087  17.167   8.528  0.00  0.00     0.069 A 
HETATM   12  C   UNK N   1      34.384  16.267   7.471  0.00  0.00     0.039 A 
ENDROOT
BRANCH  10  13
HETATM   13  C   UNK N   1      29.712  14.862   4.135  0.00  0.00     0.033 A 
HETATM   14  C   UNK N   1      28.911  13.833   4.661  0.00  0.00     0.018 A 
HETATM   15  C   UNK N   1      27.748  13.423   4.000  0.00  0.00     0.025 A 
HETATM   16  C   UNK N   1      27.355  14.060   2.821  0.00  0.00     0.034 A 
HETATM   17 Cl   UNK N   1      25.923  13.529   1.965  0.00  0.00    -0.084 Cl
HETATM   18  C   UNK N   1      28.109  15.119   2.320  0.00  0.00     0.025 A 
HETATM   19  C   UNK N   1      29.270  15.521   2.982  0.00  0.00     0.018 A 
ENDBRANCH  10  13
BRANCH   3  20
HETATM   20  C   UNK N   1      29.697  18.481   8.576  0.00  0.00     0.151 C 
BRANCH  20  21
HETATM   21  C   UNK N   1      28.784  17.752   9.510  0.00  0.00     0.143 C 
HETATM   22  O   UNK N   1      29.227  16.930  10.293  0.00  0.00    -0.650 OA
BRANCH  21  23
HETATM   23  O   UNK N   1      27.457  17.973   9.452  0.00  0.00    -0.776 OA
HETATM   24  H   UNK N   1      26.939  18.753   9.463  0.00  0.00     0.167 HD
ENDBRANCH  21  23
ENDBRANCH  20  21
ENDBRANCH   3  20
BRANCH  11  25
HETATM   25  O   UNK N   1      35.038  17.582   9.398  0.00  0.00    -0.356 OA
HETATM   26  C   UNK N   1      35.406  16.866  10.513  0.00  0.00     0.210 C 
ENDBRANCH  11  25
TORSDOF 5
ENDMDL
MODEL 5
REMARK VINA RESULT:      -6.7     11.231     13.346
REMARK  5 active torsions:
REMARK  status: ('A' for Active; 'I' for Inactive)
REMARK    1  A    between atoms: O_2  and  C_16 
REMARK    2  A    between atoms: O_4  and  C_19 
REMARK       I    between atoms: N_6  and  C_15 
REMARK    3  A    between atoms: C_7  and  C_11 
REMARK    4  A    between atoms: C_11  and  C_19 
REMARK    5  A    between atoms: C_15  and  C_18 
ROOT
HETATM    1  O   UNK N   1      27.976  19.871   4.543  0.00  0.00    -0.267 OA
HETATM    2  N   UNK N   1      26.266  18.438   4.924  0.00  0.00    -0.281 N 
HETATM    3  C   UNK N   1      24.307  17.294   4.853  0.00  0.00    -0.013 A 
HETATM    4  C   UNK N   1      24.134  18.481   4.190  0.00  0.00     0.003 A 
HETATM    5  C   UNK N   1      25.329  19.154   4.236  0.00  0.00     0.053 A 
HETATM    6  C   UNK N   1      25.623  17.277   5.291  0.00  0.00     0.024 A 
HETATM    7  C   UNK N   1      23.012  18.996   3.548  0.00  0.00     0.051 A 
HETATM    8  C   UNK N   1      25.463  20.410   3.629  0.00  0.00     0.034 A 
HETATM    9  C   UNK N   1      26.192  16.080   5.970  0.00  0.00     0.069 C 
HETATM   10  C   UNK N   1      27.589  18.864   5.123  0.00  0.00     0.263 C 
HETATM   11  C   UNK N   1      23.116  20.247   2.921  0.00  0.00     0.069 A 
HETATM   12  C   UNK N   1      24.348  20.954   2.966  0.00  0.00     0.039 A 
ENDROOT
BRANCH  10  13
HETATM   13  C   UNK N   1      28.594  18.176   5.995  0.00  0.00     0.033 A 
HETATM   14  C   UNK N   1      29.611  17.412   5.394  0.00  0.00     0.018 A 
HETATM   15  C   UNK N   1      30.572  16.760   6.176  0.00  0.00     0.025 A 
HETATM   16  C   UNK N   1      30.546  16.891   7.565  0.00  0.00     0.034 A 
HETATM   17 Cl   UNK N   1      31.720  16.047   8.553  0.00  0.00    -0.084 Cl
HETATM   18  C   UNK N   1      29.578  17.691   8.170  0.00  0.00     0.025 A 
HETATM   19  C   UNK N   1      28.621  18.336   7.386  0.00  0.00     0.018 A 
ENDBRANCH  10  13
BRANCH   3  20
HETATM   20  C   UNK N   1      23.295  16.205   5.071  0.00  0.00     0.151 C 
BRANCH  20  21
HETATM   21  C   UNK N   1      22.566  16.340   6.370  0.00  0.00     0.143 C 
HETATM   22  O   UNK N   1      22.432  15.378   7.107  0.00  0.00    -0.650 OA
BRANCH  21  23
HETATM   23  O   UNK N   1      22.014  17.521   6.705  0.00  0.00    -0.776 OA
HETATM   24  H   UNK N   1      21.476  17.793   7.422  0.00  0.00     0.167 HD
ENDBRANCH  21  23
ENDBRANCH  20  21
ENDBRANCH   3  20
BRANCH  11  25
HETATM   25  O   UNK N   1      22.033  20.747   2.280  0.00  0.00    -0.356 OA
HETATM   26  C   UNK N   1      20.751  20.632   2.765  0.00  0.00     0.210 C 
ENDBRANCH  11  25
TORSDOF 5
ENDMDL
MODEL 6
REMARK VINA RESULT:      -6.6     10.808     13.749
REMARK  5 active torsions:
REMARK  status: ('A' for Active; 'I' for Inactive)
REMARK    1  A    between atoms: O_2  and  C_16 
REMARK    2  A    between atoms: O_4  and  C_19 
REMARK       I    between atoms: N_6  and  C_15 
REMARK    3  A    between atoms: C_7  and  C_11 
REMARK    4  A    between atoms: C_11  and  C_19 
REMARK    5  A    between atoms: C_15  and  C_18 
ROOT
HETATM    1  O   UNK N   1      28.021  18.845   7.441  0.00  0.00    -0.267 OA
HETATM    2  N   UNK N   1      29.225  17.688   5.914  0.00  0.00    -0.281 N 
HETATM    3  C   UNK N   1      30.700  16.314   4.868  0.00  0.00    -0.013 A 
HETATM    4  C   UNK N   1      31.154  16.540   6.141  0.00  0.00     0.003 A 
HETATM    5  C   UNK N   1      30.247  17.364   6.760  0.00  0.00     0.053 A 
HETATM    6  C   UNK N   1      29.511  17.018   4.746  0.00  0.00     0.024 A 
HETATM    7  C   UNK N   1      32.292  16.066   6.787  0.00  0.00     0.051 A 
HETATM    8  C   UNK N   1      30.441  17.767   8.088  0.00  0.00     0.034 A 
HETATM    9  C   UNK N   1      28.682  16.918   3.512  0.00  0.00     0.069 C 
HETATM   10  C   UNK N   1      28.140  18.502   6.271  0.00  0.00     0.263 C 
HETATM   11  C   UNK N   1      32.510  16.443   8.121  0.00  0.00     0.069 A 
HETATM   12  C   UNK N   1      31.580  17.298   8.769  0.00  0.00     0.039 A 
ENDROOT
BRANCH  10  13
HETATM   13  C   UNK N   1      27.085  18.996   5.327  0.00  0.00     0.033 A 
HETATM   14  C   UNK N   1      27.369  20.100   4.504  0.00  0.00     0.018 A 
HETATM   15  C   UNK N   1      26.412  20.585   3.605  0.00  0.00     0.025 A 
HETATM   16  C   UNK N   1      25.172  19.953   3.497  0.00  0.00     0.034 A 
HETATM   17 Cl   UNK N   1      23.955  20.576   2.404  0.00  0.00    -0.084 Cl
HETATM   18  C   UNK N   1      24.900  18.823   4.266  0.00  0.00     0.025 A 
HETATM   19  C   UNK N   1      25.857  18.345   5.163  0.00  0.00     0.018 A 
ENDBRANCH  10  13
BRANCH   3  20
HETATM   20  C   UNK N   1      31.336  15.472   3.800  0.00  0.00     0.151 C 
BRANCH  20  21
HETATM   21  C   UNK N   1      32.360  16.217   3.004  0.00  0.00     0.143 C 
HETATM   22  O   UNK N   1      33.542  15.932   3.096  0.00  0.00    -0.650 OA
BRANCH  21  23
HETATM   23  O   UNK N   1      31.979  17.240   2.217  0.00  0.00    -0.776 OA
HETATM   24  H   UNK N   1      32.429  17.755   1.578  0.00  0.00     0.167 HD
ENDBRANCH  21  23
ENDBRANCH  20  21
ENDBRANCH   3  20
BRANCH  11  25
HETATM   25  O   UNK N   1      33.608  15.972   8.759  0.00  0.00    -0.356 OA
HETATM   26  C   UNK N   1      34.612  16.785   9.232  0.00  0.00     0.210 C 
ENDBRANCH  11  25
TORSDOF 5
ENDMDL
MODEL 7
REMARK VINA RESULT:      -6.6      3.659      7.861
REMARK  5 active torsions:
REMARK  status: ('A' for Active; 'I' for Inactive)
REMARK    1  A    between atoms: O_2  and  C_16 
REMARK    2  A    between atoms: O_4  and  C_19 
REMARK       I    between atoms: N_6  and  C_15 
REMARK    3  A    between atoms: C_7  and  C_11 
REMARK    4  A    between atoms: C_11  and  C_19 
REMARK    5  A    between atoms: C_15  and  C_18 
ROOT
HETATM    1  O   UNK N   1      29.033  24.629  -3.622  0.00  0.00    -0.267 OA
HETATM    2  N   UNK N   1      28.010  24.244  -5.603  0.00  0.00    -0.281 N 
HETATM    3  C   UNK N   1      27.171  23.303  -7.492  0.00  0.00    -0.013 A 
HETATM    4  C   UNK N   1      28.141  22.472  -6.994  0.00  0.00     0.003 A 
HETATM    5  C   UNK N   1      28.629  23.052  -5.850  0.00  0.00     0.053 A 
HETATM    6  C   UNK N   1      27.095  24.382  -6.623  0.00  0.00     0.024 A 
HETATM    7  C   UNK N   1      28.608  21.250  -7.469  0.00  0.00     0.051 A 
HETATM    8  C   UNK N   1      29.638  22.423  -5.107  0.00  0.00     0.034 A 
HETATM    9  C   UNK N   1      26.066  25.443  -6.803  0.00  0.00     0.069 C 
HETATM   10  C   UNK N   1      28.288  25.058  -4.494  0.00  0.00     0.263 C 
HETATM   11  C   UNK N   1      29.611  20.590  -6.742  0.00  0.00     0.069 A 
HETATM   12  C   UNK N   1      30.126  21.183  -5.559  0.00  0.00     0.039 A 
ENDROOT
BRANCH  10  13
HETATM   13  C   UNK N   1      27.736  26.434  -4.275  0.00  0.00     0.033 A 
HETATM   14  C   UNK N   1      28.361  27.528  -4.901  0.00  0.00     0.018 A 
HETATM   15  C   UNK N   1      27.871  28.827  -4.726  0.00  0.00     0.025 A 
HETATM   16  C   UNK N   1      26.732  29.044  -3.949  0.00  0.00     0.034 A 
HETATM   17 Cl   UNK N   1      26.134  30.669  -3.692  0.00  0.00    -0.084 Cl
HETATM   18  C   UNK N   1      26.070  27.962  -3.371  0.00  0.00     0.025 A 
HETATM   19  C   UNK N   1      26.565  26.670  -3.546  0.00  0.00     0.018 A 
ENDBRANCH  10  13
BRANCH   3  20
HETATM   20  C   UNK N   1      26.335  23.107  -8.724  0.00  0.00     0.151 C 
BRANCH  20  21
HETATM   21  C   UNK N   1      25.243  22.103  -8.534  0.00  0.00     0.143 C 
HETATM   22  O   UNK N   1      24.457  22.211  -7.608  0.00  0.00    -0.650 OA
BRANCH  21  23
HETATM   23  O   UNK N   1      25.158  21.047  -9.364  0.00  0.00    -0.776 OA
HETATM   24  H   UNK N   1      25.583  20.833 -10.171  0.00  0.00     0.167 HD
ENDBRANCH  21  23
ENDBRANCH  20  21
ENDBRANCH   3  20
BRANCH  11  25
HETATM   25  O   UNK N   1      30.058  19.393  -7.191  0.00  0.00    -0.356 OA
HETATM   26  C   UNK N   1      29.661  18.839  -8.385  0.00  0.00     0.210 C 
ENDBRANCH  11  25
TORSDOF 5
ENDMDL
MODEL 8
REMARK VINA RESULT:      -6.5      3.626      7.506
REMARK  5 active torsions:
REMARK  status: ('A' for Active; 'I' for Inactive)
REMARK    1  A    between atoms: O_2  and  C_16 
REMARK    2  A    between atoms: O_4  and  C_19 
REMARK       I    between atoms: N_6  and  C_15 
REMARK    3  A    between atoms: C_7  and  C_11 
REMARK    4  A    between atoms: C_11  and  C_19 
REMARK    5  A    between atoms: C_15  and  C_18 
ROOT
HETATM    1  O   UNK N   1      30.508  23.555  -2.273  0.00  0.00    -0.267 OA
HETATM    2  N   UNK N   1      30.424  22.488  -4.266  0.00  0.00    -0.281 N 
HETATM    3  C   UNK N   1      30.697  21.034  -5.988  0.00  0.00    -0.013 A 
HETATM    4  C   UNK N   1      31.710  20.827  -5.088  0.00  0.00     0.003 A 
HETATM    5  C   UNK N   1      31.523  21.706  -4.051  0.00  0.00     0.053 A 
HETATM    6  C   UNK N   1      29.911  22.051  -5.467  0.00  0.00     0.024 A 
HETATM    7  C   UNK N   1      32.764  19.918  -5.114  0.00  0.00     0.051 A 
HETATM    8  C   UNK N   1      32.407  21.725  -2.964  0.00  0.00     0.034 A 
HETATM    9  C   UNK N   1      28.652  22.472  -6.141  0.00  0.00     0.069 C 
HETATM   10  C   UNK N   1      29.973  23.470  -3.371  0.00  0.00     0.263 C 
HETATM   11  C   UNK N   1      33.661  19.903  -4.035  0.00  0.00     0.069 A 
HETATM   12  C   UNK N   1      33.479  20.813  -2.960  0.00  0.00     0.039 A 
ENDROOT
BRANCH  10  13
HETATM   13  C   UNK N   1      28.864  24.442  -3.643  0.00  0.00     0.033 A 
HETATM   14  C   UNK N   1      29.150  25.622  -4.353  0.00  0.00     0.018 A 
HETATM   15  C   UNK N   1      28.140  26.550  -4.632  0.00  0.00     0.025 A 
HETATM   16  C   UNK N   1      26.827  26.293  -4.234  0.00  0.00     0.034 A 
HETATM   17 Cl   UNK N   1      25.564  27.465  -4.545  0.00  0.00    -0.084 Cl
HETATM   18  C   UNK N   1      26.521  25.100  -3.581  0.00  0.00     0.025 A 
HETATM   19  C   UNK N   1      27.532  24.180  -3.303  0.00  0.00     0.018 A 
ENDBRANCH  10  13
BRANCH   3  20
HETATM   20  C   UNK N   1      30.457  20.315  -7.285  0.00  0.00     0.151 C 
BRANCH  20  21
HETATM   21  C   UNK N   1      31.244  20.885  -8.421  0.00  0.00     0.143 C 
HETATM   22  O   UNK N   1      32.304  20.383  -8.753  0.00  0.00    -0.650 OA
BRANCH  21  23
HETATM   23  O   UNK N   1      30.801  21.988  -9.052  0.00  0.00    -0.776 OA
HETATM   24  H   UNK N   1      30.841  22.901  -8.845  0.00  0.00     0.167 HD
ENDBRANCH  21  23
ENDBRANCH  20  21
ENDBRANCH   3  20
BRANCH  11  25
HETATM   25  O   UNK N   1      34.679  19.011  -4.047  0.00  0.00    -0.356 OA
HETATM   26  C   UNK N   1      34.490  17.651  -4.134  0.00  0.00     0.210 C 
ENDBRANCH  11  25
TORSDOF 5
ENDMDL
MODEL 9
REMARK VINA RESULT:      -6.5     16.055     17.641
REMARK  5 active torsions:
REMARK  status: ('A' for Active; 'I' for Inactive)
REMARK    1  A    between atoms: O_2  and  C_16 
REMARK    2  A    between atoms: O_4  and  C_19 
REMARK       I    between atoms: N_6  and  C_15 
REMARK    3  A    between atoms: C_7  and  C_11 
REMARK    4  A    between atoms: C_11  and  C_19 
REMARK    5  A    between atoms: C_15  and  C_18 
ROOT
HETATM    1  O   UNK N   1      23.297  11.672   6.705  0.00  0.00    -0.267 OA
HETATM    2  N   UNK N   1      22.272  13.689   6.749  0.00  0.00    -0.281 N 
HETATM    3  C   UNK N   1      21.143  15.587   6.222  0.00  0.00    -0.013 A 
HETATM    4  C   UNK N   1      21.587  15.016   5.058  0.00  0.00     0.003 A 
HETATM    5  C   UNK N   1      22.258  13.867   5.395  0.00  0.00     0.053 A 
HETATM    6  C   UNK N   1      21.563  14.757   7.251  0.00  0.00     0.024 A 
HETATM    7  C   UNK N   1      21.431  15.429   3.738  0.00  0.00     0.051 A 
HETATM    8  C   UNK N   1      22.825  13.056   4.403  0.00  0.00     0.034 A 
HETATM    9  C   UNK N   1      21.168  15.021   8.663  0.00  0.00     0.069 C 
HETATM   10  C   UNK N   1      22.871  12.593   7.390  0.00  0.00     0.263 C 
HETATM   11  C   UNK N   1      21.978  14.633   2.720  0.00  0.00     0.069 A 
HETATM   12  C   UNK N   1      22.678  13.444   3.058  0.00  0.00     0.039 A 
ENDROOT
BRANCH  10  13
HETATM   13  C   UNK N   1      23.033  12.445   8.872  0.00  0.00     0.033 A 
HETATM   14  C   UNK N   1      21.906  12.138   9.655  0.00  0.00     0.018 A 
HETATM   15  C   UNK N   1      22.019  11.985  11.042  0.00  0.00     0.025 A 
HETATM   16  C   UNK N   1      23.266  12.106  11.658  0.00  0.00     0.034 A 
HETATM   17 Cl   UNK N   1      23.411  11.956  13.396  0.00  0.00    -0.084 Cl
HETATM   18  C   UNK N   1      24.400  12.354  10.886  0.00  0.00     0.025 A 
HETATM   19  C   UNK N   1      24.281  12.508   9.505  0.00  0.00     0.018 A 
ENDBRANCH  10  13
BRANCH   3  20
HETATM   20  C   UNK N   1      20.351  16.853   6.383  0.00  0.00     0.151 C 
BRANCH  20  21
HETATM   21  C   UNK N   1      21.198  18.026   6.760  0.00  0.00     0.143 C 
HETATM   22  O   UNK N   1      20.764  18.890   7.502  0.00  0.00    -0.650 OA
BRANCH  21  23
HETATM   23  O   UNK N   1      22.432  18.152   6.238  0.00  0.00    -0.776 OA
HETATM   24  H   UNK N   1      23.244  18.464   6.586  0.00  0.00     0.167 HD
ENDBRANCH  21  23
ENDBRANCH  20  21
ENDBRANCH   3  20
BRANCH  11  25
HETATM   25  O   UNK N   1      21.816  15.020   1.433  0.00  0.00    -0.356 OA
HETATM   26  C   UNK N   1      20.585  15.250   0.863  0.00  0.00     0.210 C 
ENDBRANCH  11  25
TORSDOF 5
ENDMDL
