MODEL 1
REMARK VINA RESULT:      -6.3      0.000      0.000
REMARK  7 active torsions:
REMARK  status: ('A' for Active; 'I' for Inactive)
REMARK    1  A    between atoms: N_2  and  C_5 
REMARK    2  A    between atoms: C_3  and  C_4 
REMARK    3  A    between atoms: C_3  and  C_6 
REMARK    4  A    between atoms: C_3  and  C_7 
REMARK    5  A    between atoms: C_3  and  C_8 
REMARK    6  A    between atoms: C_4  and  C_5 
REMARK    7  A    between atoms: C_8  and  C_10 
ROOT
HETATM    1  C   UNK N   1      36.256  12.037  15.295  0.00  0.00     0.076 C 
ENDROOT
BRANCH   1   2
HETATM    2  C   UNK N   1      37.371  12.068  14.212  0.00  0.00     0.062 C 
BRANCH   2   3
HETATM    3  C   UNK N   1      36.872  11.960  12.768  0.00  0.00     0.219 C 
HETATM    4  C   UNK N   1      37.351  10.658  12.127  0.00  0.00     0.043 C 
BRANCH   3   5
HETATM    5  N   UNK N   1      37.195  13.163  11.989  0.00  0.00     0.084 N 
HETATM    6  C   UNK N   1      38.163  12.881  10.936  0.00  0.00     0.309 C 
HETATM    7  C   UNK N   1      35.980  13.667  11.368  0.00  0.00     0.309 C 
ENDBRANCH   3   5
ENDBRANCH   2   3
ENDBRANCH   1   2
BRANCH   1   8
HETATM    8  C   UNK N   1      36.314  13.373  16.068  0.00  0.00    -0.037 A 
HETATM    9  C   UNK N   1      35.544  13.556  17.234  0.00  0.00     0.009 A 
HETATM   10  C   UNK N   1      35.620  14.741  17.967  0.00  0.00     0.001 A 
HETATM   11  C   UNK N   1      36.471  15.766  17.553  0.00  0.00     0.000 A 
HETATM   12  C   UNK N   1      37.243  15.607  16.402  0.00  0.00     0.001 A 
HETATM   13  C   UNK N   1      37.167  14.421  15.666  0.00  0.00     0.009 A 
ENDBRANCH   1   8
BRANCH   1  14
HETATM   14  C   UNK N   1      36.429  10.804  16.185  0.00  0.00    -0.037 A 
HETATM   15  C   UNK N   1      35.726  10.655  17.393  0.00  0.00     0.009 A 
HETATM   16  C   UNK N   1      35.877   9.499  18.165  0.00  0.00     0.001 A 
HETATM   17  C   UNK N   1      36.732   8.479  17.740  0.00  0.00     0.000 A 
HETATM   18  C   UNK N   1      37.436   8.612  16.543  0.00  0.00     0.001 A 
HETATM   19  C   UNK N   1      37.283   9.764  15.768  0.00  0.00     0.009 A 
ENDBRANCH   1  14
BRANCH   1  20
HETATM   20  C   UNK N   1      34.898  11.871  14.608  0.00  0.00     0.144 C 
HETATM   21  O   UNK N   1      34.305  12.835  14.142  0.00  0.00    -0.296 OA
BRANCH  20  22
HETATM   22  C   UNK N   1      34.282  10.504  14.482  0.00  0.00     0.075 C 
HETATM   23  C   UNK N   1      33.774  10.271  13.073  0.00  0.00     0.013 C 
ENDBRANCH  20  22
ENDBRANCH   1  20
TORSDOF 7
ENDMDL
MODEL 2
REMARK VINA RESULT:      -6.1      1.467      2.358
REMARK  7 active torsions:
REMARK  status: ('A' for Active; 'I' for Inactive)
REMARK    1  A    between atoms: N_2  and  C_5 
REMARK    2  A    between atoms: C_3  and  C_4 
REMARK    3  A    between atoms: C_3  and  C_6 
REMARK    4  A    between atoms: C_3  and  C_7 
REMARK    5  A    between atoms: C_3  and  C_8 
REMARK    6  A    between atoms: C_4  and  C_5 
REMARK    7  A    between atoms: C_8  and  C_10 
ROOT
HETATM    1  C   UNK N   1      36.058  11.436  15.164  0.00  0.00     0.076 C 
ENDROOT
BRANCH   1   2
HETATM    2  C   UNK N   1      36.626  12.600  14.306  0.00  0.00     0.062 C 
BRANCH   2   3
HETATM    3  C   UNK N   1      36.110  12.654  12.866  0.00  0.00     0.219 C 
HETATM    4  C   UNK N   1      37.259  12.475  11.873  0.00  0.00     0.043 C 
BRANCH   3   5
HETATM    5  N   UNK N   1      35.292  13.850  12.624  0.00  0.00     0.084 N 
HETATM    6  C   UNK N   1      36.059  15.076  12.818  0.00  0.00     0.309 C 
HETATM    7  C   UNK N   1      34.811  13.827  11.252  0.00  0.00     0.309 C 
ENDBRANCH   3   5
ENDBRANCH   2   3
ENDBRANCH   1   2
BRANCH   1   8
HETATM    8  C   UNK N   1      35.710  12.004  16.558  0.00  0.00    -0.037 A 
HETATM    9  C   UNK N   1      35.634  11.150  17.677  0.00  0.00     0.009 A 
HETATM   10  C   UNK N   1      35.364  11.655  18.950  0.00  0.00     0.001 A 
HETATM   11  C   UNK N   1      35.169  13.025  19.131  0.00  0.00     0.000 A 
HETATM   12  C   UNK N   1      35.239  13.889  18.037  0.00  0.00     0.001 A 
HETATM   13  C   UNK N   1      35.508  13.383  16.762  0.00  0.00     0.009 A 
ENDBRANCH   1   8
BRANCH   1  14
HETATM   14  C   UNK N   1      37.062  10.281  15.204  0.00  0.00    -0.037 A 
HETATM   15  C   UNK N   1      38.341  10.388  14.632  0.00  0.00     0.009 A 
HETATM   16  C   UNK N   1      39.250   9.328  14.718  0.00  0.00     0.001 A 
HETATM   17  C   UNK N   1      38.891   8.149  15.377  0.00  0.00     0.000 A 
HETATM   18  C   UNK N   1      37.624   8.029  15.951  0.00  0.00     0.001 A 
HETATM   19  C   UNK N   1      36.718   9.088  15.870  0.00  0.00     0.009 A 
ENDBRANCH   1  14
BRANCH   1  20
HETATM   20  C   UNK N   1      34.805  10.878  14.481  0.00  0.00     0.144 C 
HETATM   21  O   UNK N   1      33.691  11.290  14.775  0.00  0.00    -0.296 OA
BRANCH  20  22
HETATM   22  C   UNK N   1      34.937   9.821  13.419  0.00  0.00     0.075 C 
HETATM   23  C   UNK N   1      33.867   9.988  12.359  0.00  0.00     0.013 C 
ENDBRANCH  20  22
ENDBRANCH   1  20
TORSDOF 7
ENDMDL
MODEL 3
REMARK VINA RESULT:      -5.9     11.380     14.149
REMARK  7 active torsions:
REMARK  status: ('A' for Active; 'I' for Inactive)
REMARK    1  A    between atoms: N_2  and  C_5 
REMARK    2  A    between atoms: C_3  and  C_4 
REMARK    3  A    between atoms: C_3  and  C_6 
REMARK    4  A    between atoms: C_3  and  C_7 
REMARK    5  A    between atoms: C_3  and  C_8 
REMARK    6  A    between atoms: C_4  and  C_5 
REMARK    7  A    between atoms: C_8  and  C_10 
ROOT
HETATM    1  C   UNK N   1      28.904  17.333   4.914  0.00  0.00     0.076 C 
ENDROOT
BRANCH   1   2
HETATM    2  C   UNK N   1      28.668  17.001   3.414  0.00  0.00     0.062 C 
BRANCH   2   3
HETATM    3  C   UNK N   1      28.301  15.543   3.125  0.00  0.00     0.219 C 
HETATM    4  C   UNK N   1      29.516  14.773   2.607  0.00  0.00     0.043 C 
BRANCH   3   5
HETATM    5  N   UNK N   1      27.116  15.439   2.263  0.00  0.00     0.084 N 
HETATM    6  C   UNK N   1      26.584  14.082   2.238  0.00  0.00     0.309 C 
HETATM    7  C   UNK N   1      26.081  16.325   2.770  0.00  0.00     0.309 C 
ENDBRANCH   3   5
ENDBRANCH   2   3
ENDBRANCH   1   2
BRANCH   1   8
HETATM    8  C   UNK N   1      28.175  18.659   5.223  0.00  0.00    -0.037 A 
HETATM    9  C   UNK N   1      27.501  19.357   4.200  0.00  0.00     0.009 A 
HETATM   10  C   UNK N   1      26.801  20.534   4.474  0.00  0.00     0.001 A 
HETATM   11  C   UNK N   1      26.755  21.033   5.776  0.00  0.00     0.000 A 
HETATM   12  C   UNK N   1      27.415  20.358   6.804  0.00  0.00     0.001 A 
HETATM   13  C   UNK N   1      28.117  19.181   6.530  0.00  0.00     0.009 A 
ENDBRANCH   1   8
BRANCH   1  14
HETATM   14  C   UNK N   1      30.406  17.375   5.207  0.00  0.00    -0.037 A 
HETATM   15  C   UNK N   1      30.915  17.196   6.505  0.00  0.00     0.009 A 
HETATM   16  C   UNK N   1      32.294  17.201   6.735  0.00  0.00     0.001 A 
HETATM   17  C   UNK N   1      33.181  17.387   5.672  0.00  0.00     0.000 A 
HETATM   18  C   UNK N   1      32.691  17.566   4.377  0.00  0.00     0.001 A 
HETATM   19  C   UNK N   1      31.313  17.555   4.145  0.00  0.00     0.009 A 
ENDBRANCH   1  14
BRANCH   1  20
HETATM   20  C   UNK N   1      28.341  16.196   5.771  0.00  0.00     0.144 C 
HETATM   21  O   UNK N   1      29.008  15.199   6.012  0.00  0.00    -0.296 OA
BRANCH  20  22
HETATM   22  C   UNK N   1      26.955  16.304   6.346  0.00  0.00     0.075 C 
HETATM   23  C   UNK N   1      26.241  14.969   6.281  0.00  0.00     0.013 C 
ENDBRANCH  20  22
ENDBRANCH   1  20
TORSDOF 7
ENDMDL
MODEL 4
REMARK VINA RESULT:      -5.9     22.376     26.052
REMARK  7 active torsions:
REMARK  status: ('A' for Active; 'I' for Inactive)
REMARK    1  A    between atoms: N_2  and  C_5 
REMARK    2  A    between atoms: C_3  and  C_4 
REMARK    3  A    between atoms: C_3  and  C_6 
REMARK    4  A    between atoms: C_3  and  C_7 
REMARK    5  A    between atoms: C_3  and  C_8 
REMARK    6  A    between atoms: C_4  and  C_5 
REMARK    7  A    between atoms: C_8  and  C_10 
ROOT
HETATM    1  C   UNK N   1      27.817  24.639  -4.782  0.00  0.00     0.076 C 
ENDROOT
BRANCH   1   2
HETATM    2  C   UNK N   1      29.237  25.145  -5.163  0.00  0.00     0.062 C 
BRANCH   2   3
HETATM    3  C   UNK N   1      29.265  26.464  -5.939  0.00  0.00     0.219 C 
HETATM    4  C   UNK N   1      29.638  26.223  -7.402  0.00  0.00     0.043 C 
BRANCH   3   5
HETATM    5  N   UNK N   1      30.098  27.473  -5.269  0.00  0.00     0.084 N 
HETATM    6  C   UNK N   1      29.370  28.717  -5.052  0.00  0.00     0.309 C 
HETATM    7  C   UNK N   1      30.518  26.959  -3.975  0.00  0.00     0.309 C 
ENDBRANCH   3   5
ENDBRANCH   2   3
ENDBRANCH   1   2
BRANCH   1   8
HETATM    8  C   UNK N   1      27.386  23.604  -5.845  0.00  0.00    -0.037 A 
HETATM    9  C   UNK N   1      28.354  22.884  -6.574  0.00  0.00     0.009 A 
HETATM   10  C   UNK N   1      27.979  21.915  -7.505  0.00  0.00     0.001 A 
HETATM   11  C   UNK N   1      26.628  21.642  -7.724  0.00  0.00     0.000 A 
HETATM   12  C   UNK N   1      25.652  22.342  -7.013  0.00  0.00     0.001 A 
HETATM   13  C   UNK N   1      26.028  23.314  -6.082  0.00  0.00     0.009 A 
ENDBRANCH   1   8
BRANCH   1  14
HETATM   14  C   UNK N   1      26.859  25.825  -4.655  0.00  0.00    -0.037 A 
HETATM   15  C   UNK N   1      26.792  26.605  -3.487  0.00  0.00     0.009 A 
HETATM   16  C   UNK N   1      25.933  27.706  -3.415  0.00  0.00     0.001 A 
HETATM   17  C   UNK N   1      25.129  28.040  -4.508  0.00  0.00     0.000 A 
HETATM   18  C   UNK N   1      25.184  27.275  -5.674  0.00  0.00     0.001 A 
HETATM   19  C   UNK N   1      26.046  26.179  -5.750  0.00  0.00     0.009 A 
ENDBRANCH   1  14
BRANCH   1  20
HETATM   20  C   UNK N   1      27.874  23.994  -3.394  0.00  0.00     0.144 C 
HETATM   21  O   UNK N   1      26.849  23.704  -2.792  0.00  0.00    -0.296 OA
BRANCH  20  22
HETATM   22  C   UNK N   1      29.205  23.694  -2.760  0.00  0.00     0.075 C 
HETATM   23  C   UNK N   1      29.653  22.284  -3.094  0.00  0.00     0.013 C 
ENDBRANCH  20  22
ENDBRANCH   1  20
TORSDOF 7
ENDMDL
MODEL 5
REMARK VINA RESULT:      -5.7     22.329     25.913
REMARK  7 active torsions:
REMARK  status: ('A' for Active; 'I' for Inactive)
REMARK    1  A    between atoms: N_2  and  C_5 
REMARK    2  A    between atoms: C_3  and  C_4 
REMARK    3  A    between atoms: C_3  and  C_6 
REMARK    4  A    between atoms: C_3  and  C_7 
REMARK    5  A    between atoms: C_3  and  C_8 
REMARK    6  A    between atoms: C_4  and  C_5 
REMARK    7  A    between atoms: C_8  and  C_10 
ROOT
HETATM    1  C   UNK N   1      27.581  25.010  -5.227  0.00  0.00     0.076 C 
ENDROOT
BRANCH   1   2
HETATM    2  C   UNK N   1      28.432  25.345  -6.483  0.00  0.00     0.062 C 
BRANCH   2   3
HETATM    3  C   UNK N   1      27.859  26.450  -7.375  0.00  0.00     0.219 C 
HETATM    4  C   UNK N   1      27.313  25.865  -8.677  0.00  0.00     0.043 C 
BRANCH   3   5
HETATM    5  N   UNK N   1      28.819  27.546  -7.569  0.00  0.00     0.084 N 
HETATM    6  C   UNK N   1      28.265  28.829  -7.152  0.00  0.00     0.309 C 
HETATM    7  C   UNK N   1      30.008  27.283  -6.774  0.00  0.00     0.309 C 
ENDBRANCH   3   5
ENDBRANCH   2   3
ENDBRANCH   1   2
BRANCH   1   8
HETATM    8  C   UNK N   1      26.982  26.331  -4.696  0.00  0.00    -0.037 A 
HETATM    9  C   UNK N   1      27.720  27.144  -3.813  0.00  0.00     0.009 A 
HETATM   10  C   UNK N   1      27.210  28.362  -3.361  0.00  0.00     0.001 A 
HETATM   11  C   UNK N   1      25.953  28.794  -3.786  0.00  0.00     0.000 A 
HETATM   12  C   UNK N   1      25.205  28.005  -4.661  0.00  0.00     0.001 A 
HETATM   13  C   UNK N   1      25.715  26.785  -5.113  0.00  0.00     0.009 A 
ENDBRANCH   1   8
BRANCH   1  14
HETATM   14  C   UNK N   1      28.440  24.269  -4.199  0.00  0.00    -0.037 A 
HETATM   15  C   UNK N   1      29.827  24.113  -4.364  0.00  0.00     0.009 A 
HETATM   16  C   UNK N   1      30.591  23.464  -3.389  0.00  0.00     0.001 A 
HETATM   17  C   UNK N   1      29.978  22.961  -2.238  0.00  0.00     0.000 A 
HETATM   18  C   UNK N   1      28.601  23.109  -2.060  0.00  0.00     0.001 A 
HETATM   19  C   UNK N   1      27.838  23.762  -3.031  0.00  0.00     0.009 A 
ENDBRANCH   1  14
BRANCH   1  20
HETATM   20  C   UNK N   1      26.468  24.035  -5.624  0.00  0.00     0.144 C 
HETATM   21  O   UNK N   1      25.324  24.184  -5.216  0.00  0.00    -0.296 OA
BRANCH  20  22
HETATM   22  C   UNK N   1      26.772  22.883  -6.542  0.00  0.00     0.075 C 
HETATM   23  C   UNK N   1      25.557  22.525  -7.375  0.00  0.00     0.013 C 
ENDBRANCH  20  22
ENDBRANCH   1  20
TORSDOF 7
ENDMDL
MODEL 6
REMARK VINA RESULT:      -5.7     14.070     16.837
REMARK  7 active torsions:
REMARK  status: ('A' for Active; 'I' for Inactive)
REMARK    1  A    between atoms: N_2  and  C_5 
REMARK    2  A    between atoms: C_3  and  C_4 
REMARK    3  A    between atoms: C_3  and  C_6 
REMARK    4  A    between atoms: C_3  and  C_7 
REMARK    5  A    between atoms: C_3  and  C_8 
REMARK    6  A    between atoms: C_4  and  C_5 
REMARK    7  A    between atoms: C_8  and  C_10 
ROOT
HETATM    1  C   UNK N   1      21.708  14.072   7.961  0.00  0.00     0.076 C 
ENDROOT
BRANCH   1   2
HETATM    2  C   UNK N   1      22.723  15.025   7.270  0.00  0.00     0.062 C 
BRANCH   2   3
HETATM    3  C   UNK N   1      22.988  14.727   5.792  0.00  0.00     0.219 C 
HETATM    4  C   UNK N   1      24.407  14.194   5.594  0.00  0.00     0.043 C 
BRANCH   3   5
HETATM    5  N   UNK N   1      22.655  15.874   4.937  0.00  0.00     0.084 N 
HETATM    6  C   UNK N   1      22.859  17.141   5.629  0.00  0.00     0.309 C 
HETATM    7  C   UNK N   1      23.511  15.854   3.761  0.00  0.00     0.309 C 
ENDBRANCH   3   5
ENDBRANCH   2   3
ENDBRANCH   1   2
BRANCH   1   8
HETATM    8  C   UNK N   1      22.457  13.316   9.080  0.00  0.00    -0.037 A 
HETATM    9  C   UNK N   1      23.861  13.193   9.040  0.00  0.00     0.009 A 
HETATM   10  C   UNK N   1      24.555  12.551  10.067  0.00  0.00     0.001 A 
HETATM   11  C   UNK N   1      23.861  12.022  11.156  0.00  0.00     0.000 A 
HETATM   12  C   UNK N   1      22.471  12.132  11.215  0.00  0.00     0.001 A 
HETATM   13  C   UNK N   1      21.776  12.774  10.187  0.00  0.00     0.009 A 
ENDBRANCH   1   8
BRANCH   1  14
HETATM   14  C   UNK N   1      21.067  13.152   6.919  0.00  0.00    -0.037 A 
HETATM   15  C   UNK N   1      20.145  13.630   5.972  0.00  0.00     0.009 A 
HETATM   16  C   UNK N   1      19.605  12.772   5.009  0.00  0.00     0.001 A 
HETATM   17  C   UNK N   1      19.979  11.426   4.981  0.00  0.00     0.000 A 
HETATM   18  C   UNK N   1      20.893  10.936   5.916  0.00  0.00     0.001 A 
HETATM   19  C   UNK N   1      21.437  11.794   6.875  0.00  0.00     0.009 A 
ENDBRANCH   1  14
BRANCH   1  20
HETATM   20  C   UNK N   1      20.563  14.904   8.546  0.00  0.00     0.144 C 
HETATM   21  O   UNK N   1      19.611  14.367   9.096  0.00  0.00    -0.296 OA
BRANCH  20  22
HETATM   22  C   UNK N   1      20.608  16.406   8.466  0.00  0.00     0.075 C 
HETATM   23  C   UNK N   1      19.239  17.000   8.731  0.00  0.00     0.013 C 
ENDBRANCH  20  22
ENDBRANCH   1  20
TORSDOF 7
ENDMDL
MODEL 7
REMARK VINA RESULT:      -5.7     13.436     15.845
REMARK  7 active torsions:
REMARK  status: ('A' for Active; 'I' for Inactive)
REMARK    1  A    between atoms: N_2  and  C_5 
REMARK    2  A    between atoms: C_3  and  C_4 
REMARK    3  A    between atoms: C_3  and  C_6 
REMARK    4  A    between atoms: C_3  and  C_7 
REMARK    5  A    between atoms: C_3  and  C_8 
REMARK    6  A    between atoms: C_4  and  C_5 
REMARK    7  A    between atoms: C_8  and  C_10 
ROOT
HETATM    1  C   UNK N   1      22.565  13.557   7.869  0.00  0.00     0.076 C 
ENDROOT
BRANCH   1   2
HETATM    2  C   UNK N   1      23.853  13.995   7.118  0.00  0.00     0.062 C 
BRANCH   2   3
HETATM    3  C   UNK N   1      24.127  13.245   5.812  0.00  0.00     0.219 C 
HETATM    4  C   UNK N   1      25.509  12.593   5.844  0.00  0.00     0.043 C 
BRANCH   3   5
HETATM    5  N   UNK N   1      23.894  14.095   4.637  0.00  0.00     0.084 N 
HETATM    6  C   UNK N   1      25.140  14.644   4.112  0.00  0.00     0.309 C 
HETATM    7  C   UNK N   1      23.272  13.299   3.591  0.00  0.00     0.309 C 
ENDBRANCH   3   5
ENDBRANCH   2   3
ENDBRANCH   1   2
BRANCH   1   8
HETATM    8  C   UNK N   1      21.612  14.772   7.919  0.00  0.00    -0.037 A 
HETATM    9  C   UNK N   1      20.578  14.828   8.875  0.00  0.00     0.009 A 
HETATM   10  C   UNK N   1      19.737  15.939   8.961  0.00  0.00     0.001 A 
HETATM   11  C   UNK N   1      19.917  17.019   8.096  0.00  0.00     0.000 A 
HETATM   12  C   UNK N   1      20.934  16.986   7.142  0.00  0.00     0.001 A 
HETATM   13  C   UNK N   1      21.775  15.873   7.055  0.00  0.00     0.009 A 
ENDBRANCH   1   8
BRANCH   1  14
HETATM   14  C   UNK N   1      22.929  13.004   9.249  0.00  0.00    -0.037 A 
HETATM   15  C   UNK N   1      21.948  12.614  10.177  0.00  0.00     0.009 A 
HETATM   16  C   UNK N   1      22.313  12.077  11.415  0.00  0.00     0.001 A 
HETATM   17  C   UNK N   1      23.663  11.925  11.742  0.00  0.00     0.000 A 
HETATM   18  C   UNK N   1      24.649  12.307  10.831  0.00  0.00     0.001 A 
HETATM   19  C   UNK N   1      24.286  12.839   9.592  0.00  0.00     0.009 A 
ENDBRANCH   1  14
BRANCH   1  20
HETATM   20  C   UNK N   1      21.916  12.395   7.111  0.00  0.00     0.144 C 
HETATM   21  O   UNK N   1      22.370  11.261   7.187  0.00  0.00    -0.296 OA
BRANCH  20  22
HETATM   22  C   UNK N   1      20.693  12.637   6.269  0.00  0.00     0.075 C 
HETATM   23  C   UNK N   1      20.289  11.376   5.533  0.00  0.00     0.013 C 
ENDBRANCH  20  22
ENDBRANCH   1  20
TORSDOF 7
ENDMDL
MODEL 8
REMARK VINA RESULT:      -5.7     21.955     25.460
REMARK  7 active torsions:
REMARK  status: ('A' for Active; 'I' for Inactive)
REMARK    1  A    between atoms: N_2  and  C_5 
REMARK    2  A    between atoms: C_3  and  C_4 
REMARK    3  A    between atoms: C_3  and  C_6 
REMARK    4  A    between atoms: C_3  and  C_7 
REMARK    5  A    between atoms: C_3  and  C_8 
REMARK    6  A    between atoms: C_4  and  C_5 
REMARK    7  A    between atoms: C_8  and  C_10 
ROOT
HETATM    1  C   UNK N   1      27.963  24.911  -4.824  0.00  0.00     0.076 C 
ENDROOT
BRANCH   1   2
HETATM    2  C   UNK N   1      28.907  26.106  -5.132  0.00  0.00     0.062 C 
BRANCH   2   3
HETATM    3  C   UNK N   1      30.277  26.039  -4.452  0.00  0.00     0.219 C 
HETATM    4  C   UNK N   1      30.461  27.215  -3.492  0.00  0.00     0.043 C 
BRANCH   3   5
HETATM    5  N   UNK N   1      31.364  25.890  -5.429  0.00  0.00     0.084 N 
HETATM    6  C   UNK N   1      32.000  27.168  -5.728  0.00  0.00     0.309 C 
HETATM    7  C   UNK N   1      32.373  24.996  -4.884  0.00  0.00     0.309 C 
ENDBRANCH   3   5
ENDBRANCH   2   3
ENDBRANCH   1   2
BRANCH   1   8
HETATM    8  C   UNK N   1      28.834  23.742  -4.311  0.00  0.00    -0.037 A 
HETATM    9  C   UNK N   1      29.361  22.797  -5.214  0.00  0.00     0.009 A 
HETATM   10  C   UNK N   1      30.186  21.761  -4.771  0.00  0.00     0.001 A 
HETATM   11  C   UNK N   1      30.504  21.653  -3.417  0.00  0.00     0.000 A 
HETATM   12  C   UNK N   1      29.993  22.578  -2.505  0.00  0.00     0.001 A 
HETATM   13  C   UNK N   1      29.166  23.614  -2.949  0.00  0.00     0.009 A 
ENDBRANCH   1   8
BRANCH   1  14
HETATM   14  C   UNK N   1      27.140  24.564  -6.067  0.00  0.00    -0.037 A 
HETATM   15  C   UNK N   1      26.374  23.388  -6.147  0.00  0.00     0.009 A 
HETATM   16  C   UNK N   1      25.602  23.118  -7.281  0.00  0.00     0.001 A 
HETATM   17  C   UNK N   1      25.586  24.020  -8.349  0.00  0.00     0.000 A 
HETATM   18  C   UNK N   1      26.340  25.192  -8.283  0.00  0.00     0.001 A 
HETATM   19  C   UNK N   1      27.108  25.465  -7.149  0.00  0.00     0.009 A 
ENDBRANCH   1  14
BRANCH   1  20
HETATM   20  C   UNK N   1      26.951  25.337  -3.756  0.00  0.00     0.144 C 
HETATM   21  O   UNK N   1      26.320  24.505  -3.119  0.00  0.00    -0.296 OA
BRANCH  20  22
HETATM   22  C   UNK N   1      26.736  26.798  -3.467  0.00  0.00     0.075 C 
HETATM   23  C   UNK N   1      25.573  27.340  -4.275  0.00  0.00     0.013 C 
ENDBRANCH  20  22
ENDBRANCH   1  20
TORSDOF 7
ENDMDL
MODEL 9
REMARK VINA RESULT:      -5.6     11.279     13.943
REMARK  7 active torsions:
REMARK  status: ('A' for Active; 'I' for Inactive)
REMARK    1  A    between atoms: N_2  and  C_5 
REMARK    2  A    between atoms: C_3  and  C_4 
REMARK    3  A    between atoms: C_3  and  C_6 
REMARK    4  A    between atoms: C_3  and  C_7 
REMARK    5  A    between atoms: C_3  and  C_8 
REMARK    6  A    between atoms: C_4  and  C_5 
REMARK    7  A    between atoms: C_8  and  C_10 
ROOT
HETATM    1  C   UNK N   1      28.312  17.286   6.535  0.00  0.00     0.076 C 
ENDROOT
BRANCH   1   2
HETATM    2  C   UNK N   1      27.155  16.259   6.384  0.00  0.00     0.062 C 
BRANCH   2   3
HETATM    3  C   UNK N   1      26.423  16.303   5.040  0.00  0.00     0.219 C 
HETATM    4  C   UNK N   1      24.922  16.505   5.250  0.00  0.00     0.043 C 
BRANCH   3   5
HETATM    5  N   UNK N   1      26.758  15.147   4.198  0.00  0.00     0.084 N 
HETATM    6  C   UNK N   1      25.569  14.390   3.823  0.00  0.00     0.309 C 
HETATM    7  C   UNK N   1      27.401  15.616   2.981  0.00  0.00     0.309 C 
ENDBRANCH   3   5
ENDBRANCH   2   3
ENDBRANCH   1   2
BRANCH   1   8
HETATM    8  C   UNK N   1      27.803  18.648   6.014  0.00  0.00    -0.037 A 
HETATM    9  C   UNK N   1      27.465  19.675   6.918  0.00  0.00     0.009 A 
HETATM   10  C   UNK N   1      27.045  20.926   6.460  0.00  0.00     0.001 A 
HETATM   11  C   UNK N   1      26.961  21.177   5.090  0.00  0.00     0.000 A 
HETATM   12  C   UNK N   1      27.291  20.174   4.178  0.00  0.00     0.001 A 
HETATM   13  C   UNK N   1      27.710  18.922   4.635  0.00  0.00     0.009 A 
ENDBRANCH   1   8
BRANCH   1  14
HETATM   14  C   UNK N   1      29.558  16.776   5.808  0.00  0.00    -0.037 A 
HETATM   15  C   UNK N   1      30.384  17.633   5.059  0.00  0.00     0.009 A 
HETATM   16  C   UNK N   1      31.538  17.144   4.438  0.00  0.00     0.001 A 
HETATM   17  C   UNK N   1      31.879  15.794   4.555  0.00  0.00     0.000 A 
HETATM   18  C   UNK N   1      31.069  14.932   5.295  0.00  0.00     0.001 A 
HETATM   19  C   UNK N   1      29.919  15.419   5.921  0.00  0.00     0.009 A 
ENDBRANCH   1  14
BRANCH   1  20
HETATM   20  C   UNK N   1      28.700  17.385   8.013  0.00  0.00     0.144 C 
HETATM   21  O   UNK N   1      27.937  17.008   8.892  0.00  0.00    -0.296 OA
BRANCH  20  22
HETATM   22  C   UNK N   1      30.045  17.937   8.400  0.00  0.00     0.075 C 
HETATM   23  C   UNK N   1      29.935  18.799   9.642  0.00  0.00     0.013 C 
ENDBRANCH  20  22
ENDBRANCH   1  20
TORSDOF 7
ENDMDL
