REMARK  7 active torsions:
REMARK  status: ('A' for Active; 'I' for Inactive)
REMARK    1  A    between atoms: N_2  and  C_5 
REMARK    2  A    between atoms: C_3  and  C_4 
REMARK    3  A    between atoms: C_3  and  C_6 
REMARK    4  A    between atoms: C_3  and  C_7 
REMARK    5  A    between atoms: C_3  and  C_8 
REMARK    6  A    between atoms: C_4  and  C_5 
REMARK    7  A    between atoms: C_8  and  C_10 
ROOT
HETATM    1  C   UNK N   1       4.767   0.007   0.580  0.00  0.00     0.076 C 
ENDROOT
BRANCH   1   2
HETATM    2  C   UNK N   1       3.521   0.216   1.485  0.00  0.00     0.062 C 
BRANCH   2   3
HETATM    3  C   UNK N   1       2.192   0.342   0.736  0.00  0.00     0.219 C 
HETATM    4  C   UNK N   1       1.316   1.424   1.368  0.00  0.00     0.043 C 
BRANCH   3   5
HETATM    5  N   UNK N   1       1.523  -0.958   0.590  0.00  0.00     0.084 N 
HETATM    6  C   UNK N   1       0.888  -1.381   1.833  0.00  0.00     0.309 C 
HETATM    7  C   UNK N   1       0.495  -0.851  -0.433  0.00  0.00     0.309 C 
ENDBRANCH   3   5
ENDBRANCH   2   3
ENDBRANCH   1   2
BRANCH   1   8
HETATM    8  C   UNK N   1       4.930   1.269  -0.296  0.00  0.00    -0.037 A 
HETATM    9  C   UNK N   1       3.937   1.619  -1.233  0.00  0.00     0.009 A 
HETATM   10  C   UNK N   1       4.050   2.780  -2.000  0.00  0.00     0.001 A 
HETATM   11  C   UNK N   1       5.155   3.617  -1.842  0.00  0.00     0.000 A 
HETATM   12  C   UNK N   1       6.150   3.290  -0.920  0.00  0.00     0.001 A 
HETATM   13  C   UNK N   1       6.038   2.127  -0.153  0.00  0.00     0.009 A 
ENDBRANCH   1   8
BRANCH   1  14
HETATM   14  C   UNK N   1       4.614  -1.285  -0.226  0.00  0.00    -0.037 A 
HETATM   15  C   UNK N   1       4.727  -1.305  -1.627  0.00  0.00     0.009 A 
HETATM   16  C   UNK N   1       4.620  -2.508  -2.332  0.00  0.00     0.001 A 
HETATM   17  C   UNK N   1       4.398  -3.705  -1.646  0.00  0.00     0.000 A 
HETATM   18  C   UNK N   1       4.284  -3.701  -0.255  0.00  0.00     0.001 A 
HETATM   19  C   UNK N   1       4.396  -2.501   0.451  0.00  0.00     0.009 A 
ENDBRANCH   1  14
BRANCH   1  20
HETATM   20  C   UNK N   1       5.999  -0.196   1.467  0.00  0.00     0.144 C 
HETATM   21  O   UNK N   1       5.908  -0.172   2.687  0.00  0.00    -0.296 OA
BRANCH  20  22
HETATM   22  C   UNK N   1       7.343  -0.447   0.839  0.00  0.00     0.075 C 
HETATM   23  C   UNK N   1       7.840  -1.840   1.172  0.00  0.00     0.013 C 
ENDBRANCH  20  22
ENDBRANCH   1  20
TORSDOF 7
