MODEL 1
REMARK VINA RESULT:      -6.0      0.000      0.000
REMARK  9 active torsions:
REMARK  status: ('A' for Active; 'I' for Inactive)
REMARK    1  A    between atoms: O_1  and  C_9 
REMARK    2  A    between atoms: O_1  and  C_12 
REMARK    3  A    between atoms: O_2  and  C_7 
REMARK    4  A    between atoms: N_4  and  C_6 
REMARK    5  A    between atoms: N_4  and  C_8 
REMARK       I    between atoms: N_5  and  C_19 
REMARK    6  A    between atoms: C_6  and  C_7 
REMARK    7  A    between atoms: C_7  and  C_9 
REMARK    8  A    between atoms: C_13  and  C_18 
REMARK    9  A    between atoms: C_18  and  C_19 
ROOT
HETATM    1  C   UNK N   1      33.914  16.418   8.969  0.00  0.00     0.068 A 
HETATM    2  C   UNK N   1      31.333  17.353   8.351  0.00  0.00    -0.049 A 
HETATM    3  C   UNK N   1      33.735  17.710   8.475  0.00  0.00     0.037 A 
HETATM    4  C   UNK N   1      32.795  15.582   9.136  0.00  0.00     0.037 A 
HETATM    5  C   UNK N   1      32.454  18.175   8.170  0.00  0.00     0.010 A 
HETATM    6  C   UNK N   1      31.513  16.050   8.829  0.00  0.00     0.010 A 
ENDROOT
BRANCH   1   7
HETATM    7  O   UNK N   1      35.163  16.007   9.293  0.00  0.00    -0.349 OA
BRANCH   7   8
HETATM    8  C   UNK N   1      35.434  14.736   9.744  0.00  0.00     0.209 C 
BRANCH   8   9
HETATM    9  C   UNK N   1      36.754  14.736  10.486  0.00  0.00     0.159 C 
BRANCH   9  10
HETATM   10  O   UNK N   1      37.072  16.029  10.902  0.00  0.00    -0.392 OA
HETATM   11  H   UNK N   1      36.943  16.349  11.810  0.00  0.00     0.210 HD
ENDBRANCH   9  10
BRANCH   9  12
HETATM   12  C   UNK N   1      36.712  13.785  11.670  0.00  0.00     0.147 C 
BRANCH  12  13
HETATM   13  N   UNK N   1      36.646  14.513  12.929  0.00  0.00    -0.415 N 
HETATM   14  H   UNK N   1      36.653  15.526  13.050  0.00  0.00     0.153 HD
BRANCH  13  15
HETATM   15  C   UNK N   1      36.571  13.513  13.980  0.00  0.00     0.068 C 
HETATM   16  C   UNK N   1      36.874  14.159  15.314  0.00  0.00     0.031 C 
HETATM   17  C   UNK N   1      35.181  12.909  14.013  0.00  0.00     0.031 C 
ENDBRANCH  13  15
ENDBRANCH  12  13
ENDBRANCH   9  12
ENDBRANCH   8   9
ENDBRANCH   7   8
ENDBRANCH   1   7
BRANCH   2  18
HETATM   18  C   UNK N   1      29.925  17.829   8.090  0.00  0.00     0.141 C 
BRANCH  18  19
HETATM   19  C   UNK N   1      29.117  18.394   9.237  0.00  0.00     0.219 C 
HETATM   20  O   UNK N   1      29.649  18.845  10.237  0.00  0.00    -0.273 OA
HETATM   21  N   UNK N   1      27.773  18.389   9.151  0.00  0.00    -0.370 N 
HETATM   22  H   UNK N   1      27.231  18.729   9.900  0.00  0.00     0.159 HD
HETATM   23  H   UNK N   1      27.332  18.045   8.341  0.00  0.00     0.159 HD
ENDBRANCH  18  19
ENDBRANCH   2  18
TORSDOF 9
ENDMDL
MODEL 2
REMARK VINA RESULT:      -6.0      3.252      8.179
REMARK  9 active torsions:
REMARK  status: ('A' for Active; 'I' for Inactive)
REMARK    1  A    between atoms: O_1  and  C_9 
REMARK    2  A    between atoms: O_1  and  C_12 
REMARK    3  A    between atoms: O_2  and  C_7 
REMARK    4  A    between atoms: N_4  and  C_6 
REMARK    5  A    between atoms: N_4  and  C_8 
REMARK       I    between atoms: N_5  and  C_19 
REMARK    6  A    between atoms: C_6  and  C_7 
REMARK    7  A    between atoms: C_7  and  C_9 
REMARK    8  A    between atoms: C_13  and  C_18 
REMARK    9  A    between atoms: C_18  and  C_19 
ROOT
HETATM    1  C   UNK N   1      35.914  13.672  13.576  0.00  0.00     0.068 A 
HETATM    2  C   UNK N   1      35.470  12.902  16.246  0.00  0.00    -0.049 A 
HETATM    3  C   UNK N   1      36.686  14.217  14.601  0.00  0.00     0.037 A 
HETATM    4  C   UNK N   1      34.899  12.749  13.892  0.00  0.00     0.037 A 
HETATM    5  C   UNK N   1      36.466  13.835  15.926  0.00  0.00     0.010 A 
HETATM    6  C   UNK N   1      34.682  12.368  15.220  0.00  0.00     0.010 A 
ENDROOT
BRANCH   1   7
HETATM    7  O   UNK N   1      36.174  14.031  12.296  0.00  0.00    -0.349 OA
BRANCH   7   8
HETATM    8  C   UNK N   1      35.749  15.223  11.758  0.00  0.00     0.209 C 
BRANCH   8   9
HETATM    9  C   UNK N   1      34.731  14.951  10.670  0.00  0.00     0.159 C 
BRANCH   9  10
HETATM   10  O   UNK N   1      33.444  14.930  11.211  0.00  0.00    -0.392 OA
HETATM   11  H   UNK N   1      33.085  15.637  11.771  0.00  0.00     0.210 HD
ENDBRANCH   9  10
BRANCH   9  12
HETATM   12  C   UNK N   1      34.832  15.984   9.561  0.00  0.00     0.147 C 
BRANCH  12  13
HETATM   13  N   UNK N   1      33.986  17.136   9.834  0.00  0.00    -0.415 N 
HETATM   14  H   UNK N   1      33.883  17.620  10.726  0.00  0.00     0.153 HD
BRANCH  13  15
HETATM   15  C   UNK N   1      33.316  17.462   8.587  0.00  0.00     0.068 C 
HETATM   16  C   UNK N   1      34.339  17.571   7.478  0.00  0.00     0.031 C 
HETATM   17  C   UNK N   1      32.313  16.378   8.248  0.00  0.00     0.031 C 
ENDBRANCH  13  15
ENDBRANCH  12  13
ENDBRANCH   9  12
ENDBRANCH   8   9
ENDBRANCH   7   8
ENDBRANCH   1   7
BRANCH   2  18
HETATM   18  C   UNK N   1      35.233  12.415  17.654  0.00  0.00     0.141 C 
BRANCH  18  19
HETATM   19  C   UNK N   1      35.219  13.418  18.786  0.00  0.00     0.219 C 
HETATM   20  O   UNK N   1      35.186  14.619  18.578  0.00  0.00    -0.273 OA
HETATM   21  N   UNK N   1      35.252  12.969  20.055  0.00  0.00    -0.370 N 
HETATM   22  H   UNK N   1      35.269  13.609  20.803  0.00  0.00     0.159 HD
HETATM   23  H   UNK N   1      35.259  12.001  20.235  0.00  0.00     0.159 HD
ENDBRANCH  18  19
ENDBRANCH   2  18
TORSDOF 9
ENDMDL
MODEL 3
REMARK VINA RESULT:      -5.9      4.430      9.086
REMARK  9 active torsions:
REMARK  status: ('A' for Active; 'I' for Inactive)
REMARK    1  A    between atoms: O_1  and  C_9 
REMARK    2  A    between atoms: O_1  and  C_12 
REMARK    3  A    between atoms: O_2  and  C_7 
REMARK    4  A    between atoms: N_4  and  C_6 
REMARK    5  A    between atoms: N_4  and  C_8 
REMARK       I    between atoms: N_5  and  C_19 
REMARK    6  A    between atoms: C_6  and  C_7 
REMARK    7  A    between atoms: C_7  and  C_9 
REMARK    8  A    between atoms: C_13  and  C_18 
REMARK    9  A    between atoms: C_18  and  C_19 
ROOT
HETATM    1  C   UNK N   1      30.406  17.382   5.258  0.00  0.00     0.068 A 
HETATM    2  C   UNK N   1      32.961  17.311   6.436  0.00  0.00    -0.049 A 
HETATM    3  C   UNK N   1      31.547  17.522   4.469  0.00  0.00     0.037 A 
HETATM    4  C   UNK N   1      30.544  17.225   6.650  0.00  0.00     0.037 A 
HETATM    5  C   UNK N   1      32.815  17.486   5.052  0.00  0.00     0.010 A 
HETATM    6  C   UNK N   1      31.816  17.188   7.231  0.00  0.00     0.010 A 
ENDROOT
BRANCH   1   7
HETATM    7  O   UNK N   1      29.190  17.383   4.661  0.00  0.00    -0.349 OA
BRANCH   7   8
HETATM    8  C   UNK N   1      28.412  16.254   4.557  0.00  0.00     0.209 C 
BRANCH   8   9
HETATM    9  C   UNK N   1      27.086  16.490   5.249  0.00  0.00     0.159 C 
BRANCH   9  10
HETATM   10  O   UNK N   1      27.224  16.310   6.626  0.00  0.00    -0.392 OA
HETATM   11  H   UNK N   1      27.394  15.448   7.041  0.00  0.00     0.210 HD
ENDBRANCH   9  10
BRANCH   9  12
HETATM   12  C   UNK N   1      26.552  17.879   4.941  0.00  0.00     0.147 C 
BRANCH  12  13
HETATM   13  N   UNK N   1      26.898  18.824   5.993  0.00  0.00    -0.415 N 
HETATM   14  H   UNK N   1      27.236  18.598   6.928  0.00  0.00     0.153 HD
BRANCH  13  15
HETATM   15  C   UNK N   1      26.666  20.150   5.449  0.00  0.00     0.068 C 
HETATM   16  C   UNK N   1      27.516  21.157   6.192  0.00  0.00     0.031 C 
HETATM   17  C   UNK N   1      27.027  20.170   3.977  0.00  0.00     0.031 C 
ENDBRANCH  13  15
ENDBRANCH  12  13
ENDBRANCH   9  12
ENDBRANCH   8   9
ENDBRANCH   7   8
ENDBRANCH   1   7
BRANCH   2  18
HETATM   18  C   UNK N   1      34.310  17.206   7.104  0.00  0.00     0.141 C 
BRANCH  18  19
HETATM   19  C   UNK N   1      34.564  17.993   8.370  0.00  0.00     0.219 C 
HETATM   20  O   UNK N   1      34.934  19.154   8.341  0.00  0.00    -0.273 OA
HETATM   21  N   UNK N   1      34.383  17.389   9.560  0.00  0.00    -0.370 N 
HETATM   22  H   UNK N   1      34.568  17.879  10.394  0.00  0.00     0.159 HD
HETATM   23  H   UNK N   1      34.064  16.458   9.596  0.00  0.00     0.159 HD
ENDBRANCH  18  19
ENDBRANCH   2  18
TORSDOF 9
ENDMDL
MODEL 4
REMARK VINA RESULT:      -5.9      8.822     14.288
REMARK  9 active torsions:
REMARK  status: ('A' for Active; 'I' for Inactive)
REMARK    1  A    between atoms: O_1  and  C_9 
REMARK    2  A    between atoms: O_1  and  C_12 
REMARK    3  A    between atoms: O_2  and  C_7 
REMARK    4  A    between atoms: N_4  and  C_6 
REMARK    5  A    between atoms: N_4  and  C_8 
REMARK       I    between atoms: N_5  and  C_19 
REMARK    6  A    between atoms: C_6  and  C_7 
REMARK    7  A    between atoms: C_7  and  C_9 
REMARK    8  A    between atoms: C_13  and  C_18 
REMARK    9  A    between atoms: C_18  and  C_19 
ROOT
HETATM    1  C   UNK N   1      23.683  19.753   3.351  0.00  0.00     0.068 A 
HETATM    2  C   UNK N   1      26.382  19.670   4.144  0.00  0.00    -0.049 A 
HETATM    3  C   UNK N   1      24.090  18.888   4.366  0.00  0.00     0.037 A 
HETATM    4  C   UNK N   1      24.637  20.568   2.715  0.00  0.00     0.037 A 
HETATM    5  C   UNK N   1      25.428  18.847   4.761  0.00  0.00     0.010 A 
HETATM    6  C   UNK N   1      25.977  20.525   3.113  0.00  0.00     0.010 A 
ENDROOT
BRANCH   1   7
HETATM    7  O   UNK N   1      22.372  19.800   3.015  0.00  0.00    -0.349 OA
BRANCH   7   8
HETATM    8  C   UNK N   1      21.854  20.754   2.171  0.00  0.00     0.209 C 
BRANCH   8   9
HETATM    9  C   UNK N   1      20.613  20.210   1.496  0.00  0.00     0.159 C 
BRANCH   9  10
HETATM   10  O   UNK N   1      20.667  20.452   0.122  0.00  0.00    -0.392 OA
HETATM   11  H   UNK N   1      20.834  19.762  -0.540  0.00  0.00     0.210 HD
ENDBRANCH   9  10
BRANCH   9  12
HETATM   12  C   UNK N   1      20.451  18.724   1.773  0.00  0.00     0.147 C 
BRANCH  12  13
HETATM   13  N   UNK N   1      19.635  18.493   2.956  0.00  0.00    -0.415 N 
HETATM   14  H   UNK N   1      18.946  19.131   3.356  0.00  0.00     0.153 HD
BRANCH  13  15
HETATM   15  C   UNK N   1      19.995  17.178   3.455  0.00  0.00     0.068 C 
HETATM   16  C   UNK N   1      20.917  16.498   2.467  0.00  0.00     0.031 C 
HETATM   17  C   UNK N   1      20.694  17.312   4.792  0.00  0.00     0.031 C 
ENDBRANCH  13  15
ENDBRANCH  12  13
ENDBRANCH   9  12
ENDBRANCH   8   9
ENDBRANCH   7   8
ENDBRANCH   1   7
BRANCH   2  18
HETATM   18  C   UNK N   1      27.828  19.704   4.574  0.00  0.00     0.141 C 
BRANCH  18  19
HETATM   19  C   UNK N   1      28.582  18.401   4.716  0.00  0.00     0.219 C 
HETATM   20  O   UNK N   1      29.049  18.042   5.784  0.00  0.00    -0.273 OA
HETATM   21  N   UNK N   1      28.748  17.623   3.629  0.00  0.00    -0.370 N 
HETATM   22  H   UNK N   1      29.258  16.784   3.698  0.00  0.00     0.159 HD
HETATM   23  H   UNK N   1      28.358  17.893   2.766  0.00  0.00     0.159 HD
ENDBRANCH  18  19
ENDBRANCH   2  18
TORSDOF 9
ENDMDL
MODEL 5
REMARK VINA RESULT:      -5.7      5.567      9.586
REMARK  9 active torsions:
REMARK  status: ('A' for Active; 'I' for Inactive)
REMARK    1  A    between atoms: O_1  and  C_9 
REMARK    2  A    between atoms: O_1  and  C_12 
REMARK    3  A    between atoms: O_2  and  C_7 
REMARK    4  A    between atoms: N_4  and  C_6 
REMARK    5  A    between atoms: N_4  and  C_8 
REMARK       I    between atoms: N_5  and  C_19 
REMARK    6  A    between atoms: C_6  and  C_7 
REMARK    7  A    between atoms: C_7  and  C_9 
REMARK    8  A    between atoms: C_13  and  C_18 
REMARK    9  A    between atoms: C_18  and  C_19 
ROOT
HETATM    1  C   UNK N   1      35.219  12.798  16.419  0.00  0.00     0.068 A 
HETATM    2  C   UNK N   1      35.428  11.550  18.932  0.00  0.00    -0.049 A 
HETATM    3  C   UNK N   1      35.457  11.427  16.504  0.00  0.00     0.037 A 
HETATM    4  C   UNK N   1      35.104  13.554  17.600  0.00  0.00     0.037 A 
HETATM    5  C   UNK N   1      35.560  10.807  17.751  0.00  0.00     0.010 A 
HETATM    6  C   UNK N   1      35.207  12.930  18.848  0.00  0.00     0.010 A 
ENDROOT
BRANCH   1   7
HETATM    7  O   UNK N   1      35.086  13.366  15.196  0.00  0.00    -0.349 OA
BRANCH   7   8
HETATM    8  C   UNK N   1      36.139  13.939  14.524  0.00  0.00     0.209 C 
BRANCH   8   9
HETATM    9  C   UNK N   1      35.747  14.175  13.080  0.00  0.00     0.159 C 
BRANCH   9  10
HETATM   10  O   UNK N   1      36.557  15.163  12.517  0.00  0.00    -0.392 OA
HETATM   11  H   UNK N   1      37.210  14.990  11.820  0.00  0.00     0.210 HD
ENDBRANCH   9  10
BRANCH   9  12
HETATM   12  C   UNK N   1      35.831  12.889  12.276  0.00  0.00     0.147 C 
BRANCH  12  13
HETATM   13  N   UNK N   1      34.519  12.279  12.117  0.00  0.00    -0.415 N 
HETATM   14  H   UNK N   1      33.656  12.749  11.842  0.00  0.00     0.153 HD
BRANCH  13  15
HETATM   15  C   UNK N   1      34.679  10.869  12.426  0.00  0.00     0.068 C 
HETATM   16  C   UNK N   1      36.124  10.589  12.775  0.00  0.00     0.031 C 
HETATM   17  C   UNK N   1      33.793  10.499  13.599  0.00  0.00     0.031 C 
ENDBRANCH  13  15
ENDBRANCH  12  13
ENDBRANCH   9  12
ENDBRANCH   8   9
ENDBRANCH   7   8
ENDBRANCH   1   7
BRANCH   2  18
HETATM   18  C   UNK N   1      35.473  10.918  20.301  0.00  0.00     0.141 C 
BRANCH  18  19
HETATM   19  C   UNK N   1      34.194  10.383  20.905  0.00  0.00     0.219 C 
HETATM   20  O   UNK N   1      33.695   9.335  20.529  0.00  0.00    -0.273 OA
HETATM   21  N   UNK N   1      33.589  11.088  21.879  0.00  0.00    -0.370 N 
HETATM   22  H   UNK N   1      32.742  10.767  22.266  0.00  0.00     0.159 HD
HETATM   23  H   UNK N   1      33.993  11.925  22.205  0.00  0.00     0.159 HD
ENDBRANCH  18  19
ENDBRANCH   2  18
TORSDOF 9
ENDMDL
MODEL 6
REMARK VINA RESULT:      -5.6     11.302     15.115
REMARK  9 active torsions:
REMARK  status: ('A' for Active; 'I' for Inactive)
REMARK    1  A    between atoms: O_1  and  C_9 
REMARK    2  A    between atoms: O_1  and  C_12 
REMARK    3  A    between atoms: O_2  and  C_7 
REMARK    4  A    between atoms: N_4  and  C_6 
REMARK    5  A    between atoms: N_4  and  C_8 
REMARK       I    between atoms: N_5  and  C_19 
REMARK    6  A    between atoms: C_6  and  C_7 
REMARK    7  A    between atoms: C_7  and  C_9 
REMARK    8  A    between atoms: C_13  and  C_18 
REMARK    9  A    between atoms: C_18  and  C_19 
ROOT
HETATM    1  C   UNK N   1      20.731  14.648   8.310  0.00  0.00     0.068 A 
HETATM    2  C   UNK N   1      22.128  12.677   9.753  0.00  0.00    -0.049 A 
HETATM    3  C   UNK N   1      21.908  14.103   7.796  0.00  0.00     0.037 A 
HETATM    4  C   UNK N   1      20.261  14.217   9.564  0.00  0.00     0.037 A 
HETATM    5  C   UNK N   1      22.600  13.125   8.511  0.00  0.00     0.010 A 
HETATM    6  C   UNK N   1      20.957  13.236  10.278  0.00  0.00     0.010 A 
ENDROOT
BRANCH   1   7
HETATM    7  O   UNK N   1      20.059  15.568   7.578  0.00  0.00    -0.349 OA
BRANCH   7   8
HETATM    8  C   UNK N   1      20.342  15.816   6.255  0.00  0.00     0.209 C 
BRANCH   8   9
HETATM    9  C   UNK N   1      19.223  15.274   5.390  0.00  0.00     0.159 C 
BRANCH   9  10
HETATM   10  O   UNK N   1      18.021  15.910   5.705  0.00  0.00    -0.392 OA
HETATM   11  H   UNK N   1      17.367  16.183   5.040  0.00  0.00     0.210 HD
ENDBRANCH   9  10
BRANCH   9  12
HETATM   12  C   UNK N   1      19.548  15.437   3.915  0.00  0.00     0.147 C 
BRANCH  12  13
HETATM   13  N   UNK N   1      19.315  16.804   3.472  0.00  0.00    -0.415 N 
HETATM   14  H   UNK N   1      18.488  17.373   3.655  0.00  0.00     0.153 HD
BRANCH  13  15
HETATM   15  C   UNK N   1      20.490  17.198   2.715  0.00  0.00     0.068 C 
HETATM   16  C   UNK N   1      20.129  17.329   1.252  0.00  0.00     0.031 C 
HETATM   17  C   UNK N   1      21.009  18.525   3.230  0.00  0.00     0.031 C 
ENDBRANCH  13  15
ENDBRANCH  12  13
ENDBRANCH   9  12
ENDBRANCH   8   9
ENDBRANCH   7   8
ENDBRANCH   1   7
BRANCH   2  18
HETATM   18  C   UNK N   1      22.809  11.581  10.536  0.00  0.00     0.141 C 
BRANCH  18  19
HETATM   19  C   UNK N   1      23.772  11.956  11.639  0.00  0.00     0.219 C 
HETATM   20  O   UNK N   1      24.957  12.144  11.420  0.00  0.00    -0.273 OA
HETATM   21  N   UNK N   1      23.307  12.079  12.896  0.00  0.00    -0.370 N 
HETATM   22  H   UNK N   1      23.925  12.298  13.630  0.00  0.00     0.159 HD
HETATM   23  H   UNK N   1      22.349  11.950  13.081  0.00  0.00     0.159 HD
ENDBRANCH  18  19
ENDBRANCH   2  18
TORSDOF 9
ENDMDL
MODEL 7
REMARK VINA RESULT:      -5.6      3.715      9.246
REMARK  9 active torsions:
REMARK  status: ('A' for Active; 'I' for Inactive)
REMARK    1  A    between atoms: O_1  and  C_9 
REMARK    2  A    between atoms: O_1  and  C_12 
REMARK    3  A    between atoms: O_2  and  C_7 
REMARK    4  A    between atoms: N_4  and  C_6 
REMARK    5  A    between atoms: N_4  and  C_8 
REMARK       I    between atoms: N_5  and  C_19 
REMARK    6  A    between atoms: C_6  and  C_7 
REMARK    7  A    between atoms: C_7  and  C_9 
REMARK    8  A    between atoms: C_13  and  C_18 
REMARK    9  A    between atoms: C_18  and  C_19 
ROOT
HETATM    1  C   UNK N   1      30.860  17.099   6.128  0.00  0.00     0.068 A 
HETATM    2  C   UNK N   1      33.194  17.659   7.596  0.00  0.00    -0.049 A 
HETATM    3  C   UNK N   1      30.792  17.297   7.507  0.00  0.00     0.037 A 
HETATM    4  C   UNK N   1      32.109  17.162   5.483  0.00  0.00     0.037 A 
HETATM    5  C   UNK N   1      31.949  17.576   8.235  0.00  0.00     0.010 A 
HETATM    6  C   UNK N   1      33.266  17.442   6.216  0.00  0.00     0.010 A 
ENDROOT
BRANCH   1   7
HETATM    7  O   UNK N   1      29.716  16.868   5.441  0.00  0.00    -0.349 OA
BRANCH   7   8
HETATM    8  C   UNK N   1      28.629  16.234   5.997  0.00  0.00     0.209 C 
BRANCH   8   9
HETATM    9  C   UNK N   1      27.361  16.946   5.575  0.00  0.00     0.159 C 
BRANCH   9  10
HETATM   10  O   UNK N   1      26.323  16.645   6.459  0.00  0.00    -0.392 OA
HETATM   11  H   UNK N   1      25.821  15.814   6.436  0.00  0.00     0.210 HD
ENDBRANCH   9  10
BRANCH   9  12
HETATM   12  C   UNK N   1      27.581  18.447   5.495  0.00  0.00     0.147 C 
BRANCH  12  13
HETATM   13  N   UNK N   1      27.906  18.862   4.138  0.00  0.00    -0.415 N 
HETATM   14  H   UNK N   1      28.530  18.386   3.488  0.00  0.00     0.153 HD
BRANCH  13  15
HETATM   15  C   UNK N   1      27.166  20.088   3.894  0.00  0.00     0.068 C 
HETATM   16  C   UNK N   1      25.773  19.750   3.410  0.00  0.00     0.031 C 
HETATM   17  C   UNK N   1      27.078  20.896   5.173  0.00  0.00     0.031 C 
ENDBRANCH  13  15
ENDBRANCH  12  13
ENDBRANCH   9  12
ENDBRANCH   8   9
ENDBRANCH   7   8
ENDBRANCH   1   7
BRANCH   2  18
HETATM   18  C   UNK N   1      34.464  18.015   8.331  0.00  0.00     0.141 C 
BRANCH  18  19
HETATM   19  C   UNK N   1      34.975  17.084   9.406  0.00  0.00     0.219 C 
HETATM   20  O   UNK N   1      35.461  17.505  10.443  0.00  0.00    -0.273 OA
HETATM   21  N   UNK N   1      34.898  15.755   9.208  0.00  0.00    -0.370 N 
HETATM   22  H   UNK N   1      35.250  15.134   9.886  0.00  0.00     0.159 HD
HETATM   23  H   UNK N   1      34.490  15.403   8.384  0.00  0.00     0.159 HD
ENDBRANCH  18  19
ENDBRANCH   2  18
TORSDOF 9
ENDMDL
MODEL 8
REMARK VINA RESULT:      -5.5      4.927      9.597
REMARK  9 active torsions:
REMARK  status: ('A' for Active; 'I' for Inactive)
REMARK    1  A    between atoms: O_1  and  C_9 
REMARK    2  A    between atoms: O_1  and  C_12 
REMARK    3  A    between atoms: O_2  and  C_7 
REMARK    4  A    between atoms: N_4  and  C_6 
REMARK    5  A    between atoms: N_4  and  C_8 
REMARK       I    between atoms: N_5  and  C_19 
REMARK    6  A    between atoms: C_6  and  C_7 
REMARK    7  A    between atoms: C_7  and  C_9 
REMARK    8  A    between atoms: C_13  and  C_18 
REMARK    9  A    between atoms: C_18  and  C_19 
ROOT
HETATM    1  C   UNK N   1      34.852  12.587  16.146  0.00  0.00     0.068 A 
HETATM    2  C   UNK N   1      35.341  11.626  18.745  0.00  0.00    -0.049 A 
HETATM    3  C   UNK N   1      34.933  13.474  17.218  0.00  0.00     0.037 A 
HETATM    4  C   UNK N   1      34.998  11.207  16.379  0.00  0.00     0.037 A 
HETATM    5  C   UNK N   1      35.177  12.998  18.508  0.00  0.00     0.010 A 
HETATM    6  C   UNK N   1      35.242  10.733  17.672  0.00  0.00     0.010 A 
ENDROOT
BRANCH   1   7
HETATM    7  O   UNK N   1      34.653  13.079  14.900  0.00  0.00    -0.349 OA
BRANCH   7   8
HETATM    8  C   UNK N   1      35.554  12.899  13.876  0.00  0.00     0.209 C 
BRANCH   8   9
HETATM    9  C   UNK N   1      35.971  14.248  13.329  0.00  0.00     0.159 C 
BRANCH   9  10
HETATM   10  O   UNK N   1      36.934  14.826  14.157  0.00  0.00    -0.392 OA
HETATM   11  H   UNK N   1      37.639  15.412  13.836  0.00  0.00     0.210 HD
ENDBRANCH   9  10
BRANCH   9  12
HETATM   12  C   UNK N   1      36.493  14.119  11.907  0.00  0.00     0.147 C 
BRANCH  12  13
HETATM   13  N   UNK N   1      36.489  15.405  11.225  0.00  0.00    -0.415 N 
HETATM   14  H   UNK N   1      37.288  16.022  11.082  0.00  0.00     0.153 HD
BRANCH  13  15
HETATM   15  C   UNK N   1      35.123  15.637  10.789  0.00  0.00     0.068 C 
HETATM   16  C   UNK N   1      35.054  16.934  10.014  0.00  0.00     0.031 C 
HETATM   17  C   UNK N   1      34.667  14.493   9.906  0.00  0.00     0.031 C 
ENDBRANCH  13  15
ENDBRANCH  12  13
ENDBRANCH   9  12
ENDBRANCH   8   9
ENDBRANCH   7   8
ENDBRANCH   1   7
BRANCH   2  18
HETATM   18  C   UNK N   1      35.663  11.069  20.110  0.00  0.00     0.141 C 
BRANCH  18  19
HETATM   19  C   UNK N   1      34.604  10.286  20.852  0.00  0.00     0.219 C 
HETATM   20  O   UNK N   1      34.471   9.083  20.702  0.00  0.00    -0.273 OA
HETATM   21  N   UNK N   1      33.782  10.940  21.695  0.00  0.00    -0.370 N 
HETATM   22  H   UNK N   1      33.070  10.450  22.167  0.00  0.00     0.159 HD
HETATM   23  H   UNK N   1      33.893  11.907  21.840  0.00  0.00     0.159 HD
ENDBRANCH  18  19
ENDBRANCH   2  18
TORSDOF 9
ENDMDL
MODEL 9
REMARK VINA RESULT:      -5.4      5.642      9.132
REMARK  9 active torsions:
REMARK  status: ('A' for Active; 'I' for Inactive)
REMARK    1  A    between atoms: O_1  and  C_9 
REMARK    2  A    between atoms: O_1  and  C_12 
REMARK    3  A    between atoms: O_2  and  C_7 
REMARK    4  A    between atoms: N_4  and  C_6 
REMARK    5  A    between atoms: N_4  and  C_8 
REMARK       I    between atoms: N_5  and  C_19 
REMARK    6  A    between atoms: C_6  and  C_7 
REMARK    7  A    between atoms: C_7  and  C_9 
REMARK    8  A    between atoms: C_13  and  C_18 
REMARK    9  A    between atoms: C_18  and  C_19 
ROOT
HETATM    1  C   UNK N   1      34.920  12.570  15.433  0.00  0.00     0.068 A 
HETATM    2  C   UNK N   1      35.067  10.946  17.726  0.00  0.00    -0.049 A 
HETATM    3  C   UNK N   1      35.144  13.142  16.685  0.00  0.00     0.037 A 
HETATM    4  C   UNK N   1      34.749  11.177  15.330  0.00  0.00     0.037 A 
HETATM    5  C   UNK N   1      35.218  12.336  17.822  0.00  0.00     0.010 A 
HETATM    6  C   UNK N   1      34.824  10.373  16.472  0.00  0.00     0.010 A 
ENDROOT
BRANCH   1   7
HETATM    7  O   UNK N   1      34.891  13.372  14.341  0.00  0.00    -0.349 OA
BRANCH   7   8
HETATM    8  C   UNK N   1      35.968  14.132  13.949  0.00  0.00     0.209 C 
BRANCH   8   9
HETATM    9  C   UNK N   1      36.053  14.143  12.437  0.00  0.00     0.159 C 
BRANCH   9  10
HETATM   10  O   UNK N   1      36.444  15.404  11.985  0.00  0.00    -0.392 OA
HETATM   11  H   UNK N   1      35.930  16.214  12.138  0.00  0.00     0.210 HD
ENDBRANCH   9  10
BRANCH   9  12
HETATM   12  C   UNK N   1      37.010  13.073  11.939  0.00  0.00     0.147 C 
BRANCH  12  13
HETATM   13  N   UNK N   1      37.606  12.341  13.047  0.00  0.00    -0.415 N 
HETATM   14  H   UNK N   1      37.936  12.731  13.929  0.00  0.00     0.153 HD
BRANCH  13  15
HETATM   15  C   UNK N   1      37.639  10.945  12.647  0.00  0.00     0.068 C 
HETATM   16  C   UNK N   1      38.006  10.087  13.838  0.00  0.00     0.031 C 
HETATM   17  C   UNK N   1      36.279  10.530  12.123  0.00  0.00     0.031 C 
ENDBRANCH  13  15
ENDBRANCH  12  13
ENDBRANCH   9  12
ENDBRANCH   8   9
ENDBRANCH   7   8
ENDBRANCH   1   7
BRANCH   2  18
HETATM   18  C   UNK N   1      35.197  10.028  18.917  0.00  0.00     0.141 C 
BRANCH  18  19
HETATM   19  C   UNK N   1      35.222  10.627  20.305  0.00  0.00     0.219 C 
HETATM   20  O   UNK N   1      34.202  10.784  20.955  0.00  0.00    -0.273 OA
HETATM   21  N   UNK N   1      36.403  11.002  20.831  0.00  0.00    -0.370 N 
HETATM   22  H   UNK N   1      36.435  11.417  21.723  0.00  0.00     0.159 HD
HETATM   23  H   UNK N   1      37.235  10.861  20.324  0.00  0.00     0.159 HD
ENDBRANCH  18  19
ENDBRANCH   2  18
TORSDOF 9
ENDMDL
