MODEL 1
REMARK VINA RESULT:      -6.3      0.000      0.000
REMARK  3 active torsions:
REMARK  status: ('A' for Active; 'I' for Inactive)
REMARK    1  A    between atoms: N_5  and  C_12 
REMARK    2  A    between atoms: N_6  and  N_8 
REMARK       I    between atoms: N_8  and  C_15 
REMARK       I    between atoms: N_9  and  C_15 
REMARK    3  A    between atoms: C_10  and  C_14 
ROOT
HETATM    1  N   UNK N   1      36.288  14.516  12.248  0.00  0.00    -0.305 N 
ATOM      2  HN  UNK N   1      36.243  13.896  11.438  1.00  0.00     0.186 HD
HETATM    3  C   UNK N   1      35.836  15.711  12.145  0.00  0.00     0.144 C 
ENDROOT
BRANCH   1   4
HETATM    4  N   UNK N   1      36.830  14.049  13.416  0.00  0.00    -0.252 N 
HETATM    5  C   UNK N   1      36.036  13.438  14.326  0.00  0.00     0.332 C 
HETATM    6  O   UNK N   1      34.840  13.302  14.109  0.00  0.00    -0.246 OA
HETATM    7  N   UNK N   1      36.562  12.977  15.475  0.00  0.00    -0.351 N 
HETATM    8  H   UNK N   1      37.525  13.083  15.654  0.00  0.00     0.160 HD
HETATM    9  H   UNK N   1      35.985  12.532  16.137  0.00  0.00     0.160 HD
HETATM   10  H   UNK N   1      37.793  14.156  13.593  0.00  0.00     0.191 HD
ENDBRANCH   1   4
BRANCH   3  11
HETATM   11  C   UNK N   1      35.271  16.130  10.858  0.00  0.00     0.095 A 
HETATM   12  O   UNK N   1      35.516  17.269  10.259  0.00  0.00    -0.287 OA
HETATM   13  C   UNK N   1      34.838  17.290   9.135  0.00  0.00     0.215 A 
HETATM   14  C   UNK N   1      34.115  16.123   8.980  0.00  0.00     0.065 A 
HETATM   15  C   UNK N   1      34.397  15.369  10.101  0.00  0.00     0.043 A 
BRANCH  13  16
HETATM   16  N   UNK N   1      34.847  18.360   8.212  0.00  0.00    -0.090 N 
HETATM   17  O   UNK N   1      34.347  18.198   7.006  0.00  0.00    -0.530 OA
HETATM   18  O   UNK N   1      35.309  19.417   8.523  0.00  0.00    -0.530 OA
ENDBRANCH  13  16
ENDBRANCH   3  11
TORSDOF 3
ENDMDL
MODEL 2
REMARK VINA RESULT:      -5.7      8.895     10.828
REMARK  3 active torsions:
REMARK  status: ('A' for Active; 'I' for Inactive)
REMARK    1  A    between atoms: N_5  and  C_12 
REMARK    2  A    between atoms: N_6  and  N_8 
REMARK       I    between atoms: N_8  and  C_15 
REMARK       I    between atoms: N_9  and  C_15 
REMARK    3  A    between atoms: C_10  and  C_14 
ROOT
HETATM    1  N   UNK N   1      27.424  18.942   7.603  0.00  0.00    -0.305 N 
ATOM      2  HN  UNK N   1      27.000  18.137   7.141  1.00  0.00     0.186 HD
HETATM    3  C   UNK N   1      27.491  20.058   6.975  0.00  0.00     0.144 C 
ENDROOT
BRANCH   1   4
HETATM    4  N   UNK N   1      27.908  18.802   8.877  0.00  0.00    -0.252 N 
HETATM    5  C   UNK N   1      29.175  18.366   9.068  0.00  0.00     0.332 C 
HETATM    6  O   UNK N   1      29.887  18.098   8.111  0.00  0.00    -0.246 OA
HETATM    7  N   UNK N   1      29.656  18.226  10.317  0.00  0.00    -0.351 N 
HETATM    8  H   UNK N   1      29.087  18.440  11.091  0.00  0.00     0.160 HD
HETATM    9  H   UNK N   1      30.577  17.909  10.457  0.00  0.00     0.160 HD
HETATM   10  H   UNK N   1      27.337  19.016   9.650  0.00  0.00     0.191 HD
ENDBRANCH   1   4
BRANCH   3  11
HETATM   11  C   UNK N   1      26.949  20.121   5.614  0.00  0.00     0.095 A 
HETATM   12  O   UNK N   1      25.681  20.247   5.308  0.00  0.00    -0.287 OA
HETATM   13  C   UNK N   1      25.581  20.267   4.000  0.00  0.00     0.215 A 
HETATM   14  C   UNK N   1      26.825  20.151   3.413  0.00  0.00     0.065 A 
HETATM   15  C   UNK N   1      27.716  20.056   4.463  0.00  0.00     0.043 A 
BRANCH  13  16
HETATM   16  N   UNK N   1      24.364  20.391   3.291  0.00  0.00    -0.090 N 
HETATM   17  O   UNK N   1      23.255  19.887   3.789  0.00  0.00    -0.530 OA
HETATM   18  O   UNK N   1      24.337  20.952   2.237  0.00  0.00    -0.530 OA
ENDBRANCH  13  16
ENDBRANCH   3  11
TORSDOF 3
ENDMDL
MODEL 3
REMARK VINA RESULT:      -5.5      4.151      5.298
REMARK  3 active torsions:
REMARK  status: ('A' for Active; 'I' for Inactive)
REMARK    1  A    between atoms: N_5  and  C_12 
REMARK    2  A    between atoms: N_6  and  N_8 
REMARK       I    between atoms: N_8  and  C_15 
REMARK       I    between atoms: N_9  and  C_15 
REMARK    3  A    between atoms: C_10  and  C_14 
ROOT
HETATM    1  N   UNK N   1      33.531  17.029   9.588  0.00  0.00    -0.305 N 
ATOM      2  HN  UNK N   1      32.808  16.582  10.151  1.00  0.00     0.186 HD
HETATM    3  C   UNK N   1      33.202  17.603   8.490  0.00  0.00     0.144 C 
ENDROOT
BRANCH   1   4
HETATM    4  N   UNK N   1      34.829  17.001  10.025  0.00  0.00    -0.252 N 
HETATM    5  C   UNK N   1      35.241  15.999  10.836  0.00  0.00     0.332 C 
HETATM    6  O   UNK N   1      34.461  15.121  11.179  0.00  0.00    -0.246 OA
HETATM    7  N   UNK N   1      36.514  15.964  11.269  0.00  0.00    -0.351 N 
HETATM    8  H   UNK N   1      37.147  16.668  10.996  0.00  0.00     0.160 HD
HETATM    9  H   UNK N   1      36.815  15.236  11.858  0.00  0.00     0.160 HD
HETATM   10  H   UNK N   1      35.460  17.705   9.751  0.00  0.00     0.191 HD
ENDBRANCH   1   4
BRANCH   3  11
HETATM   11  C   UNK N   1      31.789  17.587   8.096  0.00  0.00     0.095 A 
HETATM   12  O   UNK N   1      30.807  18.123   8.777  0.00  0.00    -0.287 OA
HETATM   13  C   UNK N   1      29.693  17.910   8.117  0.00  0.00     0.215 A 
HETATM   14  C   UNK N   1      29.941  17.208   6.954  0.00  0.00     0.065 A 
HETATM   15  C   UNK N   1      31.305  16.997   6.941  0.00  0.00     0.043 A 
BRANCH  13  16
HETATM   16  N   UNK N   1      28.415  18.342   8.539  0.00  0.00    -0.090 N 
HETATM   17  O   UNK N   1      27.779  17.694   9.492  0.00  0.00    -0.530 OA
HETATM   18  O   UNK N   1      27.906  19.298   8.034  0.00  0.00    -0.530 OA
ENDBRANCH  13  16
ENDBRANCH   3  11
TORSDOF 3
ENDMDL
MODEL 4
REMARK VINA RESULT:      -5.4      1.906      6.993
REMARK  3 active torsions:
REMARK  status: ('A' for Active; 'I' for Inactive)
REMARK    1  A    between atoms: N_5  and  C_12 
REMARK    2  A    between atoms: N_6  and  N_8 
REMARK       I    between atoms: N_8  and  C_15 
REMARK       I    between atoms: N_9  and  C_15 
REMARK    3  A    between atoms: C_10  and  C_14 
ROOT
HETATM    1  N   UNK N   1      34.514  15.492  11.344  0.00  0.00    -0.305 N 
ATOM      2  HN  UNK N   1      34.556  16.166  12.108  1.00  0.00     0.186 HD
HETATM    3  C   UNK N   1      34.839  14.273  11.568  0.00  0.00     0.144 C 
ENDROOT
BRANCH   1   4
HETATM    4  N   UNK N   1      34.111  15.914  10.104  0.00  0.00    -0.252 N 
HETATM    5  C   UNK N   1      34.693  17.001   9.545  0.00  0.00     0.332 C 
HETATM    6  O   UNK N   1      35.573  17.605  10.140  0.00  0.00    -0.246 OA
HETATM    7  N   UNK N   1      34.302  17.420   8.328  0.00  0.00    -0.351 N 
HETATM    8  H   UNK N   1      33.593  16.937   7.844  0.00  0.00     0.160 HD
HETATM    9  H   UNK N   1      34.724  18.210   7.920  0.00  0.00     0.160 HD
HETATM   10  H   UNK N   1      33.402  15.430   9.622  0.00  0.00     0.191 HD
ENDBRANCH   1   4
BRANCH   3  11
HETATM   11  C   UNK N   1      35.259  13.906  12.925  0.00  0.00     0.095 A 
HETATM   12  O   UNK N   1      34.622  13.081  13.718  0.00  0.00    -0.287 OA
HETATM   13  C   UNK N   1      35.293  13.000  14.843  0.00  0.00     0.215 A 
HETATM   14  C   UNK N   1      36.418  13.800  14.798  0.00  0.00     0.065 A 
HETATM   15  C   UNK N   1      36.396  14.389  13.550  0.00  0.00     0.043 A 
BRANCH  13  16
HETATM   16  N   UNK N   1      34.915  12.203  15.948  0.00  0.00    -0.090 N 
HETATM   17  O   UNK N   1      34.926  12.709  17.162  0.00  0.00    -0.530 OA
HETATM   18  O   UNK N   1      34.584  11.068  15.783  0.00  0.00    -0.530 OA
ENDBRANCH  13  16
ENDBRANCH   3  11
TORSDOF 3
ENDMDL
MODEL 5
REMARK VINA RESULT:      -5.3      2.466      3.059
REMARK  3 active torsions:
REMARK  status: ('A' for Active; 'I' for Inactive)
REMARK    1  A    between atoms: N_5  and  C_12 
REMARK    2  A    between atoms: N_6  and  N_8 
REMARK       I    between atoms: N_8  and  C_15 
REMARK       I    between atoms: N_9  and  C_15 
REMARK    3  A    between atoms: C_10  and  C_14 
ROOT
HETATM    1  N   UNK N   1      35.239  16.228  11.259  0.00  0.00    -0.305 N 
ATOM      2  HN  UNK N   1      34.435  16.686  11.687  1.00  0.00     0.186 HD
HETATM    3  C   UNK N   1      35.338  16.207   9.981  0.00  0.00     0.144 C 
ENDROOT
BRANCH   1   4
HETATM    4  N   UNK N   1      36.187  15.651  12.064  0.00  0.00    -0.252 N 
HETATM    5  C   UNK N   1      35.900  14.501  12.716  0.00  0.00     0.332 C 
HETATM    6  O   UNK N   1      34.803  13.976  12.590  0.00  0.00    -0.246 OA
HETATM    7  N   UNK N   1      36.825  13.929  13.508  0.00  0.00    -0.351 N 
HETATM    8  H   UNK N   1      37.710  14.348  13.613  0.00  0.00     0.160 HD
HETATM    9  H   UNK N   1      36.617  13.093  13.983  0.00  0.00     0.160 HD
HETATM   10  H   UNK N   1      37.071  16.071  12.167  0.00  0.00     0.191 HD
ENDBRANCH   1   4
BRANCH   3  11
HETATM   11  C   UNK N   1      34.279  16.848   9.193  0.00  0.00     0.095 A 
HETATM   12  O   UNK N   1      33.032  16.451   9.136  0.00  0.00    -0.287 OA
HETATM   13  C   UNK N   1      32.385  17.265   8.336  0.00  0.00     0.215 A 
HETATM   14  C   UNK N   1      33.230  18.239   7.842  0.00  0.00     0.065 A 
HETATM   15  C   UNK N   1      34.463  17.968   8.400  0.00  0.00     0.043 A 
BRANCH  13  16
HETATM   16  N   UNK N   1      31.010  17.158   8.023  0.00  0.00    -0.090 N 
HETATM   17  O   UNK N   1      30.138  17.962   8.593  0.00  0.00    -0.530 OA
HETATM   18  O   UNK N   1      30.635  16.337   7.241  0.00  0.00    -0.530 OA
ENDBRANCH  13  16
ENDBRANCH   3  11
TORSDOF 3
ENDMDL
MODEL 6
REMARK VINA RESULT:      -5.3      4.930      8.265
REMARK  3 active torsions:
REMARK  status: ('A' for Active; 'I' for Inactive)
REMARK    1  A    between atoms: N_5  and  C_12 
REMARK    2  A    between atoms: N_6  and  N_8 
REMARK       I    between atoms: N_8  and  C_15 
REMARK       I    between atoms: N_9  and  C_15 
REMARK    3  A    between atoms: C_10  and  C_14 
ROOT
HETATM    1  N   UNK N   1      29.510  17.665   6.240  0.00  0.00    -0.305 N 
ATOM      2  HN  UNK N   1      29.894  18.517   5.831  1.00  0.00     0.186 HD
HETATM    3  C   UNK N   1      30.297  16.854   6.844  0.00  0.00     0.144 C 
ENDROOT
BRANCH   1   4
HETATM    4  N   UNK N   1      28.167  17.419   6.130  0.00  0.00    -0.252 N 
HETATM    5  C   UNK N   1      27.339  18.398   5.698  0.00  0.00     0.332 C 
HETATM    6  O   UNK N   1      27.785  19.499   5.405  0.00  0.00    -0.246 OA
HETATM    7  N   UNK N   1      26.019  18.163   5.588  0.00  0.00    -0.351 N 
HETATM    8  H   UNK N   1      25.655  17.278   5.822  0.00  0.00     0.160 HD
HETATM    9  H   UNK N   1      25.417  18.875   5.273  0.00  0.00     0.160 HD
HETATM   10  H   UNK N   1      27.804  16.534   6.365  0.00  0.00     0.191 HD
ENDBRANCH   1   4
BRANCH   3  11
HETATM   11  C   UNK N   1      31.722  17.194   6.915  0.00  0.00     0.095 A 
HETATM   12  O   UNK N   1      32.361  17.553   8.001  0.00  0.00    -0.287 OA
HETATM   13  C   UNK N   1      33.614  17.777   7.679  0.00  0.00     0.215 A 
HETATM   14  C   UNK N   1      33.816  17.560   6.330  0.00  0.00     0.065 A 
HETATM   15  C   UNK N   1      32.586  17.181   5.833  0.00  0.00     0.043 A 
BRANCH  13  16
HETATM   16  N   UNK N   1      34.616  18.184   8.589  0.00  0.00    -0.090 N 
HETATM   17  O   UNK N   1      34.867  17.464   9.661  0.00  0.00    -0.530 OA
HETATM   18  O   UNK N   1      35.238  19.183   8.388  0.00  0.00    -0.530 OA
ENDBRANCH  13  16
ENDBRANCH   3  11
TORSDOF 3
ENDMDL
MODEL 7
REMARK VINA RESULT:      -5.2      2.265      6.522
REMARK  3 active torsions:
REMARK  status: ('A' for Active; 'I' for Inactive)
REMARK    1  A    between atoms: N_5  and  C_12 
REMARK    2  A    between atoms: N_6  and  N_8 
REMARK       I    between atoms: N_8  and  C_15 
REMARK       I    between atoms: N_9  and  C_15 
REMARK    3  A    between atoms: C_10  and  C_14 
ROOT
HETATM    1  N   UNK N   1      34.478  16.268  10.390  0.00  0.00    -0.305 N 
ATOM      2  HN  UNK N   1      33.892  15.434  10.356  1.00  0.00     0.186 HD
HETATM    3  C   UNK N   1      35.415  16.337  11.262  0.00  0.00     0.144 C 
ENDROOT
BRANCH   1   4
HETATM    4  N   UNK N   1      34.245  17.285   9.502  0.00  0.00    -0.252 N 
HETATM    5  C   UNK N   1      33.247  17.166   8.595  0.00  0.00     0.332 C 
HETATM    6  O   UNK N   1      32.556  16.157   8.565  0.00  0.00    -0.246 OA
HETATM    7  N   UNK N   1      33.012  18.161   7.720  0.00  0.00    -0.351 N 
HETATM    8  H   UNK N   1      33.565  18.975   7.740  0.00  0.00     0.160 HD
HETATM    9  H   UNK N   1      32.287  18.075   7.060  0.00  0.00     0.160 HD
HETATM   10  H   UNK N   1      34.799  18.099   9.523  0.00  0.00     0.191 HD
ENDBRANCH   1   4
BRANCH   3  11
HETATM   11  C   UNK N   1      35.597  15.203  12.175  0.00  0.00     0.095 A 
HETATM   12  O   UNK N   1      36.283  15.232  13.290  0.00  0.00    -0.287 OA
HETATM   13  C   UNK N   1      36.222  14.039  13.834  0.00  0.00     0.215 A 
HETATM   14  C   UNK N   1      35.469  13.185  13.053  0.00  0.00     0.065 A 
HETATM   15  C   UNK N   1      35.062  13.942  11.973  0.00  0.00     0.043 A 
BRANCH  13  16
HETATM   16  N   UNK N   1      36.843  13.679  15.052  0.00  0.00    -0.090 N 
HETATM   17  O   UNK N   1      37.546  14.566  15.722  0.00  0.00    -0.530 OA
HETATM   18  O   UNK N   1      36.731  12.569  15.478  0.00  0.00    -0.530 OA
ENDBRANCH  13  16
ENDBRANCH   3  11
TORSDOF 3
ENDMDL
MODEL 8
REMARK VINA RESULT:      -5.1      1.658      1.987
REMARK  3 active torsions:
REMARK  status: ('A' for Active; 'I' for Inactive)
REMARK    1  A    between atoms: N_5  and  C_12 
REMARK    2  A    between atoms: N_6  and  N_8 
REMARK       I    between atoms: N_8  and  C_15 
REMARK       I    between atoms: N_9  and  C_15 
REMARK    3  A    between atoms: C_10  and  C_14 
ROOT
HETATM    1  N   UNK N   1      36.498  14.831  11.540  0.00  0.00    -0.305 N 
ATOM      2  HN  UNK N   1      36.372  15.798  11.837  1.00  0.00     0.186 HD
HETATM    3  C   UNK N   1      36.068  14.471  10.387  0.00  0.00     0.144 C 
ENDROOT
BRANCH   1   4
HETATM    4  N   UNK N   1      37.121  13.949  12.384  0.00  0.00    -0.252 N 
HETATM    5  C   UNK N   1      36.482  13.523  13.499  0.00  0.00     0.332 C 
HETATM    6  O   UNK N   1      35.355  13.922  13.755  0.00  0.00    -0.246 OA
HETATM    7  N   UNK N   1      37.088  12.658  14.331  0.00  0.00    -0.351 N 
HETATM    8  H   UNK N   1      37.996  12.333  14.130  0.00  0.00     0.160 HD
HETATM    9  H   UNK N   1      36.624  12.348  15.142  0.00  0.00     0.160 HD
HETATM   10  H   UNK N   1      38.028  13.626  12.181  0.00  0.00     0.191 HD
ENDBRANCH   1   4
BRANCH   3  11
HETATM   11  C   UNK N   1      35.412  15.479   9.547  0.00  0.00     0.095 A 
HETATM   12  O   UNK N   1      35.190  15.364   8.261  0.00  0.00    -0.287 OA
HETATM   13  C   UNK N   1      34.587  16.457   7.855  0.00  0.00     0.215 A 
HETATM   14  C   UNK N   1      34.402  17.331   8.908  0.00  0.00     0.065 A 
HETATM   15  C   UNK N   1      34.938  16.695  10.009  0.00  0.00     0.043 A 
BRANCH  13  16
HETATM   16  N   UNK N   1      34.184  16.704   6.523  0.00  0.00    -0.090 N 
HETATM   17  O   UNK N   1      34.157  17.934   6.057  0.00  0.00    -0.530 OA
HETATM   18  O   UNK N   1      33.868  15.796   5.814  0.00  0.00    -0.530 OA
ENDBRANCH  13  16
ENDBRANCH   3  11
TORSDOF 3
ENDMDL
MODEL 9
REMARK VINA RESULT:      -5.0      3.660      5.162
REMARK  3 active torsions:
REMARK  status: ('A' for Active; 'I' for Inactive)
REMARK    1  A    between atoms: N_5  and  C_12 
REMARK    2  A    between atoms: N_6  and  N_8 
REMARK       I    between atoms: N_8  and  C_15 
REMARK       I    between atoms: N_9  and  C_15 
REMARK    3  A    between atoms: C_10  and  C_14 
ROOT
HETATM    1  N   UNK N   1      33.273  16.285   9.717  0.00  0.00    -0.305 N 
ATOM      2  HN  UNK N   1      32.870  17.158  10.059  1.00  0.00     0.186 HD
HETATM    3  C   UNK N   1      32.805  15.759   8.646  0.00  0.00     0.144 C 
ENDROOT
BRANCH   1   4
HETATM    4  N   UNK N   1      34.301  15.707  10.415  0.00  0.00    -0.252 N 
HETATM    5  C   UNK N   1      35.438  16.408  10.635  0.00  0.00     0.332 C 
HETATM    6  O   UNK N   1      35.551  17.551  10.214  0.00  0.00    -0.246 OA
HETATM    7  N   UNK N   1      36.452  15.847  11.319  0.00  0.00    -0.351 N 
HETATM    8  H   UNK N   1      36.366  14.926  11.659  0.00  0.00     0.160 HD
HETATM    9  H   UNK N   1      37.279  16.355  11.479  0.00  0.00     0.160 HD
HETATM   10  H   UNK N   1      34.214  14.787  10.754  0.00  0.00     0.191 HD
ENDBRANCH   1   4
BRANCH   3  11
HETATM   11  C   UNK N   1      31.704  16.443   7.961  0.00  0.00     0.095 A 
HETATM   12  O   UNK N   1      31.565  16.543   6.662  0.00  0.00    -0.287 OA
HETATM   13  C   UNK N   1      30.467  17.220   6.423  0.00  0.00     0.215 A 
HETATM   14  C   UNK N   1      29.852  17.585   7.604  0.00  0.00     0.065 A 
HETATM   15  C   UNK N   1      30.656  17.080   8.605  0.00  0.00     0.043 A 
BRANCH  13  16
HETATM   16  N   UNK N   1      29.982  17.532   5.132  0.00  0.00    -0.090 N 
HETATM   17  O   UNK N   1      28.973  18.364   4.988  0.00  0.00    -0.530 OA
HETATM   18  O   UNK N   1      30.487  17.042   4.167  0.00  0.00    -0.530 OA
ENDBRANCH  13  16
ENDBRANCH   3  11
TORSDOF 3
ENDMDL
