REMARK  3 active torsions:
REMARK  status: ('A' for Active; 'I' for Inactive)
REMARK    1  A    between atoms: N_5  and  C_12 
REMARK    2  A    between atoms: N_6  and  N_8 
REMARK       I    between atoms: N_8  and  C_15 
REMARK       I    between atoms: N_9  and  C_15 
REMARK    3  A    between atoms: C_10  and  C_14 
ROOT
HETATM    1  N   UNK N   1       6.625   0.151  -0.000  0.00  0.00    -0.305 N 
ATOM      2  HN  UNK N   1       6.388   1.143  -0.000  1.00  0.00     0.186 HD
HETATM    3  C   UNK N   1       5.681  -0.716   0.000  0.00  0.00     0.144 C 
ENDROOT
BRANCH   1   4
HETATM    4  N   UNK N   1       7.944  -0.220   0.000  0.00  0.00    -0.252 N 
HETATM    5  C   UNK N   1       8.907   0.731  -0.000  0.00  0.00     0.332 C 
HETATM    6  O   UNK N   1       8.605   1.916  -0.000  0.00  0.00    -0.246 OA
HETATM    7  N   UNK N   1      10.204   0.374   0.000  0.00  0.00    -0.351 N 
HETATM    8  H   UNK N   1      10.453  -0.579   0.000  0.00  0.00     0.160 HD
HETATM    9  H   UNK N   1      10.905   1.065   0.000  0.00  0.00     0.160 HD
HETATM   10  H   UNK N   1       8.191  -1.173   0.000  0.00  0.00     0.191 HD
ENDBRANCH   1   4
BRANCH   3  11
HETATM   11  C   UNK N   1       4.296  -0.233   0.000  0.00  0.00     0.095 A 
HETATM   12  O   UNK N   1       3.229  -0.993   0.000  0.00  0.00    -0.287 OA
HETATM   13  C   UNK N   1       2.175  -0.211   0.000  0.00  0.00     0.215 A 
HETATM   14  C   UNK N   1       2.553   1.117  -0.000  0.00  0.00     0.065 A 
HETATM   15  C   UNK N   1       3.933   1.103  -0.000  0.00  0.00     0.043 A 
BRANCH  13  16
HETATM   16  N   UNK N   1       0.837  -0.668  -0.000  0.00  0.00    -0.090 N 
HETATM   17  O   UNK N   1      -0.156   0.195  -0.000  0.00  0.00    -0.530 OA
HETATM   18  O   UNK N   1       0.603  -1.839   0.000  0.00  0.00    -0.530 OA
ENDBRANCH  13  16
ENDBRANCH   3  11
TORSDOF 3
