MODEL 1
REMARK VINA RESULT:      -6.8      0.000      0.000
REMARK  5 active torsions:
REMARK  status: ('A' for Active; 'I' for Inactive)
REMARK    1  A    between atoms: S_1  and  C_10 
REMARK    2  A    between atoms: S_1  and  C_13 
REMARK    3  A    between atoms: O_2  and  C_15 
REMARK    4  A    between atoms: O_4  and  C_22 
REMARK    5  A    between atoms: C_10  and  C_11 
ROOT
HETATM    1  S   UNK N   1      36.008  15.052  10.263  0.00  0.00     0.090 S 
HETATM    2  O   UNK N   1      36.533  16.419  10.732  0.00  0.00    -0.249 OA
ENDROOT
BRANCH   1   3
HETATM    3  C   UNK N   1      34.278  15.608  10.351  0.00  0.00     0.175 C 
BRANCH   3   4
HETATM    4  C   UNK N   1      33.901  16.085   8.994  0.00  0.00     0.029 A 
HETATM    5  N   UNK N   1      34.328  17.309   8.594  0.00  0.00    -0.367 N 
HETATM    6  C   UNK N   1      34.096  17.769   7.341  0.00  0.00     0.097 A 
ATOM      7  HN  UNK N   1      34.836  17.898   9.253  1.00  0.00     0.165 HD
HETATM    8  C   UNK N   1      33.415  16.986   6.409  0.00  0.00    -0.013 A 
HETATM    9  C   UNK N   1      32.940  15.700   6.795  0.00  0.00     0.083 A 
HETATM   10  C   UNK N   1      33.227  17.556   5.046  0.00  0.00     0.052 C 
HETATM   11  C   UNK N   1      33.183  15.262   8.107  0.00  0.00    -0.005 A 
HETATM   12  C   UNK N   1      32.699  13.911   8.540  0.00  0.00     0.053 C 
BRANCH   9  13
HETATM   13  O   UNK N   1      32.274  14.854   5.959  0.00  0.00    -0.355 OA
HETATM   14  C   UNK N   1      30.931  14.883   5.667  0.00  0.00     0.210 C 
ENDBRANCH   9  13
ENDBRANCH   3   4
ENDBRANCH   1   3
BRANCH   1  15
HETATM   15  C   UNK N   1      35.944  14.365  11.908  0.00  0.00     0.176 A 
HETATM   16  N   UNK N   1      35.161  13.313  12.263  0.00  0.00    -0.333 N 
HETATM   17  C   UNK N   1      35.418  13.153  13.564  0.00  0.00     0.063 A 
HETATM   18  H   UNK N   1      34.548  12.792  11.695  0.00  0.00     0.168 HD
HETATM   19  C   UNK N   1      36.326  14.078  13.973  0.00  0.00     0.061 A 
HETATM   20  C   UNK N   1      34.873  12.215  14.431  0.00  0.00     0.068 A 
HETATM   21  N   UNK N   1      36.673  14.857  12.939  0.00  0.00    -0.333 N 
HETATM   22  C   UNK N   1      36.774  14.148  15.285  0.00  0.00     0.035 A 
ATOM     23  HN  UNK N   1      37.330  15.637  12.930  1.00  0.00     0.168 HD
HETATM   24  C   UNK N   1      36.245  13.216  16.197  0.00  0.00     0.039 A 
HETATM   25  C   UNK N   1      35.290  12.245  15.775  0.00  0.00     0.070 A 
BRANCH  25  26
HETATM   26  O   UNK N   1      34.763  11.349  16.640  0.00  0.00    -0.356 OA
HETATM   27  C   UNK N   1      35.291  11.109  17.887  0.00  0.00     0.210 C 
ENDBRANCH  25  26
ENDBRANCH   1  15
TORSDOF 5
ENDMDL
MODEL 2
REMARK VINA RESULT:      -6.8      4.974     10.136
REMARK  5 active torsions:
REMARK  status: ('A' for Active; 'I' for Inactive)
REMARK    1  A    between atoms: S_1  and  C_10 
REMARK    2  A    between atoms: S_1  and  C_13 
REMARK    3  A    between atoms: O_2  and  C_15 
REMARK    4  A    between atoms: O_4  and  C_22 
REMARK    5  A    between atoms: C_10  and  C_11 
ROOT
HETATM    1  S   UNK N   1      30.250  17.051   8.687  0.00  0.00     0.090 S 
HETATM    2  O   UNK N   1      29.870  17.853   9.943  0.00  0.00    -0.249 OA
ENDROOT
BRANCH   1   3
HETATM    3  C   UNK N   1      31.714  18.088   8.382  0.00  0.00     0.175 C 
BRANCH   3   4
HETATM    4  C   UNK N   1      32.898  17.189   8.394  0.00  0.00     0.029 A 
HETATM    5  N   UNK N   1      33.229  16.565   9.552  0.00  0.00    -0.367 N 
HETATM    6  C   UNK N   1      34.241  15.667   9.613  0.00  0.00     0.097 A 
ATOM      7  HN  UNK N   1      32.702  16.778  10.399  1.00  0.00     0.165 HD
HETATM    8  C   UNK N   1      34.974  15.341   8.472  0.00  0.00    -0.013 A 
HETATM    9  C   UNK N   1      34.666  15.984   7.239  0.00  0.00     0.083 A 
HETATM   10  C   UNK N   1      36.052  14.324   8.621  0.00  0.00     0.052 C 
HETATM   11  C   UNK N   1      33.623  16.924   7.217  0.00  0.00    -0.005 A 
HETATM   12  C   UNK N   1      33.271  17.613   5.933  0.00  0.00     0.053 C 
BRANCH   9  13
HETATM   13  O   UNK N   1      35.314  15.731   6.068  0.00  0.00    -0.355 OA
HETATM   14  C   UNK N   1      35.069  14.688   5.206  0.00  0.00     0.210 C 
ENDBRANCH   9  13
ENDBRANCH   3   4
ENDBRANCH   1   3
BRANCH   1  15
HETATM   15  C   UNK N   1      29.240  18.033   7.593  0.00  0.00     0.176 A 
HETATM   16  N   UNK N   1      29.179  17.854   6.248  0.00  0.00    -0.333 N 
HETATM   17  C   UNK N   1      28.327  18.800   5.843  0.00  0.00     0.063 A 
HETATM   18  H   UNK N   1      29.651  17.185   5.702  0.00  0.00     0.168 HD
HETATM   19  C   UNK N   1      27.893  19.521   6.910  0.00  0.00     0.061 A 
HETATM   20  C   UNK N   1      27.910  19.071   4.546  0.00  0.00     0.068 A 
HETATM   21  N   UNK N   1      28.459  19.052   8.031  0.00  0.00    -0.333 N 
HETATM   22  C   UNK N   1      27.001  20.575   6.779  0.00  0.00     0.035 A 
ATOM     23  HN  UNK N   1      28.333  19.383   8.986  1.00  0.00     0.168 HD
HETATM   24  C   UNK N   1      26.554  20.885   5.481  0.00  0.00     0.039 A 
HETATM   25  C   UNK N   1      27.009  20.135   4.357  0.00  0.00     0.070 A 
BRANCH  25  26
HETATM   26  O   UNK N   1      26.599  20.425   3.100  0.00  0.00    -0.356 OA
HETATM   27  C   UNK N   1      25.276  20.425   2.723  0.00  0.00     0.210 C 
ENDBRANCH  25  26
ENDBRANCH   1  15
TORSDOF 5
ENDMDL
MODEL 3
REMARK VINA RESULT:      -6.8      2.466      9.224
REMARK  5 active torsions:
REMARK  status: ('A' for Active; 'I' for Inactive)
REMARK    1  A    between atoms: S_1  and  C_10 
REMARK    2  A    between atoms: S_1  and  C_13 
REMARK    3  A    between atoms: O_2  and  C_15 
REMARK    4  A    between atoms: O_4  and  C_22 
REMARK    5  A    between atoms: C_10  and  C_11 
ROOT
HETATM    1  S   UNK N   1      36.551  12.928  13.938  0.00  0.00     0.090 S 
HETATM    2  O   UNK N   1      36.582  11.638  13.102  0.00  0.00    -0.249 OA
ENDROOT
BRANCH   1   3
HETATM    3  C   UNK N   1      34.904  12.539  14.606  0.00  0.00     0.175 C 
BRANCH   3   4
HETATM    4  C   UNK N   1      35.069  12.287  16.061  0.00  0.00     0.029 A 
HETATM    5  N   UNK N   1      35.146  13.350  16.901  0.00  0.00    -0.367 N 
HETATM    6  C   UNK N   1      35.208  13.193  18.245  0.00  0.00     0.097 A 
ATOM      7  HN  UNK N   1      35.157  14.292  16.510  1.00  0.00     0.165 HD
HETATM    8  C   UNK N   1      35.182  11.920  18.815  0.00  0.00    -0.013 A 
HETATM    9  C   UNK N   1      35.115  10.778  17.967  0.00  0.00     0.083 A 
HETATM   10  C   UNK N   1      35.227  11.838  20.302  0.00  0.00     0.052 C 
HETATM   11  C   UNK N   1      35.070  10.978  16.578  0.00  0.00    -0.005 A 
HETATM   12  C   UNK N   1      34.994   9.796  15.660  0.00  0.00     0.053 C 
BRANCH   9  13
HETATM   13  O   UNK N   1      35.075   9.495  18.423  0.00  0.00    -0.355 OA
HETATM   14  C   UNK N   1      33.972   8.835  18.913  0.00  0.00     0.210 C 
ENDBRANCH   9  13
ENDBRANCH   3   4
ENDBRANCH   1   3
BRANCH   1  15
HETATM   15  C   UNK N   1      35.861  13.919  12.625  0.00  0.00     0.176 A 
HETATM   16  N   UNK N   1      36.328  15.144  12.269  0.00  0.00    -0.333 N 
HETATM   17  C   UNK N   1      35.520  15.513  11.272  0.00  0.00     0.063 A 
HETATM   18  H   UNK N   1      37.085  15.641  12.656  0.00  0.00     0.168 HD
HETATM   19  C   UNK N   1      34.600  14.541  11.038  0.00  0.00     0.061 A 
HETATM   20  C   UNK N   1      35.550  16.696  10.546  0.00  0.00     0.068 A 
HETATM   21  N   UNK N   1      34.797  13.520  11.885  0.00  0.00    -0.333 N 
HETATM   22  C   UNK N   1      33.627  14.661  10.056  0.00  0.00     0.035 A 
ATOM     23  HN  UNK N   1      34.271  12.650  11.956  1.00  0.00     0.168 HD
HETATM   24  C   UNK N   1      33.619  15.847   9.298  0.00  0.00     0.039 A 
HETATM   25  C   UNK N   1      34.581  16.872   9.540  0.00  0.00     0.070 A 
BRANCH  25  26
HETATM   26  O   UNK N   1      34.582  18.023   8.829  0.00  0.00    -0.356 OA
HETATM   27  C   UNK N   1      33.556  18.387   7.989  0.00  0.00     0.210 C 
ENDBRANCH  25  26
ENDBRANCH   1  15
TORSDOF 5
ENDMDL
MODEL 4
REMARK VINA RESULT:      -6.6      3.158      8.145
REMARK  5 active torsions:
REMARK  status: ('A' for Active; 'I' for Inactive)
REMARK    1  A    between atoms: S_1  and  C_10 
REMARK    2  A    between atoms: S_1  and  C_13 
REMARK    3  A    between atoms: O_2  and  C_15 
REMARK    4  A    between atoms: O_4  and  C_22 
REMARK    5  A    between atoms: C_10  and  C_11 
ROOT
HETATM    1  S   UNK N   1      34.246  17.858   7.945  0.00  0.00     0.090 S 
HETATM    2  O   UNK N   1      34.330  18.041   6.421  0.00  0.00    -0.249 OA
ENDROOT
BRANCH   1   3
HETATM    3  C   UNK N   1      34.519  16.064   7.815  0.00  0.00     0.175 C 
BRANCH   3   4
HETATM    4  C   UNK N   1      34.975  15.592   9.149  0.00  0.00     0.029 A 
HETATM    5  N   UNK N   1      35.302  16.515  10.089  0.00  0.00    -0.367 N 
HETATM    6  C   UNK N   1      35.640  16.157  11.351  0.00  0.00     0.097 A 
ATOM      7  HN  UNK N   1      35.292  17.503   9.838  1.00  0.00     0.165 HD
HETATM    8  C   UNK N   1      35.651  14.816  11.732  0.00  0.00    -0.013 A 
HETATM    9  C   UNK N   1      35.327  13.816  10.771  0.00  0.00     0.083 A 
HETATM   10  C   UNK N   1      36.007  14.512  13.146  0.00  0.00     0.052 C 
HETATM   11  C   UNK N   1      34.998  14.221   9.468  0.00  0.00    -0.005 A 
HETATM   12  C   UNK N   1      34.648  13.193   8.436  0.00  0.00     0.053 C 
BRANCH   9  13
HETATM   13  O   UNK N   1      35.299  12.481  11.044  0.00  0.00    -0.355 OA
HETATM   14  C   UNK N   1      36.383  11.639  11.118  0.00  0.00     0.210 C 
ENDBRANCH   9  13
ENDBRANCH   3   4
ENDBRANCH   1   3
BRANCH   1  15
HETATM   15  C   UNK N   1      32.473  17.657   7.955  0.00  0.00     0.176 A 
HETATM   16  N   UNK N   1      31.749  17.235   6.886  0.00  0.00    -0.333 N 
HETATM   17  C   UNK N   1      30.491  17.246   7.333  0.00  0.00     0.063 A 
HETATM   18  H   UNK N   1      32.076  16.980   5.992  0.00  0.00     0.168 HD
HETATM   19  C   UNK N   1      30.463  17.661   8.627  0.00  0.00     0.061 A 
HETATM   20  C   UNK N   1      29.337  16.909   6.638  0.00  0.00     0.068 A 
HETATM   21  N   UNK N   1      31.709  17.927   9.042  0.00  0.00    -0.333 N 
HETATM   22  C   UNK N   1      29.281  17.773   9.345  0.00  0.00     0.035 A 
ATOM     23  HN  UNK N   1      32.012  18.255   9.958  1.00  0.00     0.168 HD
HETATM   24  C   UNK N   1      28.086  17.443   8.676  0.00  0.00     0.039 A 
HETATM   25  C   UNK N   1      28.109  17.010   7.318  0.00  0.00     0.070 A 
BRANCH  25  26
HETATM   26  O   UNK N   1      26.970  16.699   6.656  0.00  0.00    -0.356 OA
HETATM   27  C   UNK N   1      26.932  16.450   5.304  0.00  0.00     0.210 C 
ENDBRANCH  25  26
ENDBRANCH   1  15
TORSDOF 5
ENDMDL
MODEL 5
REMARK VINA RESULT:      -6.6      8.209     11.346
REMARK  5 active torsions:
REMARK  status: ('A' for Active; 'I' for Inactive)
REMARK    1  A    between atoms: S_1  and  C_10 
REMARK    2  A    between atoms: S_1  and  C_13 
REMARK    3  A    between atoms: O_2  and  C_15 
REMARK    4  A    between atoms: O_4  and  C_22 
REMARK    5  A    between atoms: C_10  and  C_11 
ROOT
HETATM    1  S   UNK N   1      26.678  19.710   4.493  0.00  0.00     0.090 S 
HETATM    2  O   UNK N   1      26.020  20.757   5.407  0.00  0.00    -0.249 OA
ENDROOT
BRANCH   1   3
HETATM    3  C   UNK N   1      25.350  18.505   4.800  0.00  0.00     0.175 C 
BRANCH   3   4
HETATM    4  C   UNK N   1      24.107  19.059   4.201  0.00  0.00     0.029 A 
HETATM    5  N   UNK N   1      24.211  20.090   3.325  0.00  0.00    -0.367 N 
HETATM    6  C   UNK N   1      23.129  20.584   2.676  0.00  0.00     0.097 A 
ATOM      7  HN  UNK N   1      25.127  20.503   3.151  1.00  0.00     0.165 HD
HETATM    8  C   UNK N   1      21.864  20.034   2.880  0.00  0.00    -0.013 A 
HETATM    9  C   UNK N   1      21.711  18.960   3.802  0.00  0.00     0.083 A 
HETATM   10  C   UNK N   1      20.733  20.620   2.107  0.00  0.00     0.052 C 
HETATM   11  C   UNK N   1      22.851  18.484   4.470  0.00  0.00    -0.005 A 
HETATM   12  C   UNK N   1      22.723  17.351   5.442  0.00  0.00     0.053 C 
BRANCH   9  13
HETATM   13  O   UNK N   1      20.523  18.348   4.065  0.00  0.00    -0.355 OA
HETATM   14  C   UNK N   1      19.913  17.381   3.301  0.00  0.00     0.210 C 
ENDBRANCH   9  13
ENDBRANCH   3   4
ENDBRANCH   1   3
BRANCH   1  15
HETATM   15  C   UNK N   1      27.695  19.025   5.788  0.00  0.00     0.176 A 
HETATM   16  N   UNK N   1      28.758  18.209   5.569  0.00  0.00    -0.333 N 
HETATM   17  C   UNK N   1      29.203  17.934   6.798  0.00  0.00     0.063 A 
HETATM   18  H   UNK N   1      29.116  17.895   4.707  0.00  0.00     0.168 HD
HETATM   19  C   UNK N   1      28.432  18.566   7.722  0.00  0.00     0.061 A 
HETATM   20  C   UNK N   1      30.276  17.128   7.155  0.00  0.00     0.068 A 
HETATM   21  N   UNK N   1      27.469  19.264   7.103  0.00  0.00    -0.333 N 
HETATM   22  C   UNK N   1      28.664  18.452   9.085  0.00  0.00     0.035 A 
ATOM     23  HN  UNK N   1      26.739  19.838   7.523  1.00  0.00     0.168 HD
HETATM   24  C   UNK N   1      29.742  17.642   9.490  0.00  0.00     0.039 A 
HETATM   25  C   UNK N   1      30.553  16.974   8.526  0.00  0.00     0.070 A 
BRANCH  25  26
HETATM   26  O   UNK N   1      31.586  16.184   8.897  0.00  0.00    -0.356 OA
HETATM   27  C   UNK N   1      32.903  16.529   8.703  0.00  0.00     0.210 C 
ENDBRANCH  25  26
ENDBRANCH   1  15
TORSDOF 5
ENDMDL
MODEL 6
REMARK VINA RESULT:      -6.5      7.723     13.208
REMARK  5 active torsions:
REMARK  status: ('A' for Active; 'I' for Inactive)
REMARK    1  A    between atoms: S_1  and  C_10 
REMARK    2  A    between atoms: S_1  and  C_13 
REMARK    3  A    between atoms: O_2  and  C_15 
REMARK    4  A    between atoms: O_4  and  C_22 
REMARK    5  A    between atoms: C_10  and  C_11 
ROOT
HETATM    1  S   UNK N   1      27.360  19.586   5.413  0.00  0.00     0.090 S 
HETATM    2  O   UNK N   1      27.956  19.810   4.014  0.00  0.00    -0.249 OA
ENDROOT
BRANCH   1   3
HETATM    3  C   UNK N   1      27.649  17.792   5.326  0.00  0.00     0.175 C 
BRANCH   3   4
HETATM    4  C   UNK N   1      29.113  17.576   5.469  0.00  0.00     0.029 A 
HETATM    5  N   UNK N   1      29.892  17.652   4.361  0.00  0.00    -0.367 N 
HETATM    6  C   UNK N   1      31.241  17.553   4.432  0.00  0.00     0.097 A 
ATOM      7  HN  UNK N   1      29.450  17.788   3.452  1.00  0.00     0.165 HD
HETATM    8  C   UNK N   1      31.879  17.381   5.660  0.00  0.00    -0.013 A 
HETATM    9  C   UNK N   1      31.095  17.283   6.844  0.00  0.00     0.083 A 
HETATM   10  C   UNK N   1      33.367  17.309   5.651  0.00  0.00     0.052 C 
HETATM   11  C   UNK N   1      29.699  17.372   6.732  0.00  0.00    -0.005 A 
HETATM   12  C   UNK N   1      28.847  17.278   7.962  0.00  0.00     0.053 C 
BRANCH   9  13
HETATM   13  O   UNK N   1      31.621  17.125   8.092  0.00  0.00    -0.355 OA
HETATM   14  C   UNK N   1      32.013  15.940   8.669  0.00  0.00     0.210 C 
ENDBRANCH   9  13
ENDBRANCH   3   4
ENDBRANCH   1   3
BRANCH   1  15
HETATM   15  C   UNK N   1      25.687  19.415   4.817  0.00  0.00     0.176 A 
HETATM   16  N   UNK N   1      25.130  20.218   3.874  0.00  0.00    -0.333 N 
HETATM   17  C   UNK N   1      23.887  19.745   3.751  0.00  0.00     0.063 A 
HETATM   18  H   UNK N   1      25.545  20.971   3.394  0.00  0.00     0.168 HD
HETATM   19  C   UNK N   1      23.707  18.693   4.593  0.00  0.00     0.061 A 
HETATM   20  C   UNK N   1      22.876  20.210   2.919  0.00  0.00     0.068 A 
HETATM   21  N   UNK N   1      24.836  18.467   5.278  0.00  0.00    -0.333 N 
HETATM   22  C   UNK N   1      22.502  18.009   4.678  0.00  0.00     0.035 A 
ATOM     23  HN  UNK N   1      25.013  17.750   5.982  1.00  0.00     0.168 HD
HETATM   24  C   UNK N   1      21.450  18.450   3.853  0.00  0.00     0.039 A 
HETATM   25  C   UNK N   1      21.632  19.555   2.971  0.00  0.00     0.070 A 
BRANCH  25  26
HETATM   26  O   UNK N   1      20.629  19.999   2.179  0.00  0.00    -0.356 OA
HETATM   27  C   UNK N   1      20.846  20.672   0.998  0.00  0.00     0.210 C 
ENDBRANCH  25  26
ENDBRANCH   1  15
TORSDOF 5
ENDMDL
MODEL 7
REMARK VINA RESULT:      -6.4      2.858      4.194
REMARK  5 active torsions:
REMARK  status: ('A' for Active; 'I' for Inactive)
REMARK    1  A    between atoms: S_1  and  C_10 
REMARK    2  A    between atoms: S_1  and  C_13 
REMARK    3  A    between atoms: O_2  and  C_15 
REMARK    4  A    between atoms: O_4  and  C_22 
REMARK    5  A    between atoms: C_10  and  C_11 
ROOT
HETATM    1  S   UNK N   1      34.144  17.646   7.616  0.00  0.00     0.090 S 
HETATM    2  O   UNK N   1      34.566  18.936   8.338  0.00  0.00    -0.249 OA
ENDROOT
BRANCH   1   3
HETATM    3  C   UNK N   1      32.484  17.689   8.359  0.00  0.00     0.175 C 
BRANCH   3   4
HETATM    4  C   UNK N   1      31.503  17.547   7.251  0.00  0.00     0.029 A 
HETATM    5  N   UNK N   1      31.968  17.317   5.997  0.00  0.00    -0.367 N 
HETATM    6  C   UNK N   1      31.129  17.090   4.958  0.00  0.00     0.097 A 
ATOM      7  HN  UNK N   1      32.974  17.314   5.834  1.00  0.00     0.165 HD
HETATM    8  C   UNK N   1      29.747  17.073   5.148  0.00  0.00    -0.013 A 
HETATM    9  C   UNK N   1      29.220  17.324   6.447  0.00  0.00     0.083 A 
HETATM   10  C   UNK N   1      28.899  16.790   3.957  0.00  0.00     0.052 C 
HETATM   11  C   UNK N   1      30.118  17.573   7.497  0.00  0.00    -0.005 A 
HETATM   12  C   UNK N   1      29.593  17.835   8.876  0.00  0.00     0.053 C 
BRANCH   9  13
HETATM   13  O   UNK N   1      27.889  17.321   6.740  0.00  0.00    -0.355 OA
HETATM   14  C   UNK N   1      27.076  16.216   6.839  0.00  0.00     0.210 C 
ENDBRANCH   9  13
ENDBRANCH   3   4
ENDBRANCH   1   3
BRANCH   1  15
HETATM   15  C   UNK N   1      34.765  16.570   8.896  0.00  0.00     0.176 A 
HETATM   16  N   UNK N   1      34.775  16.886  10.217  0.00  0.00    -0.333 N 
HETATM   17  C   UNK N   1      35.328  15.816  10.793  0.00  0.00     0.063 A 
HETATM   18  H   UNK N   1      34.450  17.709  10.648  0.00  0.00     0.168 HD
HETATM   19  C   UNK N   1      35.639  14.890   9.848  0.00  0.00     0.061 A 
HETATM   20  C   UNK N   1      35.587  15.613  12.143  0.00  0.00     0.068 A 
HETATM   21  N   UNK N   1      35.290  15.348   8.637  0.00  0.00    -0.333 N 
HETATM   22  C   UNK N   1      36.234  13.677  10.164  0.00  0.00     0.035 A 
ATOM     23  HN  UNK N   1      35.396  14.886   7.735  1.00  0.00     0.168 HD
HETATM   24  C   UNK N   1      36.515  13.431  11.522  0.00  0.00     0.039 A 
HETATM   25  C   UNK N   1      36.195  14.400  12.518  0.00  0.00     0.070 A 
BRANCH  25  26
HETATM   26  O   UNK N   1      36.468  14.186  13.826  0.00  0.00    -0.356 OA
HETATM   27  C   UNK N   1      35.662  13.433  14.648  0.00  0.00     0.210 C 
ENDBRANCH  25  26
ENDBRANCH   1  15
TORSDOF 5
ENDMDL
MODEL 8
REMARK VINA RESULT:      -6.4      1.610      8.600
REMARK  5 active torsions:
REMARK  status: ('A' for Active; 'I' for Inactive)
REMARK    1  A    between atoms: S_1  and  C_10 
REMARK    2  A    between atoms: S_1  and  C_13 
REMARK    3  A    between atoms: O_2  and  C_15 
REMARK    4  A    between atoms: O_4  and  C_22 
REMARK    5  A    between atoms: C_10  and  C_11 
ROOT
HETATM    1  S   UNK N   1      35.342  15.936  11.245  0.00  0.00     0.090 S 
HETATM    2  O   UNK N   1      36.810  16.172  10.855  0.00  0.00    -0.249 OA
ENDROOT
BRANCH   1   3
HETATM    3  C   UNK N   1      35.500  14.137  11.030  0.00  0.00     0.175 C 
BRANCH   3   4
HETATM    4  C   UNK N   1      35.595  13.539  12.388  0.00  0.00     0.029 A 
HETATM    5  N   UNK N   1      36.074  14.303  13.402  0.00  0.00    -0.367 N 
HETATM    6  C   UNK N   1      36.106  13.852  14.679  0.00  0.00     0.097 A 
ATOM      7  HN  UNK N   1      36.419  15.240  13.197  1.00  0.00     0.165 HD
HETATM    8  C   UNK N   1      35.630  12.580  14.998  0.00  0.00    -0.013 A 
HETATM    9  C   UNK N   1      35.131  11.743  13.959  0.00  0.00     0.083 A 
HETATM   10  C   UNK N   1      35.676  12.174  16.430  0.00  0.00     0.052 C 
HETATM   11  C   UNK N   1      35.130  12.236  12.645  0.00  0.00    -0.005 A 
HETATM   12  C   UNK N   1      34.606  11.380  11.531  0.00  0.00     0.053 C 
BRANCH   9  13
HETATM   13  O   UNK N   1      34.635  10.491  14.165  0.00  0.00    -0.355 OA
HETATM   14  C   UNK N   1      35.367   9.342  14.355  0.00  0.00     0.210 C 
ENDBRANCH   9  13
ENDBRANCH   3   4
ENDBRANCH   1   3
BRANCH   1  15
HETATM   15  C   UNK N   1      34.729  16.150   9.583  0.00  0.00     0.176 A 
HETATM   16  N   UNK N   1      35.165  15.436   8.514  0.00  0.00    -0.333 N 
HETATM   17  C   UNK N   1      34.456  15.929   7.495  0.00  0.00     0.063 A 
HETATM   18  H   UNK N   1      35.842  14.722   8.494  0.00  0.00     0.168 HD
HETATM   19  C   UNK N   1      33.623  16.907   7.940  0.00  0.00     0.061 A 
HETATM   20  C   UNK N   1      34.514  15.557   6.158  0.00  0.00     0.068 A 
HETATM   21  N   UNK N   1      33.780  17.064   9.262  0.00  0.00    -0.333 N 
HETATM   22  C   UNK N   1      32.771  17.600   7.092  0.00  0.00     0.035 A 
ATOM     23  HN  UNK N   1      33.299  17.716   9.881  1.00  0.00     0.168 HD
HETATM   24  C   UNK N   1      32.800  17.255   5.727  0.00  0.00     0.039 A 
HETATM   25  C   UNK N   1      33.673  16.233   5.253  0.00  0.00     0.070 A 
BRANCH  25  26
HETATM   26  O   UNK N   1      33.722  15.896   3.944  0.00  0.00    -0.356 OA
HETATM   27  C   UNK N   1      32.985  16.538   2.975  0.00  0.00     0.210 C 
ENDBRANCH  25  26
ENDBRANCH   1  15
TORSDOF 5
ENDMDL
MODEL 9
REMARK VINA RESULT:      -6.3     12.979     14.704
REMARK  5 active torsions:
REMARK  status: ('A' for Active; 'I' for Inactive)
REMARK    1  A    between atoms: S_1  and  C_10 
REMARK    2  A    between atoms: S_1  and  C_13 
REMARK    3  A    between atoms: O_2  and  C_15 
REMARK    4  A    between atoms: O_4  and  C_22 
REMARK    5  A    between atoms: C_10  and  C_11 
ROOT
HETATM    1  S   UNK N   1      19.113  15.753   5.521  0.00  0.00     0.090 S 
HETATM    2  O   UNK N   1      18.265  14.560   5.051  0.00  0.00    -0.249 OA
ENDROOT
BRANCH   1   3
HETATM    3  C   UNK N   1      20.272  15.567   4.131  0.00  0.00     0.175 C 
BRANCH   3   4
HETATM    4  C   UNK N   1      20.501  16.924   3.567  0.00  0.00     0.029 A 
HETATM    5  N   UNK N   1      19.571  17.444   2.728  0.00  0.00    -0.367 N 
HETATM    6  C   UNK N   1      19.673  18.707   2.248  0.00  0.00     0.097 A 
ATOM      7  HN  UNK N   1      18.775  16.870   2.452  1.00  0.00     0.165 HD
HETATM    8  C   UNK N   1      20.741  19.525   2.615  0.00  0.00    -0.013 A 
HETATM    9  C   UNK N   1      21.745  19.011   3.484  0.00  0.00     0.083 A 
HETATM   10  C   UNK N   1      20.762  20.908   2.063  0.00  0.00     0.052 C 
HETATM   11  C   UNK N   1      21.617  17.692   3.948  0.00  0.00    -0.005 A 
HETATM   12  C   UNK N   1      22.655  17.124   4.869  0.00  0.00     0.053 C 
BRANCH   9  13
HETATM   13  O   UNK N   1      22.822  19.729   3.910  0.00  0.00    -0.355 OA
HETATM   14  C   UNK N   1      23.939  20.044   3.172  0.00  0.00     0.210 C 
ENDBRANCH   9  13
ENDBRANCH   3   4
ENDBRANCH   1   3
BRANCH   1  15
HETATM   15  C   UNK N   1      20.138  14.769   6.599  0.00  0.00     0.176 A 
HETATM   16  N   UNK N   1      20.382  15.070   7.901  0.00  0.00    -0.333 N 
HETATM   17  C   UNK N   1      21.193  14.088   8.305  0.00  0.00     0.063 A 
HETATM   18  H   UNK N   1      20.041  15.832   8.423  0.00  0.00     0.168 HD
HETATM   19  C   UNK N   1      21.426  13.228   7.279  0.00  0.00     0.061 A 
HETATM   20  C   UNK N   1      21.758  13.914   9.561  0.00  0.00     0.068 A 
HETATM   21  N   UNK N   1      20.767  13.640   6.187  0.00  0.00    -0.333 N 
HETATM   22  C   UNK N   1      22.242  12.114   7.415  0.00  0.00     0.035 A 
ATOM     23  HN  UNK N   1      20.744  13.208   5.264  1.00  0.00     0.168 HD
HETATM   24  C   UNK N   1      22.837  11.901   8.673  0.00  0.00     0.039 A 
HETATM   25  C   UNK N   1      22.599  12.801   9.753  0.00  0.00     0.070 A 
BRANCH  25  26
HETATM   26  O   UNK N   1      23.170  12.618  10.965  0.00  0.00    -0.356 OA
HETATM   27  C   UNK N   1      22.565  11.917  11.982  0.00  0.00     0.210 C 
ENDBRANCH  25  26
ENDBRANCH   1  15
TORSDOF 5
ENDMDL
