MODEL 1
REMARK VINA RESULT:      -4.4      0.000      0.000
REMARK  1 active torsions:
REMARK  status: ('A' for Active; 'I' for Inactive)
REMARK       I    between atoms: N_6  and  C_9 
REMARK    1  A    between atoms: C_7  and  C_9 
ROOT
HETATM    1  N   UNK N   1      35.337  17.166  10.407  0.00  0.00    -0.359 N 
ATOM      2  HN  UNK N   1      35.920  17.991  10.546  1.00  0.00     0.165 HD
HETATM    3  N   UNK N   1      33.772  14.950  10.036  0.00  0.00    -0.372 N 
ATOM      4  HN  UNK N   1      33.190  14.124   9.899  1.00  0.00     0.164 HD
HETATM    5  C   UNK N   1      34.552  17.078   9.296  0.00  0.00     0.116 A 
HETATM    6  C   UNK N   1      33.755  15.944   9.111  0.00  0.00     0.122 A 
HETATM    7  C   UNK N   1      35.354  16.170  11.332  0.00  0.00     0.105 A 
HETATM    8  C   UNK N   1      34.556  15.040  11.144  0.00  0.00     0.104 A 
ENDROOT
BRANCH   5   9
HETATM    9  C   UNK N   1      34.545  18.167   8.300  0.00  0.00     0.267 C 
HETATM   10  O   UNK N   1      35.234  19.159   8.470  0.00  0.00    -0.266 OA
HETATM   11  N   UNK N   1      33.776  18.073   7.196  0.00  0.00    -0.365 N 
HETATM   12  H   UNK N   1      33.217  17.275   7.052  0.00  0.00     0.159 HD
HETATM   13  H   UNK N   1      33.773  18.801   6.534  0.00  0.00     0.159 HD
ENDBRANCH   5   9
TORSDOF 1
ENDMDL
MODEL 2
REMARK VINA RESULT:      -4.2     11.131     12.130
REMARK  1 active torsions:
REMARK  status: ('A' for Active; 'I' for Inactive)
REMARK       I    between atoms: N_6  and  C_9 
REMARK    1  A    between atoms: C_7  and  C_9 
ROOT
HETATM    1  N   UNK N   1      42.691  23.353   2.786  0.00  0.00    -0.359 N 
ATOM      2  HN  UNK N   1      43.122  24.260   2.967  1.00  0.00     0.165 HD
HETATM    3  N   UNK N   1      41.533  20.920   2.299  0.00  0.00    -0.372 N 
ATOM      4  HN  UNK N   1      41.101  20.014   2.118  1.00  0.00     0.164 HD
HETATM    5  C   UNK N   1      43.115  22.259   3.480  0.00  0.00     0.116 A 
HETATM    6  C   UNK N   1      42.520  21.018   3.227  0.00  0.00     0.122 A 
HETATM    7  C   UNK N   1      41.702  23.254   1.857  0.00  0.00     0.105 A 
HETATM    8  C   UNK N   1      41.112  22.013   1.609  0.00  0.00     0.104 A 
ENDROOT
BRANCH   5   9
HETATM    9  C   UNK N   1      44.188  22.382   4.484  0.00  0.00     0.267 C 
HETATM   10  O   UNK N   1      43.921  22.695   5.633  0.00  0.00    -0.266 OA
HETATM   11  N   UNK N   1      45.471  22.150   4.139  0.00  0.00    -0.365 N 
HETATM   12  H   UNK N   1      45.695  21.897   3.213  0.00  0.00     0.159 HD
HETATM   13  H   UNK N   1      46.185  22.233   4.811  0.00  0.00     0.159 HD
ENDBRANCH   5   9
TORSDOF 1
ENDMDL
MODEL 3
REMARK VINA RESULT:      -4.2     12.896     13.570
REMARK  1 active torsions:
REMARK  status: ('A' for Active; 'I' for Inactive)
REMARK       I    between atoms: N_6  and  C_9 
REMARK    1  A    between atoms: C_7  and  C_9 
ROOT
HETATM    1  N   UNK N   1      22.691  13.593   9.662  0.00  0.00    -0.359 N 
ATOM      2  HN  UNK N   1      22.994  14.318   9.012  1.00  0.00     0.165 HD
HETATM    3  N   UNK N   1      21.879  11.645  11.406  0.00  0.00    -0.372 N 
ATOM      4  HN  UNK N   1      21.577  10.919  12.056  1.00  0.00     0.164 HD
HETATM    5  C   UNK N   1      21.379  13.525  10.026  0.00  0.00     0.116 A 
HETATM    6  C   UNK N   1      20.969  12.527  10.918  0.00  0.00     0.122 A 
HETATM    7  C   UNK N   1      23.600  12.709  10.151  0.00  0.00     0.105 A 
HETATM    8  C   UNK N   1      23.187  11.715  11.041  0.00  0.00     0.104 A 
ENDROOT
BRANCH   5   9
HETATM    9  C   UNK N   1      20.404  14.491   9.487  0.00  0.00     0.267 C 
HETATM   10  O   UNK N   1      19.212  14.351   9.710  0.00  0.00    -0.266 OA
HETATM   11  N   UNK N   1      20.823  15.535   8.743  0.00  0.00    -0.365 N 
HETATM   12  H   UNK N   1      21.783  15.655   8.558  0.00  0.00     0.159 HD
HETATM   13  H   UNK N   1      20.170  16.179   8.384  0.00  0.00     0.159 HD
ENDBRANCH   5   9
TORSDOF 1
ENDMDL
MODEL 4
REMARK VINA RESULT:      -4.2      2.280      4.029
REMARK  1 active torsions:
REMARK  status: ('A' for Active; 'I' for Inactive)
REMARK       I    between atoms: N_6  and  C_9 
REMARK    1  A    between atoms: C_7  and  C_9 
ROOT
HETATM    1  N   UNK N   1      33.835  17.618   6.248  0.00  0.00    -0.359 N 
ATOM      2  HN  UNK N   1      34.807  17.757   5.973  1.00  0.00     0.165 HD
HETATM    3  N   UNK N   1      31.225  17.242   6.985  0.00  0.00    -0.372 N 
ATOM      4  HN  UNK N   1      30.252  17.102   7.260  1.00  0.00     0.164 HD
HETATM    5  C   UNK N   1      33.481  17.760   7.557  0.00  0.00     0.116 A 
HETATM    6  C   UNK N   1      32.146  17.567   7.929  0.00  0.00     0.122 A 
HETATM    7  C   UNK N   1      32.911  17.291   5.305  0.00  0.00     0.105 A 
HETATM    8  C   UNK N   1      31.580  17.100   5.681  0.00  0.00     0.104 A 
ENDROOT
BRANCH   5   9
HETATM    9  C   UNK N   1      34.494  18.115   8.569  0.00  0.00     0.267 C 
HETATM   10  O   UNK N   1      35.209  19.090   8.408  0.00  0.00    -0.266 OA
HETATM   11  N   UNK N   1      34.637  17.362   9.679  0.00  0.00    -0.365 N 
HETATM   12  H   UNK N   1      34.064  16.572   9.817  0.00  0.00     0.159 HD
HETATM   13  H   UNK N   1      35.315  17.600  10.353  0.00  0.00     0.159 HD
ENDBRANCH   5   9
TORSDOF 1
ENDMDL
MODEL 5
REMARK VINA RESULT:      -4.2     15.340     16.133
REMARK  1 active torsions:
REMARK  status: ('A' for Active; 'I' for Inactive)
REMARK       I    between atoms: N_6  and  C_9 
REMARK    1  A    between atoms: C_7  and  C_9 
ROOT
HETATM    1  N   UNK N   1      20.225  18.395   0.802  0.00  0.00    -0.359 N 
ATOM      2  HN  UNK N   1      20.088  18.827  -0.112  1.00  0.00     0.165 HD
HETATM    3  N   UNK N   1      20.592  17.233   3.254  0.00  0.00    -0.372 N 
ATOM      4  HN  UNK N   1      20.729  16.801   4.167  1.00  0.00     0.164 HD
HETATM    5  C   UNK N   1      20.628  19.163   1.853  0.00  0.00     0.116 A 
HETATM    6  C   UNK N   1      20.814  18.566   3.104  0.00  0.00     0.122 A 
HETATM    7  C   UNK N   1      20.004  17.062   0.953  0.00  0.00     0.105 A 
HETATM    8  C   UNK N   1      20.191  16.469   2.203  0.00  0.00     0.104 A 
ENDROOT
BRANCH   5   9
HETATM    9  C   UNK N   1      20.864  20.608   1.673  0.00  0.00     0.267 C 
HETATM   10  O   UNK N   1      21.525  21.229   2.489  0.00  0.00    -0.266 OA
HETATM   11  N   UNK N   1      20.350  21.253   0.605  0.00  0.00    -0.365 N 
HETATM   12  H   UNK N   1      19.815  20.758  -0.058  0.00  0.00     0.159 HD
HETATM   13  H   UNK N   1      20.509  22.217   0.488  0.00  0.00     0.159 HD
ENDBRANCH   5   9
TORSDOF 1
ENDMDL
MODEL 6
REMARK VINA RESULT:      -4.1     15.779     16.506
REMARK  1 active torsions:
REMARK  status: ('A' for Active; 'I' for Inactive)
REMARK       I    between atoms: N_6  and  C_9 
REMARK    1  A    between atoms: C_7  and  C_9 
ROOT
HETATM    1  N   UNK N   1      20.482  19.573   0.985  0.00  0.00    -0.359 N 
ATOM      2  HN  UNK N   1      20.408  19.599  -0.032  1.00  0.00     0.165 HD
HETATM    3  N   UNK N   1      20.681  19.505   3.715  0.00  0.00    -0.372 N 
ATOM      4  HN  UNK N   1      20.756  19.480   4.732  1.00  0.00     0.164 HD
HETATM    5  C   UNK N   1      20.334  18.386   1.638  0.00  0.00     0.116 A 
HETATM    6  C   UNK N   1      20.436  18.356   3.033  0.00  0.00     0.122 A 
HETATM    7  C   UNK N   1      20.728  20.723   1.669  0.00  0.00     0.105 A 
HETATM    8  C   UNK N   1      20.829  20.688   3.061  0.00  0.00     0.104 A 
ENDROOT
BRANCH   5   9
HETATM    9  C   UNK N   1      20.068  17.147   0.882  0.00  0.00     0.267 C 
HETATM   10  O   UNK N   1      20.330  17.086  -0.308  0.00  0.00    -0.266 OA
HETATM   11  N   UNK N   1      19.533  16.075   1.502  0.00  0.00    -0.365 N 
HETATM   12  H   UNK N   1      19.319  16.117   2.462  0.00  0.00     0.159 HD
HETATM   13  H   UNK N   1      19.357  15.250   0.994  0.00  0.00     0.159 HD
ENDBRANCH   5   9
TORSDOF 1
ENDMDL
MODEL 7
REMARK VINA RESULT:      -4.1      2.296      3.768
REMARK  1 active torsions:
REMARK  status: ('A' for Active; 'I' for Inactive)
REMARK       I    between atoms: N_6  and  C_9 
REMARK    1  A    between atoms: C_7  and  C_9 
ROOT
HETATM    1  N   UNK N   1      32.065  17.687   8.735  0.00  0.00    -0.359 N 
ATOM      2  HN  UNK N   1      32.092  17.867   9.739  1.00  0.00     0.165 HD
HETATM    3  N   UNK N   1      31.993  17.201   6.042  0.00  0.00    -0.372 N 
ATOM      4  HN  UNK N   1      31.965  17.021   5.038  1.00  0.00     0.164 HD
HETATM    5  C   UNK N   1      33.215  17.777   8.007  0.00  0.00     0.116 A 
HETATM    6  C   UNK N   1      33.172  17.528   6.631  0.00  0.00     0.122 A 
HETATM    7  C   UNK N   1      30.886  17.360   8.144  0.00  0.00     0.105 A 
HETATM    8  C   UNK N   1      30.848  17.112   6.770  0.00  0.00     0.104 A 
ENDROOT
BRANCH   5   9
HETATM    9  C   UNK N   1      34.487  18.133   8.663  0.00  0.00     0.267 C 
HETATM   10  O   UNK N   1      35.094  19.135   8.323  0.00  0.00    -0.266 OA
HETATM   11  N   UNK N   1      34.987  17.353   9.644  0.00  0.00    -0.365 N 
HETATM   12  H   UNK N   1      34.503  16.542   9.924  0.00  0.00     0.159 HD
HETATM   13  H   UNK N   1      35.836  17.593  10.080  0.00  0.00     0.159 HD
ENDBRANCH   5   9
TORSDOF 1
ENDMDL
MODEL 8
REMARK VINA RESULT:      -4.0      2.819      4.472
REMARK  1 active torsions:
REMARK  status: ('A' for Active; 'I' for Inactive)
REMARK       I    between atoms: N_6  and  C_9 
REMARK    1  A    between atoms: C_7  and  C_9 
ROOT
HETATM    1  N   UNK N   1      33.767  14.576  10.527  0.00  0.00    -0.359 N 
ATOM      2  HN  UNK N   1      33.432  13.638  10.748  1.00  0.00     0.165 HD
HETATM    3  N   UNK N   1      34.665  17.093   9.933  0.00  0.00    -0.372 N 
ATOM      4  HN  UNK N   1      34.999  18.031   9.711  1.00  0.00     0.164 HD
HETATM    5  C   UNK N   1      34.753  15.132  11.287  0.00  0.00     0.116 A 
HETATM    6  C   UNK N   1      35.208  16.418  10.980  0.00  0.00     0.122 A 
HETATM    7  C   UNK N   1      33.224  15.252   9.480  0.00  0.00     0.105 A 
HETATM    8  C   UNK N   1      33.682  16.536   9.177  0.00  0.00     0.104 A 
ENDROOT
BRANCH   5   9
HETATM    9  C   UNK N   1      35.331  14.386  12.421  0.00  0.00     0.267 C 
HETATM   10  O   UNK N   1      34.750  13.416  12.878  0.00  0.00    -0.266 OA
HETATM   11  N   UNK N   1      36.507  14.771  12.958  0.00  0.00    -0.365 N 
HETATM   12  H   UNK N   1      36.982  15.554  12.594  0.00  0.00     0.159 HD
HETATM   13  H   UNK N   1      36.891  14.272  13.714  0.00  0.00     0.159 HD
ENDBRANCH   5   9
TORSDOF 1
ENDMDL
MODEL 9
REMARK VINA RESULT:      -3.9      1.828      3.647
REMARK  1 active torsions:
REMARK  status: ('A' for Active; 'I' for Inactive)
REMARK       I    between atoms: N_6  and  C_9 
REMARK    1  A    between atoms: C_7  and  C_9 
ROOT
HETATM    1  N   UNK N   1      32.586  16.473   9.048  0.00  0.00    -0.359 N 
ATOM      2  HN  UNK N   1      32.248  16.007   9.890  1.00  0.00     0.165 HD
HETATM    3  N   UNK N   1      33.494  17.721   6.786  0.00  0.00    -0.372 N 
ATOM      4  HN  UNK N   1      33.832  18.186   5.944  1.00  0.00     0.164 HD
HETATM    5  C   UNK N   1      33.875  16.914   8.998  0.00  0.00     0.116 A 
HETATM    6  C   UNK N   1      34.334  17.552   7.840  0.00  0.00     0.122 A 
HETATM    7  C   UNK N   1      31.747  16.643   7.992  0.00  0.00     0.105 A 
HETATM    8  C   UNK N   1      32.209  17.280   6.839  0.00  0.00     0.104 A 
ENDROOT
BRANCH   5   9
HETATM    9  C   UNK N   1      34.775  16.722  10.151  0.00  0.00     0.267 C 
HETATM   10  O   UNK N   1      35.729  17.463  10.316  0.00  0.00    -0.266 OA
HETATM   11  N   UNK N   1      34.547  15.725  11.031  0.00  0.00    -0.365 N 
HETATM   12  H   UNK N   1      33.779  15.122  10.904  0.00  0.00     0.159 HD
HETATM   13  H   UNK N   1      35.149  15.599  11.799  0.00  0.00     0.159 HD
ENDBRANCH   5   9
TORSDOF 1
ENDMDL
