REMARK  1 active torsions:
REMARK  status: ('A' for Active; 'I' for Inactive)
REMARK       I    between atoms: N_6  and  C_9 
REMARK    1  A    between atoms: C_7  and  C_9 
ROOT
HETATM    1  N   UNK N   1       4.544  -0.877   0.000  0.00  0.00    -0.359 N 
ATOM      2  HN  UNK N   1       4.547  -1.897   0.000  1.00  0.00     0.165 HD
HETATM    3  N   UNK N   1       4.538   1.861   0.000  0.00  0.00    -0.372 N 
ATOM      4  HN  UNK N   1       4.536   2.881   0.000  1.00  0.00     0.164 HD
HETATM    5  C   UNK N   1       3.355  -0.210   0.000  0.00  0.00     0.116 A 
HETATM    6  C   UNK N   1       3.357   1.189   0.000  0.00  0.00     0.122 A 
HETATM    7  C   UNK N   1       5.725  -0.203   0.000  0.00  0.00     0.105 A 
HETATM    8  C   UNK N   1       5.722   1.193   0.000  0.00  0.00     0.104 A 
ENDROOT
BRANCH   5   9
HETATM    9  C   UNK N   1       2.082  -0.955  -0.000  0.00  0.00     0.267 C 
HETATM   10  O   UNK N   1       2.084  -2.175  -0.000  0.00  0.00    -0.266 OA
HETATM   11  N   UNK N   1       0.907  -0.292  -0.000  0.00  0.00    -0.365 N 
HETATM   12  H   UNK N   1       0.897   0.693  -0.000  0.00  0.00     0.159 HD
HETATM   13  H   UNK N   1       0.059  -0.792  -0.000  0.00  0.00     0.159 HD
ENDBRANCH   5   9
TORSDOF 1
