MODEL 1
REMARK VINA RESULT:      -7.3      0.000      0.000
REMARK  9 active torsions:
REMARK  status: ('A' for Active; 'I' for Inactive)
REMARK    1  A    between atoms: O_2  and  C_15 
REMARK    2  A    between atoms: O_2  and  C_26 
REMARK    3  A    between atoms: O_3  and  C_27 
REMARK    4  A    between atoms: N_5  and  C_11 
REMARK    5  A    between atoms: N_6  and  C_12 
REMARK    6  A    between atoms: C_11  and  C_13 
REMARK    7  A    between atoms: C_11  and  C_14 
REMARK    8  A    between atoms: C_12  and  C_15 
REMARK    9  A    between atoms: C_26  and  C_27 
ROOT
HETATM    1  N   UNK N   1      36.279  13.008  13.184  0.00  0.00     0.105 N 
HETATM    2  N   UNK N   1      35.859  13.950  10.490  0.00  0.00     0.093 N 
HETATM    3  C   UNK N   1      35.631  14.297  12.949  0.00  0.00     0.304 C 
HETATM    4  C   UNK N   1      35.744  12.122  12.148  0.00  0.00     0.304 C 
HETATM    5  C   UNK N   1      36.126  14.865  11.616  0.00  0.00     0.302 C 
HETATM    6  C   UNK N   1      36.283  12.578  10.792  0.00  0.00     0.302 C 
ENDROOT
BRANCH   1   7
HETATM    7  C   UNK N   1      35.988  12.449  14.528  0.00  0.00     0.289 C 
BRANCH   7   8
HETATM    8  C   UNK N   1      36.795  11.174  14.788  0.00  0.00    -0.021 A 
HETATM    9  C   UNK N   1      38.136  11.100  14.384  0.00  0.00     0.011 A 
HETATM   10  C   UNK N   1      38.900   9.963  14.674  0.00  0.00     0.024 A 
HETATM   11  C   UNK N   1      38.332   8.896  15.379  0.00  0.00     0.034 A 
HETATM   12 Cl   UNK N   1      39.295   7.491  15.780  0.00  0.00    -0.084 Cl
HETATM   13  C   UNK N   1      36.998   8.955  15.775  0.00  0.00     0.024 A 
HETATM   14  C   UNK N   1      36.233  10.082  15.477  0.00  0.00     0.011 A 
ENDBRANCH   7   8
BRANCH   7  15
HETATM   15  C   UNK N   1      36.154  13.488  15.645  0.00  0.00    -0.021 A 
HETATM   16  C   UNK N   1      35.367  13.398  16.807  0.00  0.00     0.010 A 
HETATM   17  C   UNK N   1      35.507  14.326  17.842  0.00  0.00     0.001 A 
HETATM   18  C   UNK N   1      36.445  15.352  17.736  0.00  0.00     0.000 A 
HETATM   19  C   UNK N   1      37.245  15.451  16.595  0.00  0.00     0.001 A 
HETATM   20  C   UNK N   1      37.101  14.525  15.555  0.00  0.00     0.010 A 
ENDBRANCH   7  15
ENDBRANCH   1   7
BRANCH   2  21
HETATM   21  C   UNK N   1      34.442  13.929  10.125  0.00  0.00     0.298 C 
BRANCH  21  22
HETATM   22  C   UNK N   1      33.857  15.328   9.985  0.00  0.00     0.198 C 
BRANCH  22  23
HETATM   23  O   UNK N   1      34.472  16.028   8.944  0.00  0.00    -0.379 OA
BRANCH  23  24
HETATM   24  C   UNK N   1      33.892  17.297   8.999  0.00  0.00     0.277 C 
BRANCH  24  25
HETATM   25  C   UNK N   1      34.570  18.236   8.048  0.00  0.00     0.164 C 
HETATM   26  O   UNK N   1      35.254  19.160   8.468  0.00  0.00    -0.648 OA
BRANCH  25  27
HETATM   27  O   UNK N   1      34.433  18.058   6.723  0.00  0.00    -0.775 OA
HETATM   28  H   UNK N   1      35.172  17.809   6.204  0.00  0.00     0.167 HD
ENDBRANCH  25  27
ENDBRANCH  24  25
ENDBRANCH  23  24
ENDBRANCH  22  23
ENDBRANCH  21  22
ENDBRANCH   2  21
TORSDOF 9
ENDMDL
MODEL 2
REMARK VINA RESULT:      -6.8      8.796     12.144
REMARK  9 active torsions:
REMARK  status: ('A' for Active; 'I' for Inactive)
REMARK    1  A    between atoms: O_2  and  C_15 
REMARK    2  A    between atoms: O_2  and  C_26 
REMARK    3  A    between atoms: O_3  and  C_27 
REMARK    4  A    between atoms: N_5  and  C_11 
REMARK    5  A    between atoms: N_6  and  C_12 
REMARK    6  A    between atoms: C_11  and  C_13 
REMARK    7  A    between atoms: C_11  and  C_14 
REMARK    8  A    between atoms: C_12  and  C_15 
REMARK    9  A    between atoms: C_26  and  C_27 
ROOT
HETATM    1  N   UNK N   1      30.133  17.107   5.205  0.00  0.00     0.105 N 
HETATM    2  N   UNK N   1      32.186  15.421   4.079  0.00  0.00     0.093 N 
HETATM    3  C   UNK N   1      31.037  16.365   6.081  0.00  0.00     0.304 C 
HETATM    4  C   UNK N   1      30.976  17.575   4.102  0.00  0.00     0.304 C 
HETATM    5  C   UNK N   1      31.512  15.105   5.352  0.00  0.00     0.302 C 
HETATM    6  C   UNK N   1      31.406  16.366   3.271  0.00  0.00     0.302 C 
ENDROOT
BRANCH   1   7
HETATM    7  C   UNK N   1      29.491  18.263   5.878  0.00  0.00     0.289 C 
BRANCH   7   8
HETATM    8  C   UNK N   1      28.269  18.755   5.097  0.00  0.00    -0.021 A 
HETATM    9  C   UNK N   1      27.931  20.117   5.111  0.00  0.00     0.011 A 
HETATM   10  C   UNK N   1      26.855  20.587   4.349  0.00  0.00     0.024 A 
HETATM   11  C   UNK N   1      26.115  19.700   3.559  0.00  0.00     0.034 A 
HETATM   12 Cl   UNK N   1      24.794  20.289   2.573  0.00  0.00    -0.084 Cl
HETATM   13  C   UNK N   1      26.435  18.344   3.546  0.00  0.00     0.024 A 
HETATM   14  C   UNK N   1      27.500  17.874   4.313  0.00  0.00     0.011 A 
ENDBRANCH   7   8
BRANCH   7  15
HETATM   15  C   UNK N   1      29.173  17.983   7.352  0.00  0.00    -0.021 A 
HETATM   16  C   UNK N   1      29.983  18.534   8.360  0.00  0.00     0.010 A 
HETATM   17  C   UNK N   1      29.708  18.301   9.710  0.00  0.00     0.001 A 
HETATM   18  C   UNK N   1      28.610  17.523  10.073  0.00  0.00     0.000 A 
HETATM   19  C   UNK N   1      27.785  16.977   9.087  0.00  0.00     0.001 A 
HETATM   20  C   UNK N   1      28.064  17.205   7.735  0.00  0.00     0.010 A 
ENDBRANCH   7  15
ENDBRANCH   1   7
BRANCH   2  21
HETATM   21  C   UNK N   1      33.521  15.982   4.290  0.00  0.00     0.298 C 
BRANCH  21  22
HETATM   22  C   UNK N   1      34.284  15.266   5.397  0.00  0.00     0.198 C 
BRANCH  22  23
HETATM   23  O   UNK N   1      35.013  16.172   6.171  0.00  0.00    -0.379 OA
BRANCH  23  24
HETATM   24  C   UNK N   1      34.443  16.069   7.442  0.00  0.00     0.277 C 
BRANCH  24  25
HETATM   25  C   UNK N   1      34.439  17.397   8.135  0.00  0.00     0.164 C 
HETATM   26  O   UNK N   1      34.687  18.423   7.514  0.00  0.00    -0.648 OA
BRANCH  25  27
HETATM   27  O   UNK N   1      34.153  17.466   9.446  0.00  0.00    -0.775 OA
HETATM   28  H   UNK N   1      34.237  18.279   9.903  0.00  0.00     0.167 HD
ENDBRANCH  25  27
ENDBRANCH  24  25
ENDBRANCH  23  24
ENDBRANCH  22  23
ENDBRANCH  21  22
ENDBRANCH   2  21
TORSDOF 9
ENDMDL
MODEL 3
REMARK VINA RESULT:      -6.8     13.621     16.340
REMARK  9 active torsions:
REMARK  status: ('A' for Active; 'I' for Inactive)
REMARK    1  A    between atoms: O_2  and  C_15 
REMARK    2  A    between atoms: O_2  and  C_26 
REMARK    3  A    between atoms: O_3  and  C_27 
REMARK    4  A    between atoms: N_5  and  C_11 
REMARK    5  A    between atoms: N_6  and  C_12 
REMARK    6  A    between atoms: C_11  and  C_13 
REMARK    7  A    between atoms: C_11  and  C_14 
REMARK    8  A    between atoms: C_12  and  C_15 
REMARK    9  A    between atoms: C_26  and  C_27 
ROOT
HETATM    1  N   UNK N   1      21.550  14.183   6.775  0.00  0.00     0.105 N 
HETATM    2  N   UNK N   1      20.572  16.808   6.083  0.00  0.00     0.093 N 
HETATM    3  C   UNK N   1      21.385  14.561   5.372  0.00  0.00     0.304 C 
HETATM    4  C   UNK N   1      22.076  15.383   7.430  0.00  0.00     0.304 C 
HETATM    5  C   UNK N   1      20.279  15.614   5.268  0.00  0.00     0.302 C 
HETATM    6  C   UNK N   1      20.980  16.449   7.446  0.00  0.00     0.302 C 
ENDROOT
BRANCH   1   7
HETATM    7  C   UNK N   1      22.488  13.049   6.965  0.00  0.00     0.289 C 
BRANCH   7   8
HETATM    8  C   UNK N   1      22.654  12.705   8.447  0.00  0.00    -0.021 A 
HETATM    9  C   UNK N   1      23.938  12.534   8.986  0.00  0.00     0.011 A 
HETATM   10  C   UNK N   1      24.103  12.283  10.354  0.00  0.00     0.024 A 
HETATM   11  C   UNK N   1      22.987  12.212  11.195  0.00  0.00     0.034 A 
HETATM   12 Cl   UNK N   1      23.192  11.940  12.911  0.00  0.00    -0.084 Cl
HETATM   13  C   UNK N   1      21.707  12.370  10.668  0.00  0.00     0.024 A 
HETATM   14  C   UNK N   1      21.541  12.609   9.304  0.00  0.00     0.011 A 
ENDBRANCH   7   8
BRANCH   7  15
HETATM   15  C   UNK N   1      22.113  11.827   6.115  0.00  0.00    -0.021 A 
HETATM   16  C   UNK N   1      20.787  11.361   6.107  0.00  0.00     0.010 A 
HETATM   17  C   UNK N   1      20.419  10.257   5.334  0.00  0.00     0.001 A 
HETATM   18  C   UNK N   1      21.371   9.609   4.547  0.00  0.00     0.000 A 
HETATM   19  C   UNK N   1      22.691  10.066   4.532  0.00  0.00     0.001 A 
HETATM   20  C   UNK N   1      23.061  11.168   5.311  0.00  0.00     0.010 A 
ENDBRANCH   7  15
ENDBRANCH   1   7
BRANCH   2  21
HETATM   21  C   UNK N   1      21.622  17.635   5.487  0.00  0.00     0.298 C 
BRANCH  21  22
HETATM   22  C   UNK N   1      21.159  18.335   4.216  0.00  0.00     0.198 C 
BRANCH  22  23
HETATM   23  O   UNK N   1      20.927  19.693   4.446  0.00  0.00    -0.379 OA
BRANCH  23  24
HETATM   24  C   UNK N   1      20.420  20.161   3.231  0.00  0.00     0.277 C 
BRANCH  24  25
HETATM   25  C   UNK N   1      21.515  20.721   2.376  0.00  0.00     0.164 C 
HETATM   26  O   UNK N   1      22.422  21.375   2.876  0.00  0.00    -0.648 OA
BRANCH  25  27
HETATM   27  O   UNK N   1      21.509  20.498   1.051  0.00  0.00    -0.775 OA
HETATM   28  H   UNK N   1      20.696  20.411   0.593  0.00  0.00     0.167 HD
ENDBRANCH  25  27
ENDBRANCH  24  25
ENDBRANCH  23  24
ENDBRANCH  22  23
ENDBRANCH  21  22
ENDBRANCH   2  21
TORSDOF 9
ENDMDL
MODEL 4
REMARK VINA RESULT:      -6.5      8.888     13.050
REMARK  9 active torsions:
REMARK  status: ('A' for Active; 'I' for Inactive)
REMARK    1  A    between atoms: O_2  and  C_15 
REMARK    2  A    between atoms: O_2  and  C_26 
REMARK    3  A    between atoms: O_3  and  C_27 
REMARK    4  A    between atoms: N_5  and  C_11 
REMARK    5  A    between atoms: N_6  and  C_12 
REMARK    6  A    between atoms: C_11  and  C_13 
REMARK    7  A    between atoms: C_11  and  C_14 
REMARK    8  A    between atoms: C_12  and  C_15 
REMARK    9  A    between atoms: C_26  and  C_27 
ROOT
HETATM    1  N   UNK N   1      29.896  16.270   4.112  0.00  0.00     0.105 N 
HETATM    2  N   UNK N   1      32.721  15.870   3.686  0.00  0.00     0.093 N 
HETATM    3  C   UNK N   1      30.450  14.918   4.076  0.00  0.00     0.304 C 
HETATM    4  C   UNK N   1      30.891  17.066   4.834  0.00  0.00     0.304 C 
HETATM    5  C   UNK N   1      31.705  14.918   3.199  0.00  0.00     0.302 C 
HETATM    6  C   UNK N   1      32.142  17.188   3.965  0.00  0.00     0.302 C 
ENDROOT
BRANCH   1   7
HETATM    7  C   UNK N   1      28.586  16.343   4.805  0.00  0.00     0.289 C 
BRANCH   7   8
HETATM    8  C   UNK N   1      28.251  17.779   5.214  0.00  0.00    -0.021 A 
HETATM    9  C   UNK N   1      27.924  18.728   4.234  0.00  0.00     0.011 A 
HETATM   10  C   UNK N   1      27.553  20.027   4.602  0.00  0.00     0.024 A 
HETATM   11  C   UNK N   1      27.497  20.385   5.954  0.00  0.00     0.034 A 
HETATM   12 Cl   UNK N   1      26.995  21.995   6.420  0.00  0.00    -0.084 Cl
HETATM   13  C   UNK N   1      27.831  19.454   6.935  0.00  0.00     0.024 A 
HETATM   14  C   UNK N   1      28.211  18.163   6.568  0.00  0.00     0.011 A 
ENDBRANCH   7   8
BRANCH   7  15
HETATM   15  C   UNK N   1      27.459  15.681   4.003  0.00  0.00    -0.021 A 
HETATM   16  C   UNK N   1      27.470  15.742   2.599  0.00  0.00     0.010 A 
HETATM   17  C   UNK N   1      26.459  15.138   1.845  0.00  0.00     0.001 A 
HETATM   18  C   UNK N   1      25.428  14.453   2.486  0.00  0.00     0.000 A 
HETATM   19  C   UNK N   1      25.407  14.369   3.881  0.00  0.00     0.001 A 
HETATM   20  C   UNK N   1      26.415  14.979   4.635  0.00  0.00     0.010 A 
ENDBRANCH   7  15
ENDBRANCH   1   7
BRANCH   2  21
HETATM   21  C   UNK N   1      33.387  15.389   4.897  0.00  0.00     0.298 C 
BRANCH  21  22
HETATM   22  C   UNK N   1      34.124  16.499   5.635  0.00  0.00     0.198 C 
BRANCH  22  23
HETATM   23  O   UNK N   1      33.759  16.535   6.983  0.00  0.00    -0.379 OA
BRANCH  23  24
HETATM   24  C   UNK N   1      33.703  17.897   7.284  0.00  0.00     0.277 C 
BRANCH  24  25
HETATM   25  C   UNK N   1      34.534  18.212   8.490  0.00  0.00     0.164 C 
HETATM   26  O   UNK N   1      35.294  19.171   8.488  0.00  0.00    -0.648 OA
BRANCH  25  27
HETATM   27  O   UNK N   1      34.437  17.443   9.587  0.00  0.00    -0.775 OA
HETATM   28  H   UNK N   1      34.956  17.636  10.344  0.00  0.00     0.167 HD
ENDBRANCH  25  27
ENDBRANCH  24  25
ENDBRANCH  23  24
ENDBRANCH  22  23
ENDBRANCH  21  22
ENDBRANCH   2  21
TORSDOF 9
ENDMDL
MODEL 5
REMARK VINA RESULT:      -6.4     10.050     12.948
REMARK  9 active torsions:
REMARK  status: ('A' for Active; 'I' for Inactive)
REMARK    1  A    between atoms: O_2  and  C_15 
REMARK    2  A    between atoms: O_2  and  C_26 
REMARK    3  A    between atoms: O_3  and  C_27 
REMARK    4  A    between atoms: N_5  and  C_11 
REMARK    5  A    between atoms: N_6  and  C_12 
REMARK    6  A    between atoms: C_11  and  C_13 
REMARK    7  A    between atoms: C_11  and  C_14 
REMARK    8  A    between atoms: C_12  and  C_15 
REMARK    9  A    between atoms: C_26  and  C_27 
ROOT
HETATM    1  N   UNK N   1      27.511  16.435   5.448  0.00  0.00     0.105 N 
HETATM    2  N   UNK N   1      26.122  13.995   4.784  0.00  0.00     0.093 N 
HETATM    3  C   UNK N   1      26.096  16.280   5.781  0.00  0.00     0.304 C 
HETATM    4  C   UNK N   1      28.109  15.126   5.721  0.00  0.00     0.304 C 
HETATM    5  C   UNK N   1      25.455  15.311   4.785  0.00  0.00     0.302 C 
HETATM    6  C   UNK N   1      27.581  14.125   4.693  0.00  0.00     0.302 C 
ENDROOT
BRANCH   1   7
HETATM    7  C   UNK N   1      28.187  17.480   6.256  0.00  0.00     0.289 C 
BRANCH   7   8
HETATM    8  C   UNK N   1      29.710  17.374   6.143  0.00  0.00    -0.021 A 
HETATM    9  C   UNK N   1      30.485  17.162   7.294  0.00  0.00     0.011 A 
HETATM   10  C   UNK N   1      31.871  16.999   7.194  0.00  0.00     0.024 A 
HETATM   11  C   UNK N   1      32.494  17.036   5.941  0.00  0.00     0.034 A 
HETATM   12 Cl   UNK N   1      34.222  16.792   5.807  0.00  0.00    -0.084 Cl
HETATM   13  C   UNK N   1      31.736  17.257   4.793  0.00  0.00     0.024 A 
HETATM   14  C   UNK N   1      30.356  17.430   4.893  0.00  0.00     0.011 A 
ENDBRANCH   7   8
BRANCH   7  15
HETATM   15  C   UNK N   1      27.671  18.890   5.944  0.00  0.00    -0.021 A 
HETATM   16  C   UNK N   1      27.304  19.227   4.630  0.00  0.00     0.010 A 
HETATM   17  C   UNK N   1      26.821  20.501   4.322  0.00  0.00     0.001 A 
HETATM   18  C   UNK N   1      26.686  21.457   5.330  0.00  0.00     0.000 A 
HETATM   19  C   UNK N   1      27.032  21.137   6.645  0.00  0.00     0.001 A 
HETATM   20  C   UNK N   1      27.522  19.863   6.951  0.00  0.00     0.010 A 
ENDBRANCH   7  15
ENDBRANCH   1   7
BRANCH   2  21
HETATM   21  C   UNK N   1      25.799  13.215   5.979  0.00  0.00     0.298 C 
BRANCH  21  22
HETATM   22  C   UNK N   1      24.298  13.051   6.178  0.00  0.00     0.198 C 
BRANCH  22  23
HETATM   23  O   UNK N   1      23.906  13.497   7.442  0.00  0.00    -0.379 OA
BRANCH  23  24
HETATM   24  C   UNK N   1      25.083  13.462   8.194  0.00  0.00     0.277 C 
BRANCH  24  25
HETATM   25  C   UNK N   1      24.783  13.251   9.646  0.00  0.00     0.164 C 
HETATM   26  O   UNK N   1      23.687  12.836  10.001  0.00  0.00    -0.648 OA
BRANCH  25  27
HETATM   27  O   UNK N   1      25.727  13.508  10.567  0.00  0.00    -0.775 OA
HETATM   28  H   UNK N   1      26.232  14.295  10.515  0.00  0.00     0.167 HD
ENDBRANCH  25  27
ENDBRANCH  24  25
ENDBRANCH  23  24
ENDBRANCH  22  23
ENDBRANCH  21  22
ENDBRANCH   2  21
TORSDOF 9
ENDMDL
MODEL 6
REMARK VINA RESULT:      -6.3     20.033     25.376
REMARK  9 active torsions:
REMARK  status: ('A' for Active; 'I' for Inactive)
REMARK    1  A    between atoms: O_2  and  C_15 
REMARK    2  A    between atoms: O_2  and  C_26 
REMARK    3  A    between atoms: O_3  and  C_27 
REMARK    4  A    between atoms: N_5  and  C_11 
REMARK    5  A    between atoms: N_6  and  C_12 
REMARK    6  A    between atoms: C_11  and  C_13 
REMARK    7  A    between atoms: C_11  and  C_14 
REMARK    8  A    between atoms: C_12  and  C_15 
REMARK    9  A    between atoms: C_26  and  C_27 
ROOT
HETATM    1  N   UNK N   1      27.837  25.024  -6.851  0.00  0.00     0.105 N 
HETATM    2  N   UNK N   1      28.746  22.404  -6.056  0.00  0.00     0.093 N 
HETATM    3  C   UNK N   1      28.652  24.862  -5.648  0.00  0.00     0.304 C 
HETATM    4  C   UNK N   1      28.413  24.095  -7.825  0.00  0.00     0.304 C 
HETATM    5  C   UNK N   1      28.423  23.460  -5.078  0.00  0.00     0.302 C 
HETATM    6  C   UNK N   1      28.131  22.666  -7.362  0.00  0.00     0.302 C 
ENDROOT
BRANCH   1   7
HETATM    7  C   UNK N   1      27.865  26.406  -7.389  0.00  0.00     0.289 C 
BRANCH   7   8
HETATM    8  C   UNK N   1      27.160  26.491  -8.745  0.00  0.00    -0.021 A 
HETATM    9  C   UNK N   1      27.857  26.964  -9.868  0.00  0.00     0.011 A 
HETATM   10  C   UNK N   1      27.242  26.984 -11.125  0.00  0.00     0.024 A 
HETATM   11  C   UNK N   1      25.930  26.523 -11.273  0.00  0.00     0.034 A 
HETATM   12 Cl   UNK N   1      25.171  26.508 -12.850  0.00  0.00    -0.084 Cl
HETATM   13  C   UNK N   1      25.225  26.061 -10.163  0.00  0.00     0.024 A 
HETATM   14  C   UNK N   1      25.833  26.050  -8.908  0.00  0.00     0.011 A 
ENDBRANCH   7   8
BRANCH   7  15
HETATM   15  C   UNK N   1      27.336  27.439  -6.385  0.00  0.00    -0.021 A 
HETATM   16  C   UNK N   1      26.220  27.131  -5.587  0.00  0.00     0.010 A 
HETATM   17  C   UNK N   1      25.726  28.051  -4.658  0.00  0.00     0.001 A 
HETATM   18  C   UNK N   1      26.348  29.290  -4.506  0.00  0.00     0.000 A 
HETATM   19  C   UNK N   1      27.466  29.609  -5.281  0.00  0.00     0.001 A 
HETATM   20  C   UNK N   1      27.957  28.690  -6.215  0.00  0.00     0.010 A 
ENDBRANCH   7  15
ENDBRANCH   1   7
BRANCH   2  21
HETATM   21  C   UNK N   1      30.189  22.253  -6.243  0.00  0.00     0.298 C 
BRANCH  21  22
HETATM   22  C   UNK N   1      30.786  21.189  -5.331  0.00  0.00     0.198 C 
BRANCH  22  23
HETATM   23  O   UNK N   1      32.050  21.570  -4.875  0.00  0.00    -0.379 OA
BRANCH  23  24
HETATM   24  C   UNK N   1      31.800  22.687  -4.076  0.00  0.00     0.277 C 
BRANCH  24  25
HETATM   25  C   UNK N   1      31.639  22.292  -2.639  0.00  0.00     0.164 C 
HETATM   26  O   UNK N   1      30.844  22.879  -1.918  0.00  0.00    -0.648 OA
BRANCH  25  27
HETATM   27  O   UNK N   1      32.367  21.278  -2.140  0.00  0.00    -0.775 OA
HETATM   28  H   UNK N   1      33.096  21.455  -1.580  0.00  0.00     0.167 HD
ENDBRANCH  25  27
ENDBRANCH  24  25
ENDBRANCH  23  24
ENDBRANCH  22  23
ENDBRANCH  21  22
ENDBRANCH   2  21
TORSDOF 9
ENDMDL
MODEL 7
REMARK VINA RESULT:      -6.2     12.177     14.960
REMARK  9 active torsions:
REMARK  status: ('A' for Active; 'I' for Inactive)
REMARK    1  A    between atoms: O_2  and  C_15 
REMARK    2  A    between atoms: O_2  and  C_26 
REMARK    3  A    between atoms: O_3  and  C_27 
REMARK    4  A    between atoms: N_5  and  C_11 
REMARK    5  A    between atoms: N_6  and  C_12 
REMARK    6  A    between atoms: C_11  and  C_13 
REMARK    7  A    between atoms: C_11  and  C_14 
REMARK    8  A    between atoms: C_12  and  C_15 
REMARK    9  A    between atoms: C_26  and  C_27 
ROOT
HETATM    1  N   UNK N   1      24.277  16.187   5.815  0.00  0.00     0.105 N 
HETATM    2  N   UNK N   1      22.330  18.222   5.189  0.00  0.00     0.093 N 
HETATM    3  C   UNK N   1      22.849  15.884   5.885  0.00  0.00     0.304 C 
HETATM    4  C   UNK N   1      24.425  17.037   4.632  0.00  0.00     0.304 C 
HETATM    5  C   UNK N   1      22.083  17.173   6.197  0.00  0.00     0.302 C 
HETATM    6  C   UNK N   1      23.763  18.385   4.914  0.00  0.00     0.302 C 
ENDROOT
BRANCH   1   7
HETATM    7  C   UNK N   1      25.121  14.974   5.678  0.00  0.00     0.289 C 
BRANCH   7   8
HETATM    8  C   UNK N   1      26.611  15.322   5.731  0.00  0.00    -0.021 A 
HETATM    9  C   UNK N   1      27.048  16.409   6.504  0.00  0.00     0.011 A 
HETATM   10  C   UNK N   1      28.414  16.697   6.611  0.00  0.00     0.024 A 
HETATM   11  C   UNK N   1      29.354  15.894   5.955  0.00  0.00     0.034 A 
HETATM   12 Cl   UNK N   1      31.065  16.225   6.119  0.00  0.00    -0.084 Cl
HETATM   13  C   UNK N   1      28.930  14.819   5.176  0.00  0.00     0.024 A 
HETATM   14  C   UNK N   1      27.569  14.539   5.061  0.00  0.00     0.011 A 
ENDBRANCH   7   8
BRANCH   7  15
HETATM   15  C   UNK N   1      24.737  13.874   6.676  0.00  0.00    -0.021 A 
HETATM   16  C   UNK N   1      25.074  14.013   8.034  0.00  0.00     0.010 A 
HETATM   17  C   UNK N   1      24.726  13.030   8.964  0.00  0.00     0.001 A 
HETATM   18  C   UNK N   1      24.026  11.897   8.552  0.00  0.00     0.000 A 
HETATM   19  C   UNK N   1      23.671  11.747   7.209  0.00  0.00     0.001 A 
HETATM   20  C   UNK N   1      24.024  12.729   6.276  0.00  0.00     0.010 A 
ENDBRANCH   7  15
ENDBRANCH   1   7
BRANCH   2  21
HETATM   21  C   UNK N   1      21.644  17.943   3.927  0.00  0.00     0.298 C 
BRANCH  21  22
HETATM   22  C   UNK N   1      20.602  19.000   3.587  0.00  0.00     0.198 C 
BRANCH  22  23
HETATM   23  O   UNK N   1      21.187  20.262   3.465  0.00  0.00    -0.379 OA
BRANCH  23  24
HETATM   24  C   UNK N   1      21.864  20.206   2.245  0.00  0.00     0.277 C 
BRANCH  24  25
HETATM   25  C   UNK N   1      20.968  20.618   1.117  0.00  0.00     0.164 C 
HETATM   26  O   UNK N   1      20.555  21.767   1.039  0.00  0.00    -0.648 OA
BRANCH  25  27
HETATM   27  O   UNK N   1      20.621  19.721   0.178  0.00  0.00    -0.775 OA
HETATM   28  H   UNK N   1      20.818  18.814   0.299  0.00  0.00     0.167 HD
ENDBRANCH  25  27
ENDBRANCH  24  25
ENDBRANCH  23  24
ENDBRANCH  22  23
ENDBRANCH  21  22
ENDBRANCH   2  21
TORSDOF 9
ENDMDL
MODEL 8
REMARK VINA RESULT:      -6.2     13.662     16.306
REMARK  9 active torsions:
REMARK  status: ('A' for Active; 'I' for Inactive)
REMARK    1  A    between atoms: O_2  and  C_15 
REMARK    2  A    between atoms: O_2  and  C_26 
REMARK    3  A    between atoms: O_3  and  C_27 
REMARK    4  A    between atoms: N_5  and  C_11 
REMARK    5  A    between atoms: N_6  and  C_12 
REMARK    6  A    between atoms: C_11  and  C_13 
REMARK    7  A    between atoms: C_11  and  C_14 
REMARK    8  A    between atoms: C_12  and  C_15 
REMARK    9  A    between atoms: C_26  and  C_27 
ROOT
HETATM    1  N   UNK N   1      24.385  16.353   3.926  0.00  0.00     0.105 N 
HETATM    2  N   UNK N   1      21.529  15.974   4.076  0.00  0.00     0.093 N 
HETATM    3  C   UNK N   1      23.734  15.334   3.104  0.00  0.00     0.304 C 
HETATM    4  C   UNK N   1      23.468  17.495   3.908  0.00  0.00     0.304 C 
HETATM    5  C   UNK N   1      22.462  14.862   3.814  0.00  0.00     0.302 C 
HETATM    6  C   UNK N   1      22.209  17.121   4.688  0.00  0.00     0.302 C 
ENDROOT
BRANCH   1   7
HETATM    7  C   UNK N   1      25.713  16.760   3.403  0.00  0.00     0.289 C 
BRANCH   7   8
HETATM    8  C   UNK N   1      26.229  18.016   4.108  0.00  0.00    -0.021 A 
HETATM    9  C   UNK N   1      26.086  19.271   3.497  0.00  0.00     0.011 A 
HETATM   10  C   UNK N   1      26.496  20.433   4.162  0.00  0.00     0.024 A 
HETATM   11  C   UNK N   1      27.043  20.351   5.447  0.00  0.00     0.034 A 
HETATM   12 Cl   UNK N   1      27.519  21.803   6.298  0.00  0.00    -0.084 Cl
HETATM   13  C   UNK N   1      27.200  19.109   6.058  0.00  0.00     0.024 A 
HETATM   14  C   UNK N   1      26.802  17.950   5.393  0.00  0.00     0.011 A 
ENDBRANCH   7   8
BRANCH   7  15
HETATM   15  C   UNK N   1      26.730  15.612   3.425  0.00  0.00    -0.021 A 
HETATM   16  C   UNK N   1      26.746  14.711   4.505  0.00  0.00     0.010 A 
HETATM   17  C   UNK N   1      27.656  13.652   4.543  0.00  0.00     0.001 A 
HETATM   18  C   UNK N   1      28.558  13.470   3.495  0.00  0.00     0.000 A 
HETATM   19  C   UNK N   1      28.549  14.346   2.407  0.00  0.00     0.001 A 
HETATM   20  C   UNK N   1      27.642  15.411   2.371  0.00  0.00     0.010 A 
ENDBRANCH   7  15
ENDBRANCH   1   7
BRANCH   2  21
HETATM   21  C   UNK N   1      20.859  16.428   2.857  0.00  0.00     0.298 C 
BRANCH  21  22
HETATM   22  C   UNK N   1      19.950  17.625   3.104  0.00  0.00     0.198 C 
BRANCH  22  23
HETATM   23  O   UNK N   1      20.076  18.570   2.084  0.00  0.00    -0.379 OA
BRANCH  23  24
HETATM   24  C   UNK N   1      20.277  19.775   2.761  0.00  0.00     0.277 C 
BRANCH  24  25
HETATM   25  C   UNK N   1      21.335  20.596   2.089  0.00  0.00     0.164 C 
HETATM   26  O   UNK N   1      22.140  21.236   2.752  0.00  0.00    -0.648 OA
BRANCH  25  27
HETATM   27  O   UNK N   1      21.407  20.624   0.747  0.00  0.00    -0.775 OA
HETATM   28  H   UNK N   1      20.782  20.153   0.233  0.00  0.00     0.167 HD
ENDBRANCH  25  27
ENDBRANCH  24  25
ENDBRANCH  23  24
ENDBRANCH  22  23
ENDBRANCH  21  22
ENDBRANCH   2  21
TORSDOF 9
ENDMDL
MODEL 9
REMARK VINA RESULT:      -6.2      7.868     11.299
REMARK  9 active torsions:
REMARK  status: ('A' for Active; 'I' for Inactive)
REMARK    1  A    between atoms: O_2  and  C_15 
REMARK    2  A    between atoms: O_2  and  C_26 
REMARK    3  A    between atoms: O_3  and  C_27 
REMARK    4  A    between atoms: N_5  and  C_11 
REMARK    5  A    between atoms: N_6  and  C_12 
REMARK    6  A    between atoms: C_11  and  C_13 
REMARK    7  A    between atoms: C_11  and  C_14 
REMARK    8  A    between atoms: C_12  and  C_15 
REMARK    9  A    between atoms: C_26  and  C_27 
ROOT
HETATM    1  N   UNK N   1      30.277  16.521   6.293  0.00  0.00     0.105 N 
HETATM    2  N   UNK N   1      27.397  16.578   6.440  0.00  0.00     0.093 N 
HETATM    3  C   UNK N   1      29.474  16.173   5.122  0.00  0.00     0.304 C 
HETATM    4  C   UNK N   1      29.574  17.646   6.913  0.00  0.00     0.304 C 
HETATM    5  C   UNK N   1      28.127  15.617   5.592  0.00  0.00     0.302 C 
HETATM    6  C   UNK N   1      28.254  17.136   7.491  0.00  0.00     0.302 C 
ENDROOT
BRANCH   1   7
HETATM    7  C   UNK N   1      31.665  16.918   5.948  0.00  0.00     0.289 C 
BRANCH   7   8
HETATM    8  C   UNK N   1      32.565  16.929   7.186  0.00  0.00    -0.021 A 
HETATM    9  C   UNK N   1      32.468  15.897   8.132  0.00  0.00     0.011 A 
HETATM   10  C   UNK N   1      33.331  15.863   9.234  0.00  0.00     0.024 A 
HETATM   11  C   UNK N   1      34.305  16.856   9.394  0.00  0.00     0.034 A 
HETATM   12 Cl   UNK N   1      35.412  16.795  10.747  0.00  0.00    -0.084 Cl
HETATM   13  C   UNK N   1      34.403  17.891   8.466  0.00  0.00     0.024 A 
HETATM   14  C   UNK N   1      33.537  17.931   7.375  0.00  0.00     0.011 A 
ENDBRANCH   7   8
BRANCH   7  15
HETATM   15  C   UNK N   1      32.249  16.080   4.803  0.00  0.00    -0.021 A 
HETATM   16  C   UNK N   1      32.839  16.720   3.699  0.00  0.00     0.010 A 
HETATM   17  C   UNK N   1      33.386  15.979   2.648  0.00  0.00     0.001 A 
HETATM   18  C   UNK N   1      33.363  14.585   2.692  0.00  0.00     0.000 A 
HETATM   19  C   UNK N   1      32.793  13.932   3.788  0.00  0.00     0.001 A 
HETATM   20  C   UNK N   1      32.239  14.673   4.837  0.00  0.00     0.010 A 
ENDBRANCH   7  15
ENDBRANCH   1   7
BRANCH   2  21
HETATM   21  C   UNK N   1      26.838  17.684   5.661  0.00  0.00     0.298 C 
BRANCH  21  22
HETATM   22  C   UNK N   1      26.049  17.202   4.450  0.00  0.00     0.198 C 
BRANCH  22  23
HETATM   23  O   UNK N   1      25.036  18.104   4.119  0.00  0.00    -0.379 OA
BRANCH  23  24
HETATM   24  C   UNK N   1      25.722  19.229   3.656  0.00  0.00     0.277 C 
BRANCH  24  25
HETATM   25  C   UNK N   1      24.777  20.212   3.034  0.00  0.00     0.164 C 
HETATM   26  O   UNK N   1      23.666  20.395   3.514  0.00  0.00    -0.648 OA
BRANCH  25  27
HETATM   27  O   UNK N   1      25.154  20.906   1.947  0.00  0.00    -0.775 OA
HETATM   28  H   UNK N   1      25.723  20.514   1.314  0.00  0.00     0.167 HD
ENDBRANCH  25  27
ENDBRANCH  24  25
ENDBRANCH  23  24
ENDBRANCH  22  23
ENDBRANCH  21  22
ENDBRANCH   2  21
TORSDOF 9
ENDMDL
