REMARK  9 active torsions:
REMARK  status: ('A' for Active; 'I' for Inactive)
REMARK    1  A    between atoms: O_2  and  C_15 
REMARK    2  A    between atoms: O_2  and  C_26 
REMARK    3  A    between atoms: O_3  and  C_27 
REMARK    4  A    between atoms: N_5  and  C_11 
REMARK    5  A    between atoms: N_6  and  C_12 
REMARK    6  A    between atoms: C_11  and  C_13 
REMARK    7  A    between atoms: C_11  and  C_14 
REMARK    8  A    between atoms: C_12  and  C_15 
REMARK    9  A    between atoms: C_26  and  C_27 
ROOT
HETATM    1  N   UNK N   1       4.404  -1.782  -0.139  0.00  0.00     0.105 N 
HETATM    2  N   UNK N   1       4.085   1.063  -0.498  0.00  0.00     0.093 N 
HETATM    3  C   UNK N   1       5.517  -0.876   0.140  0.00  0.00     0.304 C 
HETATM    4  C   UNK N   1       3.216  -1.085   0.359  0.00  0.00     0.304 C 
HETATM    5  C   UNK N   1       5.369   0.375  -0.730  0.00  0.00     0.302 C 
HETATM    6  C   UNK N   1       2.954   0.129  -0.532  0.00  0.00     0.302 C 
ENDROOT
BRANCH   1   7
HETATM    7  C   UNK N   1       4.542  -3.096   0.536  0.00  0.00     0.289 C 
BRANCH   7   8
HETATM    8  C   UNK N   1       3.327  -3.989   0.271  0.00  0.00    -0.021 A 
HETATM    9  C   UNK N   1       3.156  -5.174   1.003  0.00  0.00     0.011 A 
HETATM   10  C   UNK N   1       2.016  -5.964   0.814  0.00  0.00     0.024 A 
HETATM   11  C   UNK N   1       1.033  -5.571  -0.101  0.00  0.00     0.034 A 
HETATM   12 Cl   UNK N   1      -0.413  -6.534  -0.311  0.00  0.00    -0.084 Cl
HETATM   13  C   UNK N   1       1.198  -4.402  -0.841  0.00  0.00     0.024 A 
HETATM   14  C   UNK N   1       2.338  -3.620  -0.661  0.00  0.00     0.011 A 
ENDBRANCH   7   8
BRANCH   7  15
HETATM   15  C   UNK N   1       5.868  -3.792   0.203  0.00  0.00    -0.021 A 
HETATM   16  C   UNK N   1       7.082  -3.225   0.628  0.00  0.00     0.010 A 
HETATM   17  C   UNK N   1       8.302  -3.845   0.346  0.00  0.00     0.001 A 
HETATM   18  C   UNK N   1       8.325  -5.050  -0.356  0.00  0.00     0.000 A 
HETATM   19  C   UNK N   1       7.128  -5.636  -0.775  0.00  0.00     0.001 A 
HETATM   20  C   UNK N   1       5.907  -5.012  -0.498  0.00  0.00     0.010 A 
ENDBRANCH   7  15
ENDBRANCH   1   7
BRANCH   2  21
HETATM   21  C   UNK N   1       4.065   1.770   0.783  0.00  0.00     0.298 C 
BRANCH  21  22
HETATM   22  C   UNK N   1       5.150   2.835   0.876  0.00  0.00     0.198 C 
BRANCH  22  23
HETATM   23  O   UNK N   1       5.261   3.545  -0.322  0.00  0.00    -0.379 OA
BRANCH  23  24
HETATM   24  C   UNK N   1       6.614   3.883  -0.392  0.00  0.00     0.277 C 
BRANCH  24  25
HETATM   25  C   UNK N   1       6.822   5.328  -0.055  0.00  0.00     0.164 C 
HETATM   26  O   UNK N   1       5.864   6.065   0.139  0.00  0.00    -0.648 OA
BRANCH  25  27
HETATM   27  O   UNK N   1       8.069   5.818   0.044  0.00  0.00    -0.775 OA
HETATM   28  H   UNK N   1       8.799   5.235   0.113  0.00  0.00     0.167 HD
ENDBRANCH  25  27
ENDBRANCH  24  25
ENDBRANCH  23  24
ENDBRANCH  22  23
ENDBRANCH  21  22
ENDBRANCH   2  21
TORSDOF 9
