REMARK  7 active torsions:
REMARK  status: ('A' for Active; 'I' for Inactive)
REMARK    1  A    between atoms: C_9  and  O_2 
REMARK    2  A    between atoms: O_2  and  C_27 
REMARK    3  A    between atoms: O_4  and  C_26 
REMARK    4  A    between atoms: N_6  and  C_11 
REMARK    5  A    between atoms: N_7  and  C_15 
REMARK    6  A    between atoms: C_8  and  C_13 
REMARK    7  A    between atoms: C_11  and  C_15 
ROOT
HETATM    1  S   UNK N   1       3.149  -0.775  -1.512  0.00  0.00    -0.115 SA
HETATM    2  O   UNK N   1       7.085  -0.684   0.081  0.00  0.00    -0.270 OA
HETATM    3  N   UNK N   1       5.523  -2.288   0.155  0.00  0.00    -0.313 N 
HETATM    4  C   UNK N   1       3.482   0.129  -0.010  0.00  0.00     0.124 C 
HETATM    5  C   UNK N   1       4.987   0.264   0.029  0.00  0.00     0.242 C 
HETATM    6  C   UNK N   1       5.890  -0.951   0.072  0.00  0.00     0.255 C 
HETATM    7  C   UNK N   1       4.178  -2.846   0.118  0.00  0.00     0.054 A 
HETATM    8  C   UNK N   1       3.060  -2.265  -0.552  0.00  0.00     0.028 A 
HETATM    9  C   UNK N   1       3.979  -4.106   0.729  0.00  0.00     0.031 A 
HETATM   10  C   UNK N   1       1.820  -2.921  -0.548  0.00  0.00     0.021 A 
HETATM   11  C   UNK N   1       2.740  -4.744   0.723  0.00  0.00     0.002 A 
HETATM   12  C   UNK N   1       1.656  -4.145   0.094  0.00  0.00     0.002 A 
ENDROOT
BRANCH   4  13
HETATM   13  C   UNK N   1       2.798   1.472  -0.049  0.00  0.00    -0.041 A 
HETATM   14  C   UNK N   1       1.736   1.744   0.822  0.00  0.00     0.011 A 
HETATM   15  C   UNK N   1       1.102   2.993   0.789  0.00  0.00     0.037 A 
HETATM   16  C   UNK N   1       1.542   3.990  -0.103  0.00  0.00     0.068 A 
HETATM   17  C   UNK N   1       2.614   3.719  -0.957  0.00  0.00     0.037 A 
HETATM   18  C   UNK N   1       3.232   2.468  -0.939  0.00  0.00     0.011 A 
BRANCH  16  19
HETATM   19  O   UNK N   1       0.949   5.205  -0.168  0.00  0.00    -0.356 OA
HETATM   20  C   UNK N   1      -0.163   5.545   0.569  0.00  0.00     0.210 C 
ENDBRANCH  16  19
ENDBRANCH   4  13
BRANCH   5  21
HETATM   21  O   UNK N   1       5.389   1.204   0.958  0.00  0.00    -0.305 OA
BRANCH  21  22
HETATM   22  C   UNK N   1       6.308   2.157   0.647  0.00  0.00     0.255 C 
HETATM   23  O   UNK N   1       6.921   2.117  -0.411  0.00  0.00    -0.266 OA
HETATM   24  C   UNK N   1       6.579   3.263   1.604  0.00  0.00     0.126 C 
ENDBRANCH  21  22
ENDBRANCH   5  21
BRANCH   3  25
HETATM   25  C   UNK N   1       6.605  -3.239   0.395  0.00  0.00     0.162 C 
BRANCH  25  26
HETATM   26  C   UNK N   1       7.541  -3.364  -0.821  0.00  0.00     0.291 C 
BRANCH  26  27
HETATM   27  N   UNK N   1       8.966  -3.463  -0.470  0.00  0.00     0.081 N 
HETATM   28  C   UNK N   1       9.462  -2.186   0.017  0.00  0.00     0.309 C 
HETATM   29  C   UNK N   1       9.197  -4.465   0.560  0.00  0.00     0.309 C 
ENDBRANCH  26  27
ENDBRANCH  25  26
ENDBRANCH   3  25
TORSDOF 7
