MODEL 1
REMARK VINA RESULT:      -6.5      0.000      0.000
REMARK  7 active torsions:
REMARK  status: ('A' for Active; 'I' for Inactive)
REMARK    1  A    between atoms: C_9  and  O_2 
REMARK    2  A    between atoms: O_2  and  C_27 
REMARK    3  A    between atoms: O_4  and  C_26 
REMARK    4  A    between atoms: N_6  and  C_11 
REMARK    5  A    between atoms: N_7  and  C_15 
REMARK    6  A    between atoms: C_8  and  C_13 
REMARK    7  A    between atoms: C_11  and  C_15 
ROOT
HETATM    1  S   UNK N   1      31.175  17.580   4.639  0.00  0.00    -0.115 SA
HETATM    2  O   UNK N   1      30.958  16.645   8.776  0.00  0.00    -0.270 OA
HETATM    3  N   UNK N   1      32.013  15.596   7.101  0.00  0.00    -0.313 N 
HETATM    4  C   UNK N   1      29.707  16.814   5.304  0.00  0.00     0.124 C 
HETATM    5  C   UNK N   1      29.827  16.992   6.800  0.00  0.00     0.242 C 
HETATM    6  C   UNK N   1      30.986  16.402   7.576  0.00  0.00     0.255 C 
HETATM    7  C   UNK N   1      32.276  15.210   5.722  0.00  0.00     0.054 A 
HETATM    8  C   UNK N   1      31.934  15.978   4.569  0.00  0.00     0.028 A 
HETATM    9  C   UNK N   1      32.999  14.013   5.507  0.00  0.00     0.031 A 
HETATM   10  C   UNK N   1      32.277  15.515   3.290  0.00  0.00     0.021 A 
HETATM   11  C   UNK N   1      33.332  13.568   4.229  0.00  0.00     0.002 A 
HETATM   12  C   UNK N   1      32.960  14.314   3.118  0.00  0.00     0.002 A 
ENDROOT
BRANCH   4  13
HETATM   13  C   UNK N   1      28.475  17.489   4.755  0.00  0.00    -0.041 A 
HETATM   14  C   UNK N   1      28.425  18.884   4.656  0.00  0.00     0.011 A 
HETATM   15  C   UNK N   1      27.282  19.512   4.143  0.00  0.00     0.037 A 
HETATM   16  C   UNK N   1      26.186  18.744   3.704  0.00  0.00     0.068 A 
HETATM   17  C   UNK N   1      26.249  17.351   3.789  0.00  0.00     0.037 A 
HETATM   18  C   UNK N   1      27.379  16.727   4.319  0.00  0.00     0.011 A 
BRANCH  16  19
HETATM   19  O   UNK N   1      25.063  19.316   3.210  0.00  0.00    -0.356 OA
HETATM   20  C   UNK N   1      25.048  20.546   2.592  0.00  0.00     0.210 C 
ENDBRANCH  16  19
ENDBRANCH   4  13
BRANCH   5  21
HETATM   21  O   UNK N   1      28.630  16.736   7.440  0.00  0.00    -0.305 OA
BRANCH  21  22
HETATM   22  C   UNK N   1      28.151  17.570   8.402  0.00  0.00     0.255 C 
HETATM   23  O   UNK N   1      27.646  17.126   9.424  0.00  0.00    -0.266 OA
HETATM   24  C   UNK N   1      28.234  19.043   8.211  0.00  0.00     0.126 C 
ENDBRANCH  21  22
ENDBRANCH   5  21
BRANCH   3  25
HETATM   25  C   UNK N   1      32.879  14.994   8.112  0.00  0.00     0.162 C 
BRANCH  25  26
HETATM   26  C   UNK N   1      34.236  15.714   8.209  0.00  0.00     0.291 C 
BRANCH  26  27
HETATM   27  N   UNK N   1      34.218  16.907   9.069  0.00  0.00     0.081 N 
HETATM   28  C   UNK N   1      35.194  16.780  10.140  0.00  0.00     0.309 C 
HETATM   29  C   UNK N   1      34.521  18.116   8.318  0.00  0.00     0.309 C 
ENDBRANCH  26  27
ENDBRANCH  25  26
ENDBRANCH   3  25
TORSDOF 7
ENDMDL
MODEL 2
REMARK VINA RESULT:      -6.3     12.023     15.253
REMARK  7 active torsions:
REMARK  status: ('A' for Active; 'I' for Inactive)
REMARK    1  A    between atoms: C_9  and  O_2 
REMARK    2  A    between atoms: O_2  and  C_27 
REMARK    3  A    between atoms: O_4  and  C_26 
REMARK    4  A    between atoms: N_6  and  C_11 
REMARK    5  A    between atoms: N_7  and  C_15 
REMARK    6  A    between atoms: C_8  and  C_13 
REMARK    7  A    between atoms: C_11  and  C_15 
ROOT
HETATM    1  S   UNK N   1      29.899  23.251  -6.547  0.00  0.00    -0.115 SA
HETATM    2  O   UNK N   1      25.767  24.211  -6.359  0.00  0.00    -0.270 OA
HETATM    3  N   UNK N   1      27.286  24.001  -4.726  0.00  0.00    -0.313 N 
HETATM    4  C   UNK N   1      28.676  21.962  -6.713  0.00  0.00     0.124 C 
HETATM    5  C   UNK N   1      27.383  22.696  -6.986  0.00  0.00     0.242 C 
HETATM    6  C   UNK N   1      26.808  23.682  -5.991  0.00  0.00     0.255 C 
HETATM    7  C   UNK N   1      28.515  23.536  -4.096  0.00  0.00     0.054 A 
HETATM    8  C   UNK N   1      29.705  23.157  -4.785  0.00  0.00     0.028 A 
HETATM    9  C   UNK N   1      28.560  23.533  -2.683  0.00  0.00     0.031 A 
HETATM   10  C   UNK N   1      30.840  22.762  -4.062  0.00  0.00     0.021 A 
HETATM   11  C   UNK N   1      29.697  23.139  -1.979  0.00  0.00     0.002 A 
HETATM   12  C   UNK N   1      30.835  22.741  -2.670  0.00  0.00     0.002 A 
ENDROOT
BRANCH   4  13
HETATM   13  C   UNK N   1      29.047  21.037  -7.844  0.00  0.00    -0.041 A 
HETATM   14  C   UNK N   1      29.321  21.557  -9.115  0.00  0.00     0.011 A 
HETATM   15  C   UNK N   1      29.669  20.698 -10.166  0.00  0.00     0.037 A 
HETATM   16  C   UNK N   1      29.767  19.310  -9.947  0.00  0.00     0.068 A 
HETATM   17  C   UNK N   1      29.509  18.799  -8.673  0.00  0.00     0.037 A 
HETATM   18  C   UNK N   1      29.143  19.652  -7.631  0.00  0.00     0.011 A 
BRANCH  16  19
HETATM   19  O   UNK N   1      30.093  18.450 -10.940  0.00  0.00    -0.356 OA
HETATM   20  C   UNK N   1      30.719  17.244 -10.721  0.00  0.00     0.210 C 
ENDBRANCH  16  19
ENDBRANCH   4  13
BRANCH   5  21
HETATM   21  O   UNK N   1      26.402  21.841  -7.448  0.00  0.00    -0.305 OA
BRANCH  21  22
HETATM   22  C   UNK N   1      25.539  22.220  -8.429  0.00  0.00     0.255 C 
HETATM   23  O   UNK N   1      24.329  22.124  -8.273  0.00  0.00    -0.266 OA
HETATM   24  C   UNK N   1      26.068  22.754  -9.712  0.00  0.00     0.126 C 
ENDBRANCH  21  22
ENDBRANCH   5  21
BRANCH   3  25
HETATM   25  C   UNK N   1      26.415  24.829  -3.898  0.00  0.00     0.162 C 
BRANCH  25  26
HETATM   26  C   UNK N   1      26.795  26.319  -3.973  0.00  0.00     0.291 C 
BRANCH  26  27
HETATM   27  N   UNK N   1      25.640  27.230  -3.991  0.00  0.00     0.081 N 
HETATM   28  C   UNK N   1      26.041  28.570  -3.594  0.00  0.00     0.309 C 
HETATM   29  C   UNK N   1      25.038  27.307  -5.314  0.00  0.00     0.309 C 
ENDBRANCH  26  27
ENDBRANCH  25  26
ENDBRANCH   3  25
TORSDOF 7
ENDMDL
MODEL 3
REMARK VINA RESULT:      -6.1      8.130      9.347
REMARK  7 active torsions:
REMARK  status: ('A' for Active; 'I' for Inactive)
REMARK    1  A    between atoms: C_9  and  O_2 
REMARK    2  A    between atoms: O_2  and  C_27 
REMARK    3  A    between atoms: O_4  and  C_26 
REMARK    4  A    between atoms: N_6  and  C_11 
REMARK    5  A    between atoms: N_7  and  C_15 
REMARK    6  A    between atoms: C_8  and  C_13 
REMARK    7  A    between atoms: C_11  and  C_15 
ROOT
HETATM    1  S   UNK N   1      23.037  15.290   5.756  0.00  0.00    -0.115 SA
HETATM    2  O   UNK N   1      20.896  15.181   9.422  0.00  0.00    -0.270 OA
HETATM    3  N   UNK N   1      21.629  13.515   8.116  0.00  0.00    -0.313 N 
HETATM    4  C   UNK N   1      21.284  15.621   5.774  0.00  0.00     0.124 C 
HETATM    5  C   UNK N   1      20.959  15.877   7.228  0.00  0.00     0.242 C 
HETATM    6  C   UNK N   1      21.189  14.821   8.289  0.00  0.00     0.255 C 
HETATM    7  C   UNK N   1      22.072  12.881   6.881  0.00  0.00     0.054 A 
HETATM    8  C   UNK N   1      22.673  13.553   5.776  0.00  0.00     0.028 A 
HETATM    9  C   UNK N   1      21.969  11.473   6.801  0.00  0.00     0.031 A 
HETATM   10  C   UNK N   1      23.094  12.824   4.654  0.00  0.00     0.021 A 
HETATM   11  C   UNK N   1      22.393  10.763   5.678  0.00  0.00     0.002 A 
HETATM   12  C   UNK N   1      22.946  11.441   4.599  0.00  0.00     0.002 A 
ENDROOT
BRANCH   4  13
HETATM   13  C   UNK N   1      20.971  16.815   4.909  0.00  0.00    -0.041 A 
HETATM   14  C   UNK N   1      19.942  16.744   3.961  0.00  0.00     0.011 A 
HETATM   15  C   UNK N   1      19.648  17.854   3.159  0.00  0.00     0.037 A 
HETATM   16  C   UNK N   1      20.368  19.055   3.315  0.00  0.00     0.068 A 
HETATM   17  C   UNK N   1      21.381  19.125   4.275  0.00  0.00     0.037 A 
HETATM   18  C   UNK N   1      21.688  18.013   5.059  0.00  0.00     0.011 A 
BRANCH  16  19
HETATM   19  O   UNK N   1      20.117  20.145   2.553  0.00  0.00    -0.356 OA
HETATM   20  C   UNK N   1      20.885  20.504   1.468  0.00  0.00     0.210 C 
ENDBRANCH  16  19
ENDBRANCH   4  13
BRANCH   5  21
HETATM   21  O   UNK N   1      19.712  16.454   7.375  0.00  0.00    -0.305 OA
BRANCH  21  22
HETATM   22  C   UNK N   1      19.503  17.470   8.255  0.00  0.00     0.255 C 
HETATM   23  O   UNK N   1      20.289  18.404   8.333  0.00  0.00    -0.266 OA
HETATM   24  C   UNK N   1      18.307  17.448   9.139  0.00  0.00     0.126 C 
ENDBRANCH  21  22
ENDBRANCH   5  21
BRANCH   3  25
HETATM   25  C   UNK N   1      21.558  12.651   9.291  0.00  0.00     0.162 C 
BRANCH  25  26
HETATM   26  C   UNK N   1      22.641  13.000  10.328  0.00  0.00     0.291 C 
BRANCH  26  27
HETATM   27  N   UNK N   1      23.932  12.338  10.090  0.00  0.00     0.081 N 
HETATM   28  C   UNK N   1      24.841  13.228   9.387  0.00  0.00     0.309 C 
HETATM   29  C   UNK N   1      24.565  11.930  11.336  0.00  0.00     0.309 C 
ENDBRANCH  26  27
ENDBRANCH  25  26
ENDBRANCH   3  25
TORSDOF 7
ENDMDL
MODEL 4
REMARK VINA RESULT:      -6.1      3.443      8.321
REMARK  7 active torsions:
REMARK  status: ('A' for Active; 'I' for Inactive)
REMARK    1  A    between atoms: C_9  and  O_2 
REMARK    2  A    between atoms: O_2  and  C_27 
REMARK    3  A    between atoms: O_4  and  C_26 
REMARK    4  A    between atoms: N_6  and  C_11 
REMARK    5  A    between atoms: N_7  and  C_15 
REMARK    6  A    between atoms: C_8  and  C_13 
REMARK    7  A    between atoms: C_11  and  C_15 
ROOT
HETATM    1  S   UNK N   1      32.504  18.042   8.382  0.00  0.00    -0.115 SA
HETATM    2  O   UNK N   1      33.319  16.062   4.714  0.00  0.00    -0.270 OA
HETATM    3  N   UNK N   1      31.377  16.741   5.600  0.00  0.00    -0.313 N 
HETATM    4  C   UNK N   1      32.845  16.291   8.371  0.00  0.00     0.124 C 
HETATM    5  C   UNK N   1      33.454  16.028   7.012  0.00  0.00     0.242 C 
HETATM    6  C   UNK N   1      32.689  16.306   5.735  0.00  0.00     0.255 C 
HETATM    7  C   UNK N   1      30.455  17.131   6.658  0.00  0.00     0.054 A 
HETATM    8  C   UNK N   1      30.829  17.683   7.919  0.00  0.00     0.028 A 
HETATM    9  C   UNK N   1      29.071  17.028   6.385  0.00  0.00     0.031 A 
HETATM   10  C   UNK N   1      29.842  18.056   8.843  0.00  0.00     0.021 A 
HETATM   11  C   UNK N   1      28.103  17.404   7.315  0.00  0.00     0.002 A 
HETATM   12  C   UNK N   1      28.490  17.908   8.551  0.00  0.00     0.002 A 
ENDROOT
BRANCH   4  13
HETATM   13  C   UNK N   1      33.792  15.938   9.489  0.00  0.00    -0.041 A 
HETATM   14  C   UNK N   1      34.867  16.783   9.791  0.00  0.00     0.011 A 
HETATM   15  C   UNK N   1      35.746  16.458  10.832  0.00  0.00     0.037 A 
HETATM   16  C   UNK N   1      35.542  15.293  11.597  0.00  0.00     0.068 A 
HETATM   17  C   UNK N   1      34.457  14.463  11.303  0.00  0.00     0.037 A 
HETATM   18  C   UNK N   1      33.593  14.776  10.253  0.00  0.00     0.011 A 
BRANCH  16  19
HETATM   19  O   UNK N   1      36.375  14.943  12.605  0.00  0.00    -0.356 OA
HETATM   20  C   UNK N   1      36.263  13.762  13.304  0.00  0.00     0.210 C 
ENDBRANCH  16  19
ENDBRANCH   4  13
BRANCH   5  21
HETATM   21  O   UNK N   1      34.060  14.788   6.958  0.00  0.00    -0.305 OA
BRANCH  21  22
HETATM   22  C   UNK N   1      35.408  14.666   6.829  0.00  0.00     0.255 C 
HETATM   23  O   UNK N   1      36.018  15.304   5.982  0.00  0.00    -0.266 OA
HETATM   24  C   UNK N   1      36.156  13.741   7.723  0.00  0.00     0.126 C 
ENDBRANCH  21  22
ENDBRANCH   5  21
BRANCH   3  25
HETATM   25  C   UNK N   1      30.829  16.722   4.246  0.00  0.00     0.162 C 
BRANCH  25  26
HETATM   26  C   UNK N   1      30.412  15.305   3.814  0.00  0.00     0.291 C 
BRANCH  26  27
HETATM   27  N   UNK N   1      29.528  15.274   2.639  0.00  0.00     0.081 N 
HETATM   28  C   UNK N   1      29.306  13.905   2.202  0.00  0.00     0.309 C 
HETATM   29  C   UNK N   1      28.235  15.877   2.924  0.00  0.00     0.309 C 
ENDBRANCH  26  27
ENDBRANCH  25  26
ENDBRANCH   3  25
TORSDOF 7
ENDMDL
MODEL 5
REMARK VINA RESULT:      -6.1      4.850      7.408
REMARK  7 active torsions:
REMARK  status: ('A' for Active; 'I' for Inactive)
REMARK    1  A    between atoms: C_9  and  O_2 
REMARK    2  A    between atoms: O_2  and  C_27 
REMARK    3  A    between atoms: O_4  and  C_26 
REMARK    4  A    between atoms: N_6  and  C_11 
REMARK    5  A    between atoms: N_7  and  C_15 
REMARK    6  A    between atoms: C_8  and  C_13 
REMARK    7  A    between atoms: C_11  and  C_15 
ROOT
HETATM    1  S   UNK N   1      35.963  12.825   8.865  0.00  0.00    -0.115 SA
HETATM    2  O   UNK N   1      35.418  15.769  11.876  0.00  0.00    -0.270 OA
HETATM    3  N   UNK N   1      35.147  13.547  11.950  0.00  0.00    -0.313 N 
HETATM    4  C   UNK N   1      34.496  13.840   8.864  0.00  0.00     0.124 C 
HETATM    5  C   UNK N   1      34.822  14.985   9.795  0.00  0.00     0.242 C 
HETATM    6  C   UNK N   1      35.157  14.748  11.253  0.00  0.00     0.255 C 
HETATM    7  C   UNK N   1      34.911  12.211  11.419  0.00  0.00     0.054 A 
HETATM    8  C   UNK N   1      35.201  11.788  10.087  0.00  0.00     0.028 A 
HETATM    9  C   UNK N   1      34.428  11.230  12.315  0.00  0.00     0.031 A 
HETATM   10  C   UNK N   1      34.963  10.459   9.705  0.00  0.00     0.021 A 
HETATM   11  C   UNK N   1      34.198   9.914  11.919  0.00  0.00     0.002 A 
HETATM   12  C   UNK N   1      34.455   9.531  10.609  0.00  0.00     0.002 A 
ENDROOT
BRANCH   4  13
HETATM   13  C   UNK N   1      34.197  14.320   7.466  0.00  0.00    -0.041 A 
HETATM   14  C   UNK N   1      32.884  14.287   6.979  0.00  0.00     0.011 A 
HETATM   15  C   UNK N   1      32.605  14.736   5.681  0.00  0.00     0.037 A 
HETATM   16  C   UNK N   1      33.636  15.244   4.868  0.00  0.00     0.068 A 
HETATM   17  C   UNK N   1      34.940  15.292   5.366  0.00  0.00     0.037 A 
HETATM   18  C   UNK N   1      35.222  14.825   6.651  0.00  0.00     0.011 A 
BRANCH  16  19
HETATM   19  O   UNK N   1      33.405  15.680   3.607  0.00  0.00    -0.356 OA
HETATM   20  C   UNK N   1      32.813  16.889   3.321  0.00  0.00     0.210 C 
ENDBRANCH  16  19
ENDBRANCH   4  13
BRANCH   5  21
HETATM   21  O   UNK N   1      33.918  16.020   9.664  0.00  0.00    -0.305 OA
BRANCH  21  22
HETATM   22  C   UNK N   1      34.289  17.221   9.145  0.00  0.00     0.255 C 
HETATM   23  O   UNK N   1      35.307  17.782   9.526  0.00  0.00    -0.266 OA
HETATM   24  C   UNK N   1      33.447  17.869   8.103  0.00  0.00     0.126 C 
ENDBRANCH  21  22
ENDBRANCH   5  21
BRANCH   3  25
HETATM   25  C   UNK N   1      35.306  13.641  13.398  0.00  0.00     0.162 C 
BRANCH  25  26
HETATM   26  C   UNK N   1      36.746  13.321  13.841  0.00  0.00     0.291 C 
BRANCH  26  27
HETATM   27  N   UNK N   1      36.969  13.455  15.289  0.00  0.00     0.081 N 
HETATM   28  C   UNK N   1      37.159  14.851  15.650  0.00  0.00     0.309 C 
HETATM   29  C   UNK N   1      35.847  12.934  16.056  0.00  0.00     0.309 C 
ENDBRANCH  26  27
ENDBRANCH  25  26
ENDBRANCH   3  25
TORSDOF 7
ENDMDL
MODEL 6
REMARK VINA RESULT:      -6.1      2.580      4.480
REMARK  7 active torsions:
REMARK  status: ('A' for Active; 'I' for Inactive)
REMARK    1  A    between atoms: C_9  and  O_2 
REMARK    2  A    between atoms: O_2  and  C_27 
REMARK    3  A    between atoms: O_4  and  C_26 
REMARK    4  A    between atoms: N_6  and  C_11 
REMARK    5  A    between atoms: N_7  and  C_15 
REMARK    6  A    between atoms: C_8  and  C_13 
REMARK    7  A    between atoms: C_11  and  C_15 
ROOT
HETATM    1  S   UNK N   1      27.559  17.163   6.970  0.00  0.00    -0.115 SA
HETATM    2  O   UNK N   1      29.399  14.359   4.363  0.00  0.00    -0.270 OA
HETATM    3  N   UNK N   1      30.256  15.552   6.055  0.00  0.00    -0.313 N 
HETATM    4  C   UNK N   1      27.998  17.645   5.309  0.00  0.00     0.124 C 
HETATM    5  C   UNK N   1      28.247  16.341   4.586  0.00  0.00     0.242 C 
HETATM    6  C   UNK N   1      29.329  15.381   5.034  0.00  0.00     0.255 C 
HETATM    7  C   UNK N   1      30.342  16.654   7.004  0.00  0.00     0.054 A 
HETATM    8  C   UNK N   1      29.243  17.443   7.456  0.00  0.00     0.028 A 
HETATM    9  C   UNK N   1      31.605  16.914   7.586  0.00  0.00     0.031 A 
HETATM   10  C   UNK N   1      29.449  18.455   8.406  0.00  0.00     0.021 A 
HETATM   11  C   UNK N   1      31.791  17.924   8.529  0.00  0.00     0.002 A 
HETATM   12  C   UNK N   1      30.714  18.703   8.930  0.00  0.00     0.002 A 
ENDROOT
BRANCH   4  13
HETATM   13  C   UNK N   1      26.874  18.430   4.681  0.00  0.00    -0.041 A 
HETATM   14  C   UNK N   1      25.545  18.047   4.898  0.00  0.00     0.011 A 
HETATM   15  C   UNK N   1      24.499  18.778   4.319  0.00  0.00     0.037 A 
HETATM   16  C   UNK N   1      24.776  19.914   3.533  0.00  0.00     0.068 A 
HETATM   17  C   UNK N   1      26.104  20.301   3.335  0.00  0.00     0.037 A 
HETATM   18  C   UNK N   1      27.146  19.561   3.895  0.00  0.00     0.011 A 
BRANCH  16  19
HETATM   19  O   UNK N   1      23.793  20.639   2.951  0.00  0.00    -0.356 OA
HETATM   20  C   UNK N   1      22.499  20.188   2.815  0.00  0.00     0.210 C 
ENDBRANCH  16  19
ENDBRANCH   4  13
BRANCH   5  21
HETATM   21  O   UNK N   1      28.290  16.519   3.217  0.00  0.00    -0.305 OA
BRANCH  21  22
HETATM   22  C   UNK N   1      27.623  15.685   2.374  0.00  0.00     0.255 C 
HETATM   23  O   UNK N   1      28.229  14.958   1.600  0.00  0.00    -0.266 OA
HETATM   24  C   UNK N   1      26.136  15.656   2.387  0.00  0.00     0.126 C 
ENDBRANCH  21  22
ENDBRANCH   5  21
BRANCH   3  25
HETATM   25  C   UNK N   1      31.321  14.556   6.131  0.00  0.00     0.162 C 
BRANCH  25  26
HETATM   26  C   UNK N   1      32.195  14.551   4.863  0.00  0.00     0.291 C 
BRANCH  26  27
HETATM   27  N   UNK N   1      32.940  15.800   4.646  0.00  0.00     0.081 N 
HETATM   28  C   UNK N   1      34.280  15.699   5.201  0.00  0.00     0.309 C 
HETATM   29  C   UNK N   1      33.055  16.118   3.230  0.00  0.00     0.309 C 
ENDBRANCH  26  27
ENDBRANCH  25  26
ENDBRANCH   3  25
TORSDOF 7
ENDMDL
MODEL 7
REMARK VINA RESULT:      -6.0     10.930     13.028
REMARK  7 active torsions:
REMARK  status: ('A' for Active; 'I' for Inactive)
REMARK    1  A    between atoms: C_9  and  O_2 
REMARK    2  A    between atoms: O_2  and  C_27 
REMARK    3  A    between atoms: O_4  and  C_26 
REMARK    4  A    between atoms: N_6  and  C_11 
REMARK    5  A    between atoms: N_7  and  C_15 
REMARK    6  A    between atoms: C_8  and  C_13 
REMARK    7  A    between atoms: C_11  and  C_15 
ROOT
HETATM    1  S   UNK N   1      29.509  23.767  -7.002  0.00  0.00    -0.115 SA
HETATM    2  O   UNK N   1      33.007  23.041  -4.706  0.00  0.00    -0.270 OA
HETATM    3  N   UNK N   1      31.764  21.647  -5.943  0.00  0.00    -0.313 N 
HETATM    4  C   UNK N   1      29.396  23.625  -5.227  0.00  0.00     0.124 C 
HETATM    5  C   UNK N   1      30.821  23.764  -4.741  0.00  0.00     0.242 C 
HETATM    6  C   UNK N   1      31.899  22.789  -5.164  0.00  0.00     0.255 C 
HETATM    7  C   UNK N   1      30.568  21.171  -6.625  0.00  0.00     0.054 A 
HETATM    8  C   UNK N   1      29.508  21.996  -7.107  0.00  0.00     0.028 A 
HETATM    9  C   UNK N   1      30.485  19.787  -6.903  0.00  0.00     0.031 A 
HETATM   10  C   UNK N   1      28.423  21.420  -7.785  0.00  0.00     0.021 A 
HETATM   11  C   UNK N   1      29.400  19.232  -7.579  0.00  0.00     0.002 A 
HETATM   12  C   UNK N   1      28.362  20.048  -8.010  0.00  0.00     0.002 A 
ENDROOT
BRANCH   4  13
HETATM   13  C   UNK N   1      28.506  24.709  -4.674  0.00  0.00    -0.041 A 
HETATM   14  C   UNK N   1      27.216  24.398  -4.227  0.00  0.00     0.011 A 
HETATM   15  C   UNK N   1      26.389  25.403  -3.710  0.00  0.00     0.037 A 
HETATM   16  C   UNK N   1      26.856  26.729  -3.615  0.00  0.00     0.068 A 
HETATM   17  C   UNK N   1      28.151  27.030  -4.046  0.00  0.00     0.037 A 
HETATM   18  C   UNK N   1      28.967  26.032  -4.580  0.00  0.00     0.011 A 
BRANCH  16  19
HETATM   19  O   UNK N   1      26.083  27.727  -3.128  0.00  0.00    -0.356 OA
HETATM   20  C   UNK N   1      26.073  29.001  -3.651  0.00  0.00     0.210 C 
ENDBRANCH  16  19
ENDBRANCH   4  13
BRANCH   5  21
HETATM   21  O   UNK N   1      30.874  23.991  -3.380  0.00  0.00    -0.305 OA
BRANCH  21  22
HETATM   22  C   UNK N   1      30.603  23.001  -2.487  0.00  0.00     0.255 C 
HETATM   23  O   UNK N   1      31.437  22.145  -2.226  0.00  0.00    -0.266 OA
HETATM   24  C   UNK N   1      29.274  22.949  -1.821  0.00  0.00     0.126 C 
ENDBRANCH  21  22
ENDBRANCH   5  21
BRANCH   3  25
HETATM   25  C   UNK N   1      32.934  20.776  -6.017  0.00  0.00     0.162 C 
BRANCH  25  26
HETATM   26  C   UNK N   1      33.096  19.922  -4.746  0.00  0.00     0.291 C 
BRANCH  26  27
HETATM   27  N   UNK N   1      34.464  19.426  -4.530  0.00  0.00     0.081 N 
HETATM   28  C   UNK N   1      34.875  18.568  -5.630  0.00  0.00     0.309 C 
HETATM   29  C   UNK N   1      35.420  20.518  -4.421  0.00  0.00     0.309 C 
ENDBRANCH  26  27
ENDBRANCH  25  26
ENDBRANCH   3  25
TORSDOF 7
ENDMDL
MODEL 8
REMARK VINA RESULT:      -5.9     12.057     14.613
REMARK  7 active torsions:
REMARK  status: ('A' for Active; 'I' for Inactive)
REMARK    1  A    between atoms: C_9  and  O_2 
REMARK    2  A    between atoms: O_2  and  C_27 
REMARK    3  A    between atoms: O_4  and  C_26 
REMARK    4  A    between atoms: N_6  and  C_11 
REMARK    5  A    between atoms: N_7  and  C_15 
REMARK    6  A    between atoms: C_8  and  C_13 
REMARK    7  A    between atoms: C_11  and  C_15 
ROOT
HETATM    1  S   UNK N   1      28.505  24.574  -7.230  0.00  0.00    -0.115 SA
HETATM    2  O   UNK N   1      30.676  21.586  -5.133  0.00  0.00    -0.270 OA
HETATM    3  N   UNK N   1      29.127  21.400  -6.741  0.00  0.00    -0.313 N 
HETATM    4  C   UNK N   1      28.032  24.131  -5.568  0.00  0.00     0.124 C 
HETATM    5  C   UNK N   1      29.217  23.365  -5.025  0.00  0.00     0.242 C 
HETATM    6  C   UNK N   1      29.694  22.082  -5.672  0.00  0.00     0.255 C 
HETATM    7  C   UNK N   1      27.994  21.811  -7.559  0.00  0.00     0.054 A 
HETATM    8  C   UNK N   1      27.611  23.160  -7.822  0.00  0.00     0.028 A 
HETATM    9  C   UNK N   1      27.260  20.794  -8.212  0.00  0.00     0.031 A 
HETATM   10  C   UNK N   1      26.519  23.429  -8.662  0.00  0.00     0.021 A 
HETATM   11  C   UNK N   1      26.178  21.079  -9.044  0.00  0.00     0.002 A 
HETATM   12  C   UNK N   1      25.800  22.398  -9.259  0.00  0.00     0.002 A 
ENDROOT
BRANCH   4  13
HETATM   13  C   UNK N   1      27.747  25.372  -4.760  0.00  0.00    -0.041 A 
HETATM   14  C   UNK N   1      28.608  26.473  -4.839  0.00  0.00     0.011 A 
HETATM   15  C   UNK N   1      28.342  27.628  -4.092  0.00  0.00     0.037 A 
HETATM   16  C   UNK N   1      27.197  27.698  -3.274  0.00  0.00     0.068 A 
HETATM   17  C   UNK N   1      26.332  26.602  -3.213  0.00  0.00     0.037 A 
HETATM   18  C   UNK N   1      26.608  25.444  -3.941  0.00  0.00     0.011 A 
BRANCH  16  19
HETATM   19  O   UNK N   1      26.912  28.793  -2.532  0.00  0.00    -0.356 OA
HETATM   20  C   UNK N   1      27.859  29.719  -2.155  0.00  0.00     0.210 C 
ENDBRANCH  16  19
ENDBRANCH   4  13
BRANCH   5  21
HETATM   21  O   UNK N   1      29.145  23.222  -3.653  0.00  0.00    -0.305 OA
BRANCH  21  22
HETATM   22  C   UNK N   1      30.179  23.586  -2.849  0.00  0.00     0.255 C 
HETATM   23  O   UNK N   1      30.302  23.110  -1.728  0.00  0.00    -0.266 OA
HETATM   24  C   UNK N   1      31.176  24.580  -3.330  0.00  0.00     0.126 C 
ENDBRANCH  21  22
ENDBRANCH   5  21
BRANCH   3  25
HETATM   25  C   UNK N   1      29.674  20.075  -7.022  0.00  0.00     0.162 C 
BRANCH  25  26
HETATM   26  C   UNK N   1      30.662  20.100  -8.203  0.00  0.00     0.291 C 
BRANCH  26  27
HETATM   27  N   UNK N   1      30.450  19.021  -9.181  0.00  0.00     0.081 N 
HETATM   28  C   UNK N   1      29.992  19.565 -10.449  0.00  0.00     0.309 C 
HETATM   29  C   UNK N   1      31.672  18.268  -9.422  0.00  0.00     0.309 C 
ENDBRANCH  26  27
ENDBRANCH  25  26
ENDBRANCH   3  25
TORSDOF 7
ENDMDL
MODEL 9
REMARK VINA RESULT:      -5.9      8.001     10.800
REMARK  7 active torsions:
REMARK  status: ('A' for Active; 'I' for Inactive)
REMARK    1  A    between atoms: C_9  and  O_2 
REMARK    2  A    between atoms: O_2  and  C_27 
REMARK    3  A    between atoms: O_4  and  C_26 
REMARK    4  A    between atoms: N_6  and  C_11 
REMARK    5  A    between atoms: N_7  and  C_15 
REMARK    6  A    between atoms: C_8  and  C_13 
REMARK    7  A    between atoms: C_11  and  C_15 
ROOT
HETATM    1  S   UNK N   1      22.390  12.365   5.664  0.00  0.00    -0.115 SA
HETATM    2  O   UNK N   1      20.245  16.030   5.610  0.00  0.00    -0.270 OA
HETATM    3  N   UNK N   1      21.716  15.185   4.148  0.00  0.00    -0.313 N 
HETATM    4  C   UNK N   1      22.925  13.726   6.686  0.00  0.00     0.124 C 
HETATM    5  C   UNK N   1      21.747  14.674   6.708  0.00  0.00     0.242 C 
HETATM    6  C   UNK N   1      21.212  15.300   5.437  0.00  0.00     0.255 C 
HETATM    7  C   UNK N   1      22.821  14.350   3.695  0.00  0.00     0.054 A 
HETATM    8  C   UNK N   1      23.224  13.118   4.290  0.00  0.00     0.028 A 
HETATM    9  C   UNK N   1      23.502  14.752   2.522  0.00  0.00     0.031 A 
HETATM   10  C   UNK N   1      24.283  12.383   3.736  0.00  0.00     0.021 A 
HETATM   11  C   UNK N   1      24.552  14.010   1.985  0.00  0.00     0.002 A 
HETATM   12  C   UNK N   1      24.951  12.830   2.599  0.00  0.00     0.002 A 
ENDROOT
BRANCH   4  13
HETATM   13  C   UNK N   1      23.274  13.233   8.068  0.00  0.00    -0.041 A 
HETATM   14  C   UNK N   1      22.370  12.432   8.776  0.00  0.00     0.011 A 
HETATM   15  C   UNK N   1      22.695  11.970  10.058  0.00  0.00     0.037 A 
HETATM   16  C   UNK N   1      23.940  12.288  10.634  0.00  0.00     0.068 A 
HETATM   17  C   UNK N   1      24.846  13.073   9.915  0.00  0.00     0.037 A 
HETATM   18  C   UNK N   1      24.514  13.551   8.646  0.00  0.00     0.011 A 
BRANCH  16  19
HETATM   19  O   UNK N   1      24.285  11.866  11.873  0.00  0.00    -0.356 OA
HETATM   20  C   UNK N   1      23.411  11.844  12.936  0.00  0.00     0.210 C 
ENDBRANCH  16  19
ENDBRANCH   4  13
BRANCH   5  21
HETATM   21  O   UNK N   1      21.877  15.623   7.703  0.00  0.00    -0.305 OA
BRANCH  21  22
HETATM   22  C   UNK N   1      20.848  15.909   8.545  0.00  0.00     0.255 C 
HETATM   23  O   UNK N   1      20.515  17.067   8.759  0.00  0.00    -0.266 OA
HETATM   24  C   UNK N   1      20.118  14.804   9.221  0.00  0.00     0.126 C 
ENDBRANCH  21  22
ENDBRANCH   5  21
BRANCH   3  25
HETATM   25  C   UNK N   1      21.127  16.068   3.145  0.00  0.00     0.162 C 
BRANCH  25  26
HETATM   26  C   UNK N   1      19.960  15.394   2.400  0.00  0.00     0.291 C 
BRANCH  26  27
HETATM   27  N   UNK N   1      20.221  15.156   0.972  0.00  0.00     0.081 N 
HETATM   28  C   UNK N   1      20.084  13.743   0.657  0.00  0.00     0.309 C 
HETATM   29  C   UNK N   1      19.303  15.903   0.126  0.00  0.00     0.309 C 
ENDBRANCH  26  27
ENDBRANCH  25  26
ENDBRANCH   3  25
TORSDOF 7
ENDMDL
