MODEL 1
REMARK VINA RESULT:      -6.6      0.000      0.000
REMARK  4 active torsions:
REMARK  status: ('A' for Active; 'I' for Inactive)
REMARK    1  A    between atoms: N_1  and  C_9 
REMARK    2  A    between atoms: C_2  and  C_3 
REMARK    3  A    between atoms: C_3  and  C_6 
REMARK    4  A    between atoms: C_6  and  C_9 
ROOT
HETATM    1  C   UNK N   1      31.624  16.914   7.046  0.00  0.00     0.053 A 
HETATM    2  C   UNK N   1      31.988  16.708   5.583  0.00  0.00    -0.039 A 
HETATM    3  C   UNK N   1      30.329  17.428   7.671  0.00  0.00    -0.039 A 
HETATM    4  C   UNK N   1      31.162  17.007   4.468  0.00  0.00    -0.029 A 
HETATM    5  C   UNK N   1      29.185  17.875   6.963  0.00  0.00    -0.029 A 
HETATM    6  C   UNK N   1      33.265  16.160   5.323  0.00  0.00     0.009 A 
HETATM    7  C   UNK N   1      30.279  17.451   9.080  0.00  0.00     0.009 A 
HETATM    8  C   UNK N   1      29.817  17.580   4.510  0.00  0.00     0.013 A 
HETATM    9  C   UNK N   1      29.023  17.930   5.513  0.00  0.00     0.013 A 
HETATM   10  C   UNK N   1      31.632  16.751   3.173  0.00  0.00     0.012 A 
HETATM   11  C   UNK N   1      28.064  18.319   7.682  0.00  0.00     0.012 A 
HETATM   12  C   UNK N   1      33.713  15.912   4.028  0.00  0.00     0.001 A 
HETATM   13  C   UNK N   1      29.158  17.895   9.775  0.00  0.00     0.001 A 
HETATM   14  C   UNK N   1      32.893  16.207   2.949  0.00  0.00     0.001 A 
HETATM   15  C   UNK N   1      28.046  18.331   9.072  0.00  0.00     0.001 A 
ENDROOT
BRANCH   1  16
HETATM   16  C   UNK N   1      32.697  16.456   8.057  0.00  0.00     0.016 C 
BRANCH  16  17
HETATM   17  C   UNK N   1      33.583  17.614   8.486  0.00  0.00     0.020 C 
BRANCH  17  18
HETATM   18  C   UNK N   1      34.885  17.091   9.073  0.00  0.00     0.113 C 
BRANCH  18  19
HETATM   19  N   UNK N   1      34.796  17.054  10.525  0.00  0.00    -0.425 N 
HETATM   20  C   UNK N   1      35.789  16.105  10.991  0.00  0.00     0.139 C 
HETATM   21  H   UNK N   1      34.155  17.594  11.106  0.00  0.00     0.152 HD
ENDBRANCH  18  19
ENDBRANCH  17  18
ENDBRANCH  16  17
ENDBRANCH   1  16
TORSDOF 4
ENDMDL
MODEL 2
REMARK VINA RESULT:      -6.6      0.117      4.514
REMARK  4 active torsions:
REMARK  status: ('A' for Active; 'I' for Inactive)
REMARK    1  A    between atoms: N_1  and  C_9 
REMARK    2  A    between atoms: C_2  and  C_3 
REMARK    3  A    between atoms: C_3  and  C_6 
REMARK    4  A    between atoms: C_6  and  C_9 
ROOT
HETATM    1  C   UNK N   1      31.566  16.746   7.079  0.00  0.00     0.053 A 
HETATM    2  C   UNK N   1      30.299  17.340   7.680  0.00  0.00    -0.039 A 
HETATM    3  C   UNK N   1      31.985  16.608   5.617  0.00  0.00    -0.039 A 
HETATM    4  C   UNK N   1      29.200  17.866   6.954  0.00  0.00    -0.029 A 
HETATM    5  C   UNK N   1      31.210  16.984   4.491  0.00  0.00    -0.029 A 
HETATM    6  C   UNK N   1      30.227  17.370   9.091  0.00  0.00     0.009 A 
HETATM    7  C   UNK N   1      33.262  16.059   5.380  0.00  0.00     0.009 A 
HETATM    8  C   UNK N   1      29.067  17.929   5.499  0.00  0.00     0.013 A 
HETATM    9  C   UNK N   1      29.874  17.573   4.509  0.00  0.00     0.013 A 
HETATM   10  C   UNK N   1      28.103  18.392   7.649  0.00  0.00     0.012 A 
HETATM   11  C   UNK N   1      31.736  16.796   3.203  0.00  0.00     0.012 A 
HETATM   12  C   UNK N   1      29.128  17.898   9.763  0.00  0.00     0.001 A 
HETATM   13  C   UNK N   1      33.766  15.879   4.096  0.00  0.00     0.001 A 
HETATM   14  C   UNK N   1      28.063  18.413   9.040  0.00  0.00     0.001 A 
HETATM   15  C   UNK N   1      32.999  16.249   3.003  0.00  0.00     0.001 A 
ENDROOT
BRANCH   1  16
HETATM   16  C   UNK N   1      32.624  16.289   8.105  0.00  0.00     0.016 C 
BRANCH  16  17
HETATM   17  C   UNK N   1      33.501  17.449   8.549  0.00  0.00     0.020 C 
BRANCH  17  18
HETATM   18  C   UNK N   1      34.826  16.931   9.087  0.00  0.00     0.113 C 
BRANCH  18  19
HETATM   19  N   UNK N   1      34.896  17.140  10.524  0.00  0.00    -0.425 N 
HETATM   20  C   UNK N   1      35.713  16.074  11.073  0.00  0.00     0.139 C 
HETATM   21  H   UNK N   1      34.453  17.894  11.049  0.00  0.00     0.152 HD
ENDBRANCH  18  19
ENDBRANCH  17  18
ENDBRANCH  16  17
ENDBRANCH   1  16
TORSDOF 4
ENDMDL
MODEL 3
REMARK VINA RESULT:      -6.5      8.029     10.848
REMARK  4 active torsions:
REMARK  status: ('A' for Active; 'I' for Inactive)
REMARK    1  A    between atoms: N_1  and  C_9 
REMARK    2  A    between atoms: C_2  and  C_3 
REMARK    3  A    between atoms: C_3  and  C_6 
REMARK    4  A    between atoms: C_6  and  C_9 
ROOT
HETATM    1  C   UNK N   1      22.004  14.382   8.090  0.00  0.00     0.053 A 
HETATM    2  C   UNK N   1      22.960  14.960   7.057  0.00  0.00    -0.039 A 
HETATM    3  C   UNK N   1      22.283  13.468   9.282  0.00  0.00    -0.039 A 
HETATM    4  C   UNK N   1      24.356  14.711   6.983  0.00  0.00    -0.029 A 
HETATM    5  C   UNK N   1      23.544  12.925   9.634  0.00  0.00    -0.029 A 
HETATM    6  C   UNK N   1      22.397  15.826   6.093  0.00  0.00     0.009 A 
HETATM    7  C   UNK N   1      21.179  13.148  10.098  0.00  0.00     0.009 A 
HETATM    8  C   UNK N   1      25.135  13.850   7.870  0.00  0.00     0.013 A 
HETATM    9  C   UNK N   1      24.808  13.130   8.935  0.00  0.00     0.013 A 
HETATM   10  C   UNK N   1      25.113  15.327   5.977  0.00  0.00     0.012 A 
HETATM   11  C   UNK N   1      23.641  12.098  10.765  0.00  0.00     0.012 A 
HETATM   12  C   UNK N   1      23.168  16.429   5.102  0.00  0.00     0.001 A 
HETATM   13  C   UNK N   1      21.295  12.327  11.215  0.00  0.00     0.001 A 
HETATM   14  C   UNK N   1      24.530  16.180   5.044  0.00  0.00     0.001 A 
HETATM   15  C   UNK N   1      22.533  11.800  11.550  0.00  0.00     0.001 A 
ENDROOT
BRANCH   1  16
HETATM   16  C   UNK N   1      20.541  14.858   7.965  0.00  0.00     0.016 C 
BRANCH  16  17
HETATM   17  C   UNK N   1      20.245  15.997   8.928  0.00  0.00     0.020 C 
BRANCH  17  18
HETATM   18  C   UNK N   1      19.629  17.170   8.182  0.00  0.00     0.113 C 
BRANCH  18  19
HETATM   19  N   UNK N   1      18.779  17.938   9.079  0.00  0.00    -0.425 N 
HETATM   20  C   UNK N   1      17.563  17.171   9.277  0.00  0.00     0.139 C 
HETATM   21  H   UNK N   1      18.996  18.845   9.490  0.00  0.00     0.152 HD
ENDBRANCH  18  19
ENDBRANCH  17  18
ENDBRANCH  16  17
ENDBRANCH   1  16
TORSDOF 4
ENDMDL
MODEL 4
REMARK VINA RESULT:      -6.4      8.554     12.561
REMARK  4 active torsions:
REMARK  status: ('A' for Active; 'I' for Inactive)
REMARK    1  A    between atoms: N_1  and  C_9 
REMARK    2  A    between atoms: C_2  and  C_3 
REMARK    3  A    between atoms: C_3  and  C_6 
REMARK    4  A    between atoms: C_6  and  C_9 
ROOT
HETATM    1  C   UNK N   1      35.176  11.441  15.447  0.00  0.00     0.053 A 
HETATM    2  C   UNK N   1      35.267  11.758  16.933  0.00  0.00    -0.039 A 
HETATM    3  C   UNK N   1      35.323  10.107  14.718  0.00  0.00    -0.039 A 
HETATM    4  C   UNK N   1      35.558  10.830  17.966  0.00  0.00    -0.029 A 
HETATM    5  C   UNK N   1      35.633   8.861  15.320  0.00  0.00    -0.029 A 
HETATM    6  C   UNK N   1      35.030  13.101  17.305  0.00  0.00     0.009 A 
HETATM    7  C   UNK N   1      35.126  10.130  13.322  0.00  0.00     0.009 A 
HETATM    8  C   UNK N   1      35.837   9.404  17.803  0.00  0.00     0.013 A 
HETATM    9  C   UNK N   1      35.869   8.613  16.739  0.00  0.00     0.013 A 
HETATM   10  C   UNK N   1      35.595  11.269  19.297  0.00  0.00     0.012 A 
HETATM   11  C   UNK N   1      35.732   7.717  14.513  0.00  0.00     0.012 A 
HETATM   12  C   UNK N   1      35.071  13.516  18.634  0.00  0.00     0.001 A 
HETATM   13  C   UNK N   1      35.229   8.985  12.539  0.00  0.00     0.001 A 
HETATM   14  C   UNK N   1      35.353  12.598  19.633  0.00  0.00     0.001 A 
HETATM   15  C   UNK N   1      35.534   7.773  13.138  0.00  0.00     0.001 A 
ENDROOT
BRANCH   1  16
HETATM   16  C   UNK N   1      34.797  12.635  14.546  0.00  0.00     0.016 C 
BRANCH  16  17
HETATM   17  C   UNK N   1      36.028  13.416  14.114  0.00  0.00     0.020 C 
BRANCH  17  18
HETATM   18  C   UNK N   1      35.919  13.800  12.646  0.00  0.00     0.113 C 
BRANCH  18  19
HETATM   19  N   UNK N   1      37.237  13.784  12.029  0.00  0.00    -0.425 N 
HETATM   20  C   UNK N   1      37.534  12.404  11.693  0.00  0.00     0.139 C 
HETATM   21  H   UNK N   1      37.838  14.590  11.865  0.00  0.00     0.152 HD
ENDBRANCH  18  19
ENDBRANCH  17  18
ENDBRANCH  16  17
ENDBRANCH   1  16
TORSDOF 4
ENDMDL
MODEL 5
REMARK VINA RESULT:      -6.4      7.301     11.795
REMARK  4 active torsions:
REMARK  status: ('A' for Active; 'I' for Inactive)
REMARK    1  A    between atoms: N_1  and  C_9 
REMARK    2  A    between atoms: C_2  and  C_3 
REMARK    3  A    between atoms: C_3  and  C_6 
REMARK    4  A    between atoms: C_6  and  C_9 
ROOT
HETATM    1  C   UNK N   1      35.144  11.501  15.401  0.00  0.00     0.053 A 
HETATM    2  C   UNK N   1      35.311  10.171  14.681  0.00  0.00    -0.039 A 
HETATM    3  C   UNK N   1      35.211  11.824  16.892  0.00  0.00    -0.039 A 
HETATM    4  C   UNK N   1      35.534   8.912  15.297  0.00  0.00    -0.029 A 
HETATM    5  C   UNK N   1      35.406  10.886  17.937  0.00  0.00    -0.029 A 
HETATM    6  C   UNK N   1      35.244  10.206  13.269  0.00  0.00     0.009 A 
HETATM    7  C   UNK N   1      35.070  13.181  17.246  0.00  0.00     0.009 A 
HETATM    8  C   UNK N   1      35.632   8.650  16.732  0.00  0.00     0.013 A 
HETATM    9  C   UNK N   1      35.579   9.444  17.794  0.00  0.00     0.013 A 
HETATM   10  C   UNK N   1      35.681   7.770  14.498  0.00  0.00     0.012 A 
HETATM   11  C   UNK N   1      35.446  11.339  19.265  0.00  0.00     0.012 A 
HETATM   12  C   UNK N   1      35.394   9.059  12.494  0.00  0.00     0.001 A 
HETATM   13  C   UNK N   1      35.113  13.611  18.569  0.00  0.00     0.001 A 
HETATM   14  C   UNK N   1      35.614   7.837  13.110  0.00  0.00     0.001 A 
HETATM   15  C   UNK N   1      35.302  12.685  19.583  0.00  0.00     0.001 A 
ENDROOT
BRANCH   1  16
HETATM   16  C   UNK N   1      34.960  12.725  14.478  0.00  0.00     0.016 C 
BRANCH  16  17
HETATM   17  C   UNK N   1      36.295  13.374  14.147  0.00  0.00     0.020 C 
BRANCH  17  18
HETATM   18  C   UNK N   1      36.330  13.790  12.685  0.00  0.00     0.113 C 
BRANCH  18  19
HETATM   19  N   UNK N   1      36.392  15.240  12.582  0.00  0.00    -0.425 N 
HETATM   20  C   UNK N   1      35.979  15.591  11.236  0.00  0.00     0.139 C 
HETATM   21  H   UNK N   1      36.674  15.887  13.317  0.00  0.00     0.152 HD
ENDBRANCH  18  19
ENDBRANCH  17  18
ENDBRANCH  16  17
ENDBRANCH   1  16
TORSDOF 4
ENDMDL
MODEL 6
REMARK VINA RESULT:      -6.4      2.820      6.715
REMARK  4 active torsions:
REMARK  status: ('A' for Active; 'I' for Inactive)
REMARK    1  A    between atoms: N_1  and  C_9 
REMARK    2  A    between atoms: C_2  and  C_3 
REMARK    3  A    between atoms: C_3  and  C_6 
REMARK    4  A    between atoms: C_6  and  C_9 
ROOT
HETATM    1  C   UNK N   1      29.732  17.371   5.770  0.00  0.00     0.053 A 
HETATM    2  C   UNK N   1      29.595  17.629   7.264  0.00  0.00    -0.039 A 
HETATM    3  C   UNK N   1      30.983  17.135   4.927  0.00  0.00    -0.039 A 
HETATM    4  C   UNK N   1      30.663  17.741   8.191  0.00  0.00    -0.029 A 
HETATM    5  C   UNK N   1      32.320  17.160   5.399  0.00  0.00    -0.029 A 
HETATM    6  C   UNK N   1      28.278  17.758   7.762  0.00  0.00     0.009 A 
HETATM    7  C   UNK N   1      30.776  16.865   3.559  0.00  0.00     0.009 A 
HETATM    8  C   UNK N   1      32.091  17.645   7.891  0.00  0.00     0.013 A 
HETATM    9  C   UNK N   1      32.757  17.412   6.768  0.00  0.00     0.013 A 
HETATM   10  C   UNK N   1      30.379  17.968   9.545  0.00  0.00     0.012 A 
HETATM   11  C   UNK N   1      33.369  16.921   4.497  0.00  0.00     0.012 A 
HETATM   12  C   UNK N   1      28.018  17.983   9.111  0.00  0.00     0.001 A 
HETATM   13  C   UNK N   1      31.829  16.630   2.680  0.00  0.00     0.001 A 
HETATM   14  C   UNK N   1      29.072  18.087  10.006  0.00  0.00     0.001 A 
HETATM   15  C   UNK N   1      33.132  16.659   3.152  0.00  0.00     0.001 A 
ENDROOT
BRANCH   1  16
HETATM   16  C   UNK N   1      28.399  17.248   5.003  0.00  0.00     0.016 C 
BRANCH  16  17
HETATM   17  C   UNK N   1      27.944  18.595   4.463  0.00  0.00     0.020 C 
BRANCH  17  18
HETATM   18  C   UNK N   1      26.429  18.624   4.331  0.00  0.00     0.113 C 
BRANCH  18  19
HETATM   19  N   UNK N   1      25.836  19.186   5.535  0.00  0.00    -0.425 N 
HETATM   20  C   UNK N   1      26.440  20.489   5.741  0.00  0.00     0.139 C 
HETATM   21  H   UNK N   1      25.129  18.747   6.123  0.00  0.00     0.152 HD
ENDBRANCH  18  19
ENDBRANCH  17  18
ENDBRANCH  16  17
ENDBRANCH   1  16
TORSDOF 4
ENDMDL
MODEL 7
REMARK VINA RESULT:      -6.3     12.351     15.137
REMARK  4 active torsions:
REMARK  status: ('A' for Active; 'I' for Inactive)
REMARK    1  A    between atoms: N_1  and  C_9 
REMARK    2  A    between atoms: C_2  and  C_3 
REMARK    3  A    between atoms: C_3  and  C_6 
REMARK    4  A    between atoms: C_6  and  C_9 
ROOT
HETATM    1  C   UNK N   1      27.957  24.347  -4.946  0.00  0.00     0.053 A 
HETATM    2  C   UNK N   1      26.943  25.483  -4.947  0.00  0.00    -0.039 A 
HETATM    3  C   UNK N   1      28.166  23.220  -5.954  0.00  0.00    -0.039 A 
HETATM    4  C   UNK N   1      25.928  25.693  -5.916  0.00  0.00    -0.029 A 
HETATM    5  C   UNK N   1      27.384  22.985  -7.113  0.00  0.00    -0.029 A 
HETATM    6  C   UNK N   1      27.037  26.411  -3.885  0.00  0.00     0.009 A 
HETATM    7  C   UNK N   1      29.240  22.343  -5.700  0.00  0.00     0.009 A 
HETATM    8  C   UNK N   1      25.653  24.858  -7.085  0.00  0.00     0.013 A 
HETATM    9  C   UNK N   1      26.238  23.769  -7.565  0.00  0.00     0.013 A 
HETATM   10  C   UNK N   1      25.073  26.796  -5.790  0.00  0.00     0.012 A 
HETATM   11  C   UNK N   1      27.703  21.903  -7.948  0.00  0.00     0.012 A 
HETATM   12  C   UNK N   1      26.177  27.501  -3.779  0.00  0.00     0.001 A 
HETATM   13  C   UNK N   1      29.542  21.275  -6.539  0.00  0.00     0.001 A 
HETATM   14  C   UNK N   1      25.193  27.696  -4.735  0.00  0.00     0.001 A 
HETATM   15  C   UNK N   1      28.769  21.054  -7.669  0.00  0.00     0.001 A 
ENDROOT
BRANCH   1  16
HETATM   16  C   UNK N   1      28.982  24.387  -3.794  0.00  0.00     0.016 C 
BRANCH  16  17
HETATM   17  C   UNK N   1      28.552  23.496  -2.639  0.00  0.00     0.020 C 
BRANCH  17  18
HETATM   18  C   UNK N   1      29.769  22.862  -1.982  0.00  0.00     0.113 C 
BRANCH  18  19
HETATM   19  N   UNK N   1      30.971  23.205  -2.727  0.00  0.00    -0.425 N 
HETATM   20  C   UNK N   1      31.721  21.978  -2.918  0.00  0.00     0.139 C 
HETATM   21  H   UNK N   1      31.237  24.134  -3.052  0.00  0.00     0.152 HD
ENDBRANCH  18  19
ENDBRANCH  17  18
ENDBRANCH  16  17
ENDBRANCH   1  16
TORSDOF 4
ENDMDL
MODEL 8
REMARK VINA RESULT:      -6.3     12.748     15.633
REMARK  4 active torsions:
REMARK  status: ('A' for Active; 'I' for Inactive)
REMARK    1  A    between atoms: N_1  and  C_9 
REMARK    2  A    between atoms: C_2  and  C_3 
REMARK    3  A    between atoms: C_3  and  C_6 
REMARK    4  A    between atoms: C_6  and  C_9 
ROOT
HETATM    1  C   UNK N   1      28.287  22.753  -6.360  0.00  0.00     0.053 A 
HETATM    2  C   UNK N   1      27.506  23.813  -5.597  0.00  0.00    -0.039 A 
HETATM    3  C   UNK N   1      29.426  21.849  -5.894  0.00  0.00    -0.039 A 
HETATM    4  C   UNK N   1      27.730  24.205  -4.251  0.00  0.00    -0.029 A 
HETATM    5  C   UNK N   1      30.027  21.865  -4.610  0.00  0.00    -0.029 A 
HETATM    6  C   UNK N   1      26.461  24.454  -6.301  0.00  0.00     0.009 A 
HETATM    7  C   UNK N   1      29.911  20.916  -6.833  0.00  0.00     0.009 A 
HETATM    8  C   UNK N   1      28.753  23.679  -3.350  0.00  0.00     0.013 A 
HETATM    9  C   UNK N   1      29.678  22.739  -3.494  0.00  0.00     0.013 A 
HETATM   10  C   UNK N   1      26.918  25.192  -3.677  0.00  0.00     0.012 A 
HETATM   11  C   UNK N   1      31.068  20.966  -4.330  0.00  0.00     0.012 A 
HETATM   12  C   UNK N   1      25.665  25.432  -5.711  0.00  0.00     0.001 A 
HETATM   13  C   UNK N   1      30.945  20.033  -6.537  0.00  0.00     0.001 A 
HETATM   14  C   UNK N   1      25.893  25.802  -4.394  0.00  0.00     0.001 A 
HETATM   15  C   UNK N   1      31.526  20.059  -5.279  0.00  0.00     0.001 A 
ENDROOT
BRANCH   1  16
HETATM   16  C   UNK N   1      27.800  22.494  -7.801  0.00  0.00     0.016 C 
BRANCH  16  17
HETATM   17  C   UNK N   1      26.768  21.378  -7.844  0.00  0.00     0.020 C 
BRANCH  17  18
HETATM   18  C   UNK N   1      25.606  21.771  -8.745  0.00  0.00     0.113 C 
BRANCH  18  19
HETATM   19  N   UNK N   1      24.450  22.128  -7.938  0.00  0.00    -0.425 N 
HETATM   20  C   UNK N   1      24.392  21.188  -6.834  0.00  0.00     0.139 C 
HETATM   21  H   UNK N   1      23.802  22.895  -8.114  0.00  0.00     0.152 HD
ENDBRANCH  18  19
ENDBRANCH  17  18
ENDBRANCH  16  17
ENDBRANCH   1  16
TORSDOF 4
ENDMDL
MODEL 9
REMARK VINA RESULT:      -6.1     12.404     15.092
REMARK  4 active torsions:
REMARK  status: ('A' for Active; 'I' for Inactive)
REMARK    1  A    between atoms: N_1  and  C_9 
REMARK    2  A    between atoms: C_2  and  C_3 
REMARK    3  A    between atoms: C_3  and  C_6 
REMARK    4  A    between atoms: C_6  and  C_9 
ROOT
HETATM    1  C   UNK N   1      28.560  22.608  -6.169  0.00  0.00     0.053 A 
HETATM    2  C   UNK N   1      29.682  21.809  -5.522  0.00  0.00    -0.039 A 
HETATM    3  C   UNK N   1      27.672  23.703  -5.582  0.00  0.00    -0.039 A 
HETATM    4  C   UNK N   1      30.107  21.912  -4.172  0.00  0.00    -0.029 A 
HETATM    5  C   UNK N   1      27.701  24.168  -4.243  0.00  0.00    -0.029 A 
HETATM    6  C   UNK N   1      30.359  20.888  -6.353  0.00  0.00     0.009 A 
HETATM    7  C   UNK N   1      26.748  24.300  -6.464  0.00  0.00     0.009 A 
HETATM    8  C   UNK N   1      29.545  22.790  -3.147  0.00  0.00     0.013 A 
HETATM    9  C   UNK N   1      28.577  23.696  -3.175  0.00  0.00     0.013 A 
HETATM   10  C   UNK N   1      31.168  21.115  -3.720  0.00  0.00     0.012 A 
HETATM   11  C   UNK N   1      26.819  25.188  -3.853  0.00  0.00     0.012 A 
HETATM   12  C   UNK N   1      31.412  20.106  -5.885  0.00  0.00     0.001 A 
HETATM   13  C   UNK N   1      25.881  25.310  -6.058  0.00  0.00     0.001 A 
HETATM   14  C   UNK N   1      31.819  20.220  -4.564  0.00  0.00     0.001 A 
HETATM   15  C   UNK N   1      25.917  25.756  -4.746  0.00  0.00     0.001 A 
ENDROOT
BRANCH   1  16
HETATM   16  C   UNK N   1      28.339  22.327  -7.670  0.00  0.00     0.016 C 
BRANCH  16  17
HETATM   17  C   UNK N   1      27.355  21.187  -7.882  0.00  0.00     0.020 C 
BRANCH  17  18
HETATM   18  C   UNK N   1      26.648  21.345  -9.219  0.00  0.00     0.113 C 
BRANCH  18  19
HETATM   19  N   UNK N   1      25.206  21.304  -9.027  0.00  0.00    -0.425 N 
HETATM   20  C   UNK N   1      24.969  21.178  -7.601  0.00  0.00     0.139 C 
HETATM   21  H   UNK N   1      24.497  21.354  -9.757  0.00  0.00     0.152 HD
ENDBRANCH  18  19
ENDBRANCH  17  18
ENDBRANCH  16  17
ENDBRANCH   1  16
TORSDOF 4
ENDMDL
