MODEL 1
REMARK VINA RESULT:      -4.9      0.000      0.000
REMARK  0 active torsions:
REMARK  status: ('A' for Active; 'I' for Inactive)
ROOT
HETATM    1  O   UNK N   1      34.271  18.227   6.902  0.00  0.00    -0.283 OA
HETATM    2  O   UNK N   1      33.750  15.143   8.293  0.00  0.00    -0.269 OA
HETATM    3  O   UNK N   1      35.311  19.269   8.624  0.00  0.00    -0.238 OA
HETATM    4  N   UNK N   1      34.637  17.137   8.788  0.00  0.00    -0.266 N 
HETATM    5  C   UNK N   1      33.715  16.969   6.597  0.00  0.00     0.146 A 
HETATM    6  C   UNK N   1      34.019  16.294   7.964  0.00  0.00     0.262 A 
HETATM    7  C   UNK N   1      33.035  15.789   5.912  0.00  0.00     0.057 C 
HETATM    8  C   UNK N   1      33.344  17.469   5.217  0.00  0.00     0.057 C 
HETATM    9  C   UNK N   1      34.779  18.278   8.147  0.00  0.00     0.370 A 
HETATM   10  C   UNK N   1      35.069  16.854  10.135  0.00  0.00     0.165 C 
ENDROOT
TORSDOF 0
ENDMDL
MODEL 2
REMARK VINA RESULT:      -4.5      1.221      3.313
REMARK  0 active torsions:
REMARK  status: ('A' for Active; 'I' for Inactive)
ROOT
HETATM    1  O   UNK N   1      35.263  17.550   9.856  0.00  0.00    -0.283 OA
HETATM    2  O   UNK N   1      33.164  15.267   8.405  0.00  0.00    -0.269 OA
HETATM    3  O   UNK N   1      35.103  19.243   8.359  0.00  0.00    -0.238 OA
HETATM    4  N   UNK N   1      33.969  17.329   8.080  0.00  0.00    -0.266 N 
HETATM    5  C   UNK N   1      34.752  16.252  10.055  0.00  0.00     0.146 A 
HETATM    6  C   UNK N   1      33.872  16.199   8.775  0.00  0.00     0.262 A 
HETATM    7  C   UNK N   1      34.433  14.866  10.603  0.00  0.00     0.057 C 
HETATM    8  C   UNK N   1      35.550  16.136  11.337  0.00  0.00     0.057 C 
HETATM    9  C   UNK N   1      34.796  18.121   8.731  0.00  0.00     0.370 A 
HETATM   10  C   UNK N   1      33.293  17.633   6.842  0.00  0.00     0.165 C 
ENDROOT
TORSDOF 0
ENDMDL
MODEL 3
REMARK VINA RESULT:      -4.3     12.216     13.351
REMARK  0 active torsions:
REMARK  status: ('A' for Active; 'I' for Inactive)
ROOT
HETATM    1  O   UNK N   1      21.385  12.892  10.831  0.00  0.00    -0.283 OA
HETATM    2  O   UNK N   1      23.738  13.561   8.436  0.00  0.00    -0.269 OA
HETATM    3  O   UNK N   1      19.577  13.892   9.902  0.00  0.00    -0.238 OA
HETATM    4  N   UNK N   1      21.572  13.908   8.879  0.00  0.00    -0.266 N 
HETATM    5  C   UNK N   1      22.748  12.677  10.546  0.00  0.00     0.146 A 
HETATM    6  C   UNK N   1      22.772  13.417   9.179  0.00  0.00     0.262 A 
HETATM    7  C   UNK N   1      24.211  12.253  10.595  0.00  0.00     0.057 C 
HETATM    8  C   UNK N   1      22.901  11.923  11.850  0.00  0.00     0.057 C 
HETATM    9  C   UNK N   1      20.760  13.590   9.866  0.00  0.00     0.370 A 
HETATM   10  C   UNK N   1      21.224  14.651   7.692  0.00  0.00     0.165 C 
ENDROOT
TORSDOF 0
ENDMDL
MODEL 4
REMARK VINA RESULT:      -4.3     11.685     12.913
REMARK  0 active torsions:
REMARK  status: ('A' for Active; 'I' for Inactive)
ROOT
HETATM    1  O   UNK N   1      31.981  21.927  -2.357  0.00  0.00    -0.283 OA
HETATM    2  O   UNK N   1      31.094  22.099  -5.659  0.00  0.00    -0.269 OA
HETATM    3  O   UNK N   1      30.270  23.083  -1.426  0.00  0.00    -0.238 OA
HETATM    4  N   UNK N   1      30.389  22.760  -3.641  0.00  0.00    -0.266 N 
HETATM    5  C   UNK N   1      32.419  21.514  -3.631  0.00  0.00     0.146 A 
HETATM    6  C   UNK N   1      31.251  22.140  -4.443  0.00  0.00     0.262 A 
HETATM    7  C   UNK N   1      33.197  20.906  -4.792  0.00  0.00     0.057 C 
HETATM    8  C   UNK N   1      33.622  20.846  -3.000  0.00  0.00     0.057 C 
HETATM    9  C   UNK N   1      30.833  22.627  -2.408  0.00  0.00     0.370 A 
HETATM   10  C   UNK N   1      29.189  23.452  -4.046  0.00  0.00     0.165 C 
ENDROOT
TORSDOF 0
ENDMDL
MODEL 5
REMARK VINA RESULT:      -4.3     11.834     12.729
REMARK  0 active torsions:
REMARK  status: ('A' for Active; 'I' for Inactive)
ROOT
HETATM    1  O   UNK N   1      22.733  20.836   2.106  0.00  0.00    -0.283 OA
HETATM    2  O   UNK N   1      22.067  18.488   4.506  0.00  0.00    -0.269 OA
HETATM    3  O   UNK N   1      24.984  20.988   2.313  0.00  0.00    -0.238 OA
HETATM    4  N   UNK N   1      23.786  19.598   3.602  0.00  0.00    -0.266 N 
HETATM    5  C   UNK N   1      21.655  20.134   2.680  0.00  0.00     0.146 A 
HETATM    6  C   UNK N   1      22.491  19.309   3.699  0.00  0.00     0.262 A 
HETATM    7  C   UNK N   1      20.275  19.593   3.034  0.00  0.00     0.057 C 
HETATM    8  C   UNK N   1      20.696  20.852   1.756  0.00  0.00     0.057 C 
HETATM    9  C   UNK N   1      23.916  20.504   2.655  0.00  0.00     0.370 A 
HETATM   10  C   UNK N   1      24.851  19.026   4.388  0.00  0.00     0.165 C 
ENDROOT
TORSDOF 0
ENDMDL
MODEL 6
REMARK VINA RESULT:      -4.2     10.851     11.541
REMARK  0 active torsions:
REMARK  status: ('A' for Active; 'I' for Inactive)
ROOT
HETATM    1  O   UNK N   1      42.864  23.863   2.154  0.00  0.00    -0.283 OA
HETATM    2  O   UNK N   1      42.495  20.676   3.348  0.00  0.00    -0.269 OA
HETATM    3  O   UNK N   1      44.936  24.342   2.935  0.00  0.00    -0.238 OA
HETATM    4  N   UNK N   1      43.972  22.356   3.329  0.00  0.00    -0.266 N 
HETATM    5  C   UNK N   1      41.938  22.801   2.170  0.00  0.00     0.146 A 
HETATM    6  C   UNK N   1      42.801  21.814   3.005  0.00  0.00     0.262 A 
HETATM    7  C   UNK N   1      40.715  21.914   1.970  0.00  0.00     0.057 C 
HETATM    8  C   UNK N   1      40.972  23.632   1.353  0.00  0.00     0.057 C 
HETATM    9  C   UNK N   1      43.996  23.571   2.819  0.00  0.00     0.370 A 
HETATM   10  C   UNK N   1      45.021  21.731   4.097  0.00  0.00     0.165 C 
ENDROOT
TORSDOF 0
ENDMDL
MODEL 7
REMARK VINA RESULT:      -4.2     15.592     17.241
REMARK  0 active torsions:
REMARK  status: ('A' for Active; 'I' for Inactive)
ROOT
HETATM    1  O   UNK N   1      26.332  25.917  -3.214  0.00  0.00    -0.283 OA
HETATM    2  O   UNK N   1      25.452  26.012  -6.521  0.00  0.00    -0.269 OA
HETATM    3  O   UNK N   1      26.679  23.692  -2.959  0.00  0.00    -0.238 OA
HETATM    4  N   UNK N   1      26.053  24.556  -4.931  0.00  0.00    -0.266 N 
HETATM    5  C   UNK N   1      25.953  26.828  -4.219  0.00  0.00     0.146 A 
HETATM    6  C   UNK N   1      25.785  25.787  -5.361  0.00  0.00     0.262 A 
HETATM    7  C   UNK N   1      25.588  28.081  -5.005  0.00  0.00     0.057 C 
HETATM    8  C   UNK N   1      26.069  27.967  -3.229  0.00  0.00     0.057 C 
HETATM    9  C   UNK N   1      26.375  24.647  -3.657  0.00  0.00     0.370 A 
HETATM   10  C   UNK N   1      26.000  23.346  -5.714  0.00  0.00     0.165 C 
ENDROOT
TORSDOF 0
ENDMDL
MODEL 8
REMARK VINA RESULT:      -4.2      7.007      8.941
REMARK  0 active torsions:
REMARK  status: ('A' for Active; 'I' for Inactive)
ROOT
HETATM    1  O   UNK N   1      36.252  13.009  16.184  0.00  0.00    -0.283 OA
HETATM    2  O   UNK N   1      34.553  12.580  13.242  0.00  0.00    -0.269 OA
HETATM    3  O   UNK N   1      37.472  14.848  15.673  0.00  0.00    -0.238 OA
HETATM    4  N   UNK N   1      36.063  13.935  14.187  0.00  0.00    -0.266 N 
HETATM    5  C   UNK N   1      35.301  12.160  15.583  0.00  0.00     0.146 A 
HETATM    6  C   UNK N   1      35.243  12.887  14.210  0.00  0.00     0.262 A 
HETATM    7  C   UNK N   1      34.293  11.055  15.293  0.00  0.00     0.057 C 
HETATM    8  C   UNK N   1      35.236  11.337  16.852  0.00  0.00     0.057 C 
HETATM    9  C   UNK N   1      36.654  13.996  15.363  0.00  0.00     0.370 A 
HETATM   10  C   UNK N   1      36.267  14.838  13.081  0.00  0.00     0.165 C 
ENDROOT
TORSDOF 0
ENDMDL
MODEL 9
REMARK VINA RESULT:      -4.1      2.392      2.944
REMARK  0 active torsions:
REMARK  status: ('A' for Active; 'I' for Inactive)
ROOT
HETATM    1  O   UNK N   1      33.357  17.467   5.000  0.00  0.00    -0.283 OA
HETATM    2  O   UNK N   1      30.301  16.892   6.432  0.00  0.00    -0.269 OA
HETATM    3  O   UNK N   1      34.583  17.918   6.851  0.00  0.00    -0.238 OA
HETATM    4  N   UNK N   1      32.400  17.427   6.991  0.00  0.00    -0.266 N 
HETATM    5  C   UNK N   1      32.033  17.131   4.655  0.00  0.00     0.146 A 
HETATM    6  C   UNK N   1      31.458  17.129   6.100  0.00  0.00     0.262 A 
HETATM    7  C   UNK N   1      30.756  16.770   3.907  0.00  0.00     0.057 C 
HETATM    8  C   UNK N   1      32.426  17.089   3.194  0.00  0.00     0.057 C 
HETATM    9  C   UNK N   1      33.520  17.625   6.327  0.00  0.00     0.370 A 
HETATM   10  C   UNK N   1      32.228  17.517   8.420  0.00  0.00     0.165 C 
ENDROOT
TORSDOF 0
ENDMDL
