MODEL 1
REMARK VINA RESULT:      -7.0      0.000      0.000
REMARK  4 active torsions:
REMARK  status: ('A' for Active; 'I' for Inactive)
REMARK    1  A    between atoms: N_9  and  C_18 
REMARK    2  A    between atoms: C_10  and  C_16 
REMARK    3  A    between atoms: C_16  and  C_17 
REMARK    4  A    between atoms: C_20  and  C_23 
ROOT
HETATM    1  C   UNK N   1      28.809  24.201  -4.932  0.00  0.00     0.044 A 
HETATM    2  C   UNK N   1      27.448  24.134  -4.484  0.00  0.00     0.117 A 
HETATM    3  C   UNK N   1      29.125  23.655  -6.184  0.00  0.00     0.018 A 
HETATM    4  C   UNK N   1      26.840  23.003  -6.571  0.00  0.00     0.050 A 
HETATM    5  C   UNK N   1      26.491  23.535  -5.325  0.00  0.00     0.053 A 
HETATM    6  C   UNK N   1      28.163  23.063  -6.991  0.00  0.00     0.017 A 
ENDROOT
BRANCH   1   7
HETATM    7  C   UNK N   1      29.916  24.861  -4.170  0.00  0.00     0.180 C 
HETATM    8  O   UNK N   1      29.915  26.079  -4.066  0.00  0.00    -0.291 OA
BRANCH   7   9
HETATM    9  C   UNK N   1      31.037  24.060  -3.494  0.00  0.00     0.199 C 
HETATM   10  C   UNK N   1      30.601  22.890  -2.651  0.00  0.00     0.145 C 
HETATM   11  O   UNK N   1      30.259  23.069  -1.493  0.00  0.00    -0.297 OA
HETATM   12  C   UNK N   1      30.775  21.501  -3.156  0.00  0.00     0.080 C 
HETATM   13  C   UNK N   1      32.241  21.323  -3.492  0.00  0.00     0.015 C 
HETATM   14  C   UNK N   1      32.669  22.275  -4.608  0.00  0.00     0.080 C 
HETATM   15  C   UNK N   1      32.185  23.697  -4.431  0.00  0.00     0.145 C 
HETATM   16  O   UNK N   1      32.728  24.578  -5.078  0.00  0.00    -0.297 OA
ENDBRANCH   7   9
ENDBRANCH   1   7
BRANCH   2  17
HETATM   17  N   UNK N   1      27.014  24.568  -3.187  0.00  0.00    -0.115 N 
HETATM   18  O   UNK N   1      26.387  25.722  -3.068  0.00  0.00    -0.532 OA
HETATM   19  O   UNK N   1      27.056  23.842  -2.245  0.00  0.00    -0.532 OA
ENDBRANCH   2  17
BRANCH   4  20
HETATM   20  C   UNK N   1      25.819  22.339  -7.447  0.00  0.00     0.417 C 
HETATM   21  F   UNK N   1      24.867  21.727  -6.650  0.00  0.00    -0.166 F 
HETATM   22  F   UNK N   1      26.432  21.381  -8.234  0.00  0.00    -0.166 F 
HETATM   23  F   UNK N   1      25.188  23.257  -8.268  0.00  0.00    -0.166 F 
ENDBRANCH   4  20
TORSDOF 4
ENDMDL
MODEL 2
REMARK VINA RESULT:      -7.0     15.671     17.310
REMARK  4 active torsions:
REMARK  status: ('A' for Active; 'I' for Inactive)
REMARK    1  A    between atoms: N_9  and  C_18 
REMARK    2  A    between atoms: C_10  and  C_16 
REMARK    3  A    between atoms: C_16  and  C_17 
REMARK    4  A    between atoms: C_20  and  C_23 
ROOT
HETATM    1  C   UNK N   1      20.979  16.187   7.484  0.00  0.00     0.044 A 
HETATM    2  C   UNK N   1      20.066  15.974   8.572  0.00  0.00     0.117 A 
HETATM    3  C   UNK N   1      22.041  15.288   7.320  0.00  0.00     0.018 A 
HETATM    4  C   UNK N   1      21.343  13.985   9.220  0.00  0.00     0.050 A 
HETATM    5  C   UNK N   1      20.274  14.866   9.416  0.00  0.00     0.053 A 
HETATM    6  C   UNK N   1      22.226  14.207   8.171  0.00  0.00     0.017 A 
ENDROOT
BRANCH   1   7
HETATM    7  C   UNK N   1      20.846  17.286   6.476  0.00  0.00     0.180 C 
HETATM    8  O   UNK N   1      21.160  18.423   6.799  0.00  0.00    -0.291 OA
BRANCH   7   9
HETATM    9  C   UNK N   1      20.355  17.031   5.045  0.00  0.00     0.199 C 
HETATM   10  C   UNK N   1      21.423  16.843   4.000  0.00  0.00     0.145 C 
HETATM   11  O   UNK N   1      21.935  17.817   3.472  0.00  0.00    -0.297 OA
HETATM   12  C   UNK N   1      21.716  15.485   3.467  0.00  0.00     0.080 C 
HETATM   13  C   UNK N   1      20.417  14.925   2.924  0.00  0.00     0.015 C 
HETATM   14  C   UNK N   1      19.377  14.770   4.034  0.00  0.00     0.080 C 
HETATM   15  C   UNK N   1      19.265  15.968   4.949  0.00  0.00     0.145 C 
HETATM   16  O   UNK N   1      18.268  16.072   5.646  0.00  0.00    -0.297 OA
ENDBRANCH   7   9
ENDBRANCH   1   7
BRANCH   2  17
HETATM   17  N   UNK N   1      18.999  16.873   8.904  0.00  0.00    -0.115 N 
HETATM   18  O   UNK N   1      17.754  16.439   8.866  0.00  0.00    -0.532 OA
HETATM   19  O   UNK N   1      19.216  17.945   9.373  0.00  0.00    -0.532 OA
ENDBRANCH   2  17
BRANCH   4  20
HETATM   20  C   UNK N   1      21.573  12.825  10.144  0.00  0.00     0.417 C 
HETATM   21  F   UNK N   1      21.877  11.702   9.395  0.00  0.00    -0.166 F 
HETATM   22  F   UNK N   1      20.427  12.581  10.879  0.00  0.00    -0.166 F 
HETATM   23  F   UNK N   1      22.619  13.076  11.014  0.00  0.00    -0.166 F 
ENDBRANCH   4  20
TORSDOF 4
ENDMDL
MODEL 3
REMARK VINA RESULT:      -7.0     15.694     17.244
REMARK  4 active torsions:
REMARK  status: ('A' for Active; 'I' for Inactive)
REMARK    1  A    between atoms: N_9  and  C_18 
REMARK    2  A    between atoms: C_10  and  C_16 
REMARK    3  A    between atoms: C_16  and  C_17 
REMARK    4  A    between atoms: C_20  and  C_23 
ROOT
HETATM    1  C   UNK N   1      20.141  15.160   7.165  0.00  0.00     0.044 A 
HETATM    2  C   UNK N   1      19.901  15.423   8.555  0.00  0.00     0.117 A 
HETATM    3  C   UNK N   1      20.917  14.044   6.823  0.00  0.00     0.018 A 
HETATM    4  C   UNK N   1      21.212  13.434   9.133  0.00  0.00     0.050 A 
HETATM    5  C   UNK N   1      20.446  14.542   9.510  0.00  0.00     0.053 A 
HETATM    6  C   UNK N   1      21.448  13.196   7.785  0.00  0.00     0.017 A 
ENDROOT
BRANCH   1   7
HETATM    7  C   UNK N   1      19.577  15.975   6.043  0.00  0.00     0.180 C 
HETATM    8  O   UNK N   1      18.378  15.908   5.813  0.00  0.00    -0.291 OA
BRANCH   7   9
HETATM    9  C   UNK N   1      20.445  16.910   5.191  0.00  0.00     0.199 C 
HETATM   10  C   UNK N   1      21.621  17.543   5.889  0.00  0.00     0.145 C 
HETATM   11  O   UNK N   1      21.464  18.560   6.546  0.00  0.00    -0.297 OA
HETATM   12  C   UNK N   1      23.000  17.052   5.622  0.00  0.00     0.080 C 
HETATM   13  C   UNK N   1      23.229  17.144   4.127  0.00  0.00     0.015 C 
HETATM   14  C   UNK N   1      22.262  16.239   3.365  0.00  0.00     0.080 C 
HETATM   15  C   UNK N   1      20.827  16.329   3.834  0.00  0.00     0.145 C 
HETATM   16  O   UNK N   1      19.950  15.903   3.100  0.00  0.00    -0.297 OA
ENDBRANCH   7   9
ENDBRANCH   1   7
BRANCH   2  17
HETATM   17  N   UNK N   1      19.207  16.581   9.039  0.00  0.00    -0.115 N 
HETATM   18  O   UNK N   1      19.851  17.727   9.135  0.00  0.00    -0.532 OA
HETATM   19  O   UNK N   1      18.027  16.575   9.196  0.00  0.00    -0.532 OA
ENDBRANCH   2  17
BRANCH   4  20
HETATM   20  C   UNK N   1      21.814  12.520  10.159  0.00  0.00     0.417 C 
HETATM   21  F   UNK N   1      22.806  13.199  10.845  0.00  0.00    -0.166 F 
HETATM   22  F   UNK N   1      22.369  11.419   9.534  0.00  0.00    -0.166 F 
HETATM   23  F   UNK N   1      20.862  12.088  11.066  0.00  0.00    -0.166 F 
ENDBRANCH   4  20
TORSDOF 4
ENDMDL
MODEL 4
REMARK VINA RESULT:      -6.9     14.724     16.919
REMARK  4 active torsions:
REMARK  status: ('A' for Active; 'I' for Inactive)
REMARK    1  A    between atoms: N_9  and  C_18 
REMARK    2  A    between atoms: C_10  and  C_16 
REMARK    3  A    between atoms: C_16  and  C_17 
REMARK    4  A    between atoms: C_20  and  C_23 
ROOT
HETATM    1  C   UNK N   1      33.344  15.904   8.610  0.00  0.00     0.044 A 
HETATM    2  C   UNK N   1      33.210  17.278   8.219  0.00  0.00     0.117 A 
HETATM    3  C   UNK N   1      32.252  15.277   9.226  0.00  0.00     0.018 A 
HETATM    4  C   UNK N   1      30.913  17.271   9.074  0.00  0.00     0.050 A 
HETATM    5  C   UNK N   1      31.985  17.929   8.461  0.00  0.00     0.053 A 
HETATM    6  C   UNK N   1      31.058  15.944   9.459  0.00  0.00     0.017 A 
ENDROOT
BRANCH   1   7
HETATM    7  C   UNK N   1      34.564  15.072   8.361  0.00  0.00     0.180 C 
HETATM    8  O   UNK N   1      34.814  14.722   7.217  0.00  0.00    -0.291 OA
BRANCH   7   9
HETATM    9  C   UNK N   1      35.525  14.668   9.487  0.00  0.00     0.199 C 
HETATM   10  C   UNK N   1      35.681  15.657  10.613  0.00  0.00     0.145 C 
HETATM   11  O   UNK N   1      36.466  16.585  10.504  0.00  0.00    -0.297 OA
HETATM   12  C   UNK N   1      35.035  15.398  11.928  0.00  0.00     0.080 C 
HETATM   13  C   UNK N   1      35.523  14.047  12.412  0.00  0.00     0.015 C 
HETATM   14  C   UNK N   1      35.091  12.933  11.459  0.00  0.00     0.080 C 
HETATM   15  C   UNK N   1      35.313  13.246   9.997  0.00  0.00     0.145 C 
HETATM   16  O   UNK N   1      35.304  12.323   9.199  0.00  0.00    -0.297 OA
ENDBRANCH   7   9
ENDBRANCH   1   7
BRANCH   2  17
HETATM   17  N   UNK N   1      34.281  18.059   7.669  0.00  0.00    -0.115 N 
HETATM   18  O   UNK N   1      34.567  17.950   6.387  0.00  0.00    -0.532 OA
HETATM   19  O   UNK N   1      34.805  18.921   8.301  0.00  0.00    -0.532 OA
ENDBRANCH   2  17
BRANCH   4  20
HETATM   20  C   UNK N   1      29.623  17.984   9.356  0.00  0.00     0.417 C 
HETATM   21  F   UNK N   1      29.080  18.428   8.163  0.00  0.00    -0.166 F 
HETATM   22  F   UNK N   1      29.860  19.071  10.177  0.00  0.00    -0.166 F 
HETATM   23  F   UNK N   1      28.712  17.145   9.975  0.00  0.00    -0.166 F 
ENDBRANCH   4  20
TORSDOF 4
ENDMDL
MODEL 5
REMARK VINA RESULT:      -6.9     13.269     14.761
REMARK  4 active torsions:
REMARK  status: ('A' for Active; 'I' for Inactive)
REMARK    1  A    between atoms: N_9  and  C_18 
REMARK    2  A    between atoms: C_10  and  C_16 
REMARK    3  A    between atoms: C_16  and  C_17 
REMARK    4  A    between atoms: C_20  and  C_23 
ROOT
HETATM    1  C   UNK N   1      32.264  17.326   6.487  0.00  0.00     0.044 A 
HETATM    2  C   UNK N   1      32.705  17.710   7.798  0.00  0.00     0.117 A 
HETATM    3  C   UNK N   1      30.887  17.206   6.257  0.00  0.00     0.018 A 
HETATM    4  C   UNK N   1      30.367  17.833   8.522  0.00  0.00     0.050 A 
HETATM    5  C   UNK N   1      31.735  17.958   8.788  0.00  0.00     0.053 A 
HETATM    6  C   UNK N   1      29.951  17.450   7.253  0.00  0.00     0.017 A 
ENDROOT
BRANCH   1   7
HETATM    7  C   UNK N   1      33.179  17.090   5.326  0.00  0.00     0.180 C 
HETATM    8  O   UNK N   1      33.508  18.042   4.632  0.00  0.00    -0.291 OA
BRANCH   7   9
HETATM    9  C   UNK N   1      33.739  15.701   4.993  0.00  0.00     0.199 C 
HETATM   10  C   UNK N   1      34.693  15.112   5.997  0.00  0.00     0.145 C 
HETATM   11  O   UNK N   1      35.876  15.412   5.962  0.00  0.00    -0.297 OA
HETATM   12  C   UNK N   1      34.245  14.019   6.902  0.00  0.00     0.080 C 
HETATM   13  C   UNK N   1      33.723  12.896   6.028  0.00  0.00     0.015 C 
HETATM   14  C   UNK N   1      32.510  13.349   5.216  0.00  0.00     0.080 C 
HETATM   15  C   UNK N   1      32.676  14.698   4.553  0.00  0.00     0.145 C 
HETATM   16  O   UNK N   1      31.916  14.995   3.646  0.00  0.00    -0.297 OA
ENDBRANCH   7   9
ENDBRANCH   1   7
BRANCH   2  17
HETATM   17  N   UNK N   1      34.084  17.774   8.188  0.00  0.00    -0.115 N 
HETATM   18  O   UNK N   1      34.826  18.783   7.774  0.00  0.00    -0.532 OA
HETATM   19  O   UNK N   1      34.532  17.034   9.006  0.00  0.00    -0.532 OA
ENDBRANCH   2  17
BRANCH   4  20
HETATM   20  C   UNK N   1      29.343  18.069   9.593  0.00  0.00     0.417 C 
HETATM   21  F   UNK N   1      29.770  19.101  10.410  0.00  0.00    -0.166 F 
HETATM   22  F   UNK N   1      29.191  16.925  10.354  0.00  0.00    -0.166 F 
HETATM   23  F   UNK N   1      28.117  18.411   9.048  0.00  0.00    -0.166 F 
ENDBRANCH   4  20
TORSDOF 4
ENDMDL
MODEL 6
REMARK VINA RESULT:      -6.8     13.743     15.175
REMARK  4 active torsions:
REMARK  status: ('A' for Active; 'I' for Inactive)
REMARK    1  A    between atoms: N_9  and  C_18 
REMARK    2  A    between atoms: C_10  and  C_16 
REMARK    3  A    between atoms: C_16  and  C_17 
REMARK    4  A    between atoms: C_20  and  C_23 
ROOT
HETATM    1  C   UNK N   1      32.416  17.362   7.481  0.00  0.00     0.044 A 
HETATM    2  C   UNK N   1      31.434  16.617   6.746  0.00  0.00     0.117 A 
HETATM    3  C   UNK N   1      31.980  18.183   8.530  0.00  0.00     0.018 A 
HETATM    4  C   UNK N   1      29.682  17.564   8.174  0.00  0.00     0.050 A 
HETATM    5  C   UNK N   1      30.081  16.737   7.118  0.00  0.00     0.053 A 
HETATM    6  C   UNK N   1      30.639  18.289   8.872  0.00  0.00     0.017 A 
ENDROOT
BRANCH   1   7
HETATM    7  C   UNK N   1      33.891  17.285   7.235  0.00  0.00     0.180 C 
HETATM    8  O   UNK N   1      34.386  18.019   6.392  0.00  0.00    -0.291 OA
BRANCH   7   9
HETATM    9  C   UNK N   1      34.805  16.336   8.021  0.00  0.00     0.199 C 
HETATM   10  C   UNK N   1      34.745  16.449   9.522  0.00  0.00     0.145 C 
HETATM   11  O   UNK N   1      35.411  17.297  10.095  0.00  0.00    -0.297 OA
HETATM   12  C   UNK N   1      34.038  15.412  10.321  0.00  0.00     0.080 C 
HETATM   13  C   UNK N   1      34.656  14.074   9.970  0.00  0.00     0.015 C 
HETATM   14  C   UNK N   1      34.445  13.741   8.494  0.00  0.00     0.080 C 
HETATM   15  C   UNK N   1      34.738  14.886   7.552  0.00  0.00     0.145 C 
HETATM   16  O   UNK N   1      34.908  14.634   6.370  0.00  0.00    -0.297 OA
ENDBRANCH   7   9
ENDBRANCH   1   7
BRANCH   2  17
HETATM   17  N   UNK N   1      31.738  15.817   5.594  0.00  0.00    -0.115 N 
HETATM   18  O   UNK N   1      31.613  14.507   5.665  0.00  0.00    -0.532 OA
HETATM   19  O   UNK N   1      31.939  16.315   4.531  0.00  0.00    -0.532 OA
ENDBRANCH   2  17
BRANCH   4  20
HETATM   20  C   UNK N   1      28.234  17.708   8.542  0.00  0.00     0.417 C 
HETATM   21  F   UNK N   1      28.043  17.232   9.827  0.00  0.00    -0.166 F 
HETATM   22  F   UNK N   1      27.455  16.974   7.668  0.00  0.00    -0.166 F 
HETATM   23  F   UNK N   1      27.835  19.032   8.495  0.00  0.00    -0.166 F 
ENDBRANCH   4  20
TORSDOF 4
ENDMDL
MODEL 7
REMARK VINA RESULT:      -6.6      4.168      6.038
REMARK  4 active torsions:
REMARK  status: ('A' for Active; 'I' for Inactive)
REMARK    1  A    between atoms: N_9  and  C_18 
REMARK    2  A    between atoms: C_10  and  C_16 
REMARK    3  A    between atoms: C_16  and  C_17 
REMARK    4  A    between atoms: C_20  and  C_23 
ROOT
HETATM    1  C   UNK N   1      28.052  25.629  -5.569  0.00  0.00     0.044 A 
HETATM    2  C   UNK N   1      27.541  24.297  -5.412  0.00  0.00     0.117 A 
HETATM    3  C   UNK N   1      29.119  26.033  -4.754  0.00  0.00     0.018 A 
HETATM    4  C   UNK N   1      29.207  23.889  -3.662  0.00  0.00     0.050 A 
HETATM    5  C   UNK N   1      28.141  23.455  -4.456  0.00  0.00     0.053 A 
HETATM    6  C   UNK N   1      29.687  25.184  -3.814  0.00  0.00     0.017 A 
ENDROOT
BRANCH   1   7
HETATM    7  C   UNK N   1      27.552  26.609  -6.584  0.00  0.00     0.180 C 
HETATM    8  O   UNK N   1      27.775  26.397  -7.767  0.00  0.00    -0.291 OA
BRANCH   7   9
HETATM    9  C   UNK N   1      26.748  27.856  -6.192  0.00  0.00     0.199 C 
HETATM   10  C   UNK N   1      25.691  27.660  -5.137  0.00  0.00     0.145 C 
HETATM   11  O   UNK N   1      24.585  27.250  -5.451  0.00  0.00    -0.297 OA
HETATM   12  C   UNK N   1      25.922  28.148  -3.750  0.00  0.00     0.080 C 
HETATM   13  C   UNK N   1      26.235  29.628  -3.840  0.00  0.00     0.015 C 
HETATM   14  C   UNK N   1      27.517  29.873  -4.634  0.00  0.00     0.080 C 
HETATM   15  C   UNK N   1      27.610  29.085  -5.921  0.00  0.00     0.145 C 
HETATM   16  O   UNK N   1      28.420  29.442  -6.761  0.00  0.00    -0.297 OA
ENDBRANCH   7   9
ENDBRANCH   1   7
BRANCH   2  17
HETATM   17  N   UNK N   1      26.395  23.796  -6.114  0.00  0.00    -0.115 N 
HETATM   18  O   UNK N   1      25.187  24.084  -5.669  0.00  0.00    -0.532 OA
HETATM   19  O   UNK N   1      26.501  23.269  -7.176  0.00  0.00    -0.532 OA
ENDBRANCH   2  17
BRANCH   4  20
HETATM   20  C   UNK N   1      29.819  22.994  -2.624  0.00  0.00     0.417 C 
HETATM   21  F   UNK N   1      31.131  23.378  -2.410  0.00  0.00    -0.166 F 
HETATM   22  F   UNK N   1      29.798  21.685  -3.068  0.00  0.00    -0.166 F 
HETATM   23  F   UNK N   1      29.131  23.072  -1.426  0.00  0.00    -0.166 F 
ENDBRANCH   4  20
TORSDOF 4
ENDMDL
MODEL 8
REMARK VINA RESULT:      -6.6      2.794      5.110
REMARK  4 active torsions:
REMARK  status: ('A' for Active; 'I' for Inactive)
REMARK    1  A    between atoms: N_9  and  C_18 
REMARK    2  A    between atoms: C_10  and  C_16 
REMARK    3  A    between atoms: C_16  and  C_17 
REMARK    4  A    between atoms: C_20  and  C_23 
ROOT
HETATM    1  C   UNK N   1      28.185  23.752  -4.551  0.00  0.00     0.044 A 
HETATM    2  C   UNK N   1      29.475  23.373  -4.049  0.00  0.00     0.117 A 
HETATM    3  C   UNK N   1      27.744  23.180  -5.752  0.00  0.00     0.018 A 
HETATM    4  C   UNK N   1      29.759  21.882  -5.973  0.00  0.00     0.050 A 
HETATM    5  C   UNK N   1      30.233  22.437  -4.779  0.00  0.00     0.053 A 
HETATM    6  C   UNK N   1      28.514  22.264  -6.456  0.00  0.00     0.017 A 
ENDROOT
BRANCH   1   7
HETATM    7  C   UNK N   1      27.250  24.688  -3.851  0.00  0.00     0.180 C 
HETATM    8  O   UNK N   1      26.716  24.321  -2.814  0.00  0.00    -0.291 OA
BRANCH   7   9
HETATM    9  C   UNK N   1      26.960  26.101  -4.374  0.00  0.00     0.199 C 
HETATM   10  C   UNK N   1      28.160  26.979  -4.616  0.00  0.00     0.145 C 
HETATM   11  O   UNK N   1      28.653  27.604  -3.690  0.00  0.00    -0.297 OA
HETATM   12  C   UNK N   1      28.624  27.243  -6.005  0.00  0.00     0.080 C 
HETATM   13  C   UNK N   1      27.451  27.822  -6.769  0.00  0.00     0.015 C 
HETATM   14  C   UNK N   1      26.299  26.821  -6.851  0.00  0.00     0.080 C 
HETATM   15  C   UNK N   1      25.979  26.136  -5.541  0.00  0.00     0.145 C 
HETATM   16  O   UNK N   1      24.900  25.577  -5.429  0.00  0.00    -0.297 OA
ENDBRANCH   7   9
ENDBRANCH   1   7
BRANCH   2  17
HETATM   17  N   UNK N   1      30.081  23.956  -2.886  0.00  0.00    -0.115 N 
HETATM   18  O   UNK N   1      30.174  23.244  -1.781  0.00  0.00    -0.532 OA
HETATM   19  O   UNK N   1      30.648  25.001  -2.942  0.00  0.00    -0.532 OA
ENDBRANCH   2  17
BRANCH   4  20
HETATM   20  C   UNK N   1      30.587  20.909  -6.760  0.00  0.00     0.417 C 
HETATM   21  F   UNK N   1      29.766  19.912  -7.257  0.00  0.00    -0.166 F 
HETATM   22  F   UNK N   1      31.542  20.339  -5.938  0.00  0.00    -0.166 F 
HETATM   23  F   UNK N   1      31.223  21.532  -7.819  0.00  0.00    -0.166 F 
ENDBRANCH   4  20
TORSDOF 4
ENDMDL
MODEL 9
REMARK VINA RESULT:      -6.3     13.483     15.673
REMARK  4 active torsions:
REMARK  status: ('A' for Active; 'I' for Inactive)
REMARK    1  A    between atoms: N_9  and  C_18 
REMARK    2  A    between atoms: C_10  and  C_16 
REMARK    3  A    between atoms: C_16  and  C_17 
REMARK    4  A    between atoms: C_20  and  C_23 
ROOT
HETATM    1  C   UNK N   1      33.476  15.727   7.442  0.00  0.00     0.044 A 
HETATM    2  C   UNK N   1      33.563  17.070   6.942  0.00  0.00     0.117 A 
HETATM    3  C   UNK N   1      33.138  14.704   6.546  0.00  0.00     0.018 A 
HETATM    4  C   UNK N   1      32.987  16.249   4.706  0.00  0.00     0.050 A 
HETATM    5  C   UNK N   1      33.318  17.295   5.574  0.00  0.00     0.053 A 
HETATM    6  C   UNK N   1      32.894  14.955   5.203  0.00  0.00     0.017 A 
ENDROOT
BRANCH   1   7
HETATM    7  C   UNK N   1      33.769  15.334   8.857  0.00  0.00     0.180 C 
HETATM    8  O   UNK N   1      32.834  15.097   9.608  0.00  0.00    -0.291 OA
BRANCH   7   9
HETATM    9  C   UNK N   1      35.201  15.193   9.389  0.00  0.00     0.199 C 
HETATM   10  C   UNK N   1      35.533  15.991  10.622  0.00  0.00     0.145 C 
HETATM   11  O   UNK N   1      35.864  17.161  10.520  0.00  0.00    -0.297 OA
HETATM   12  C   UNK N   1      35.651  15.311  11.941  0.00  0.00     0.080 C 
HETATM   13  C   UNK N   1      36.687  14.215  11.791  0.00  0.00     0.015 C 
HETATM   14  C   UNK N   1      36.238  13.169  10.772  0.00  0.00     0.080 C 
HETATM   15  C   UNK N   1      35.680  13.749   9.492  0.00  0.00     0.145 C 
HETATM   16  O   UNK N   1      35.598  13.022   8.515  0.00  0.00    -0.297 OA
ENDBRANCH   7   9
ENDBRANCH   1   7
BRANCH   2  17
HETATM   17  N   UNK N   1      33.805  18.215   7.772  0.00  0.00    -0.115 N 
HETATM   18  O   UNK N   1      34.988  18.796   7.743  0.00  0.00    -0.532 OA
HETATM   19  O   UNK N   1      32.919  18.753   8.357  0.00  0.00    -0.532 OA
ENDBRANCH   2  17
BRANCH   4  20
HETATM   20  C   UNK N   1      32.697  16.504   3.256  0.00  0.00     0.417 C 
HETATM   21  F   UNK N   1      33.812  16.175   2.505  0.00  0.00    -0.166 F 
HETATM   22  F   UNK N   1      32.405  17.842   3.068  0.00  0.00    -0.166 F 
HETATM   23  F   UNK N   1      31.626  15.745   2.818  0.00  0.00    -0.166 F 
ENDBRANCH   4  20
TORSDOF 4
ENDMDL
