MODEL 1
REMARK VINA RESULT:      -6.8      0.000      0.000
REMARK  1 active torsions:
REMARK  status: ('A' for Active; 'I' for Inactive)
REMARK    1  A    between atoms: N_4  and  C_11 
ROOT
HETATM    1 Cl   UNK N   1      29.045  18.409   9.798  0.00  0.00    -0.084 Cl
HETATM    2  O   UNK N   1      34.914  16.428   5.771  0.00  0.00    -0.272 OA
HETATM    3  O   UNK N   1      32.523  16.452   2.729  0.00  0.00    -0.273 OA
HETATM    4  N   UNK N   1      32.964  16.713   6.890  0.00  0.00    -0.280 N 
HETATM    5  N   UNK N   1      31.047  16.670   4.401  0.00  0.00    -0.320 N 
HETATM    6  C   UNK N   1      31.565  17.150   6.875  0.00  0.00     0.071 A 
HETATM    7  C   UNK N   1      30.682  17.119   5.721  0.00  0.00     0.064 A 
HETATM    8  C   UNK N   1      33.326  17.583   4.580  0.00  0.00     0.206 C 
HETATM    9  C   UNK N   1      33.768  16.853   5.780  0.00  0.00     0.237 C 
HETATM   10  C   UNK N   1      32.282  16.839   3.865  0.00  0.00     0.232 C 
HETATM   11  C   UNK N   1      31.001  17.569   8.101  0.00  0.00     0.056 A 
HETATM   12  C   UNK N   1      29.329  17.478   5.908  0.00  0.00     0.034 A 
HETATM   13  C   UNK N   1      30.009  16.119   3.549  0.00  0.00     0.159 C 
HETATM   14  C   UNK N   1      29.669  17.932   8.234  0.00  0.00     0.036 A 
HETATM   15  C   UNK N   1      28.830  17.883   7.138  0.00  0.00     0.026 A 
ENDROOT
BRANCH   4  16
HETATM   16  C   UNK N   1      33.543  16.204   8.136  0.00  0.00     0.042 A 
HETATM   17  C   UNK N   1      33.345  14.866   8.547  0.00  0.00     0.030 A 
HETATM   18  C   UNK N   1      33.936  14.365   9.709  0.00  0.00     0.002 A 
HETATM   19  C   UNK N   1      34.740  15.188  10.494  0.00  0.00     0.000 A 
HETATM   20  C   UNK N   1      34.945  16.515  10.121  0.00  0.00     0.002 A 
HETATM   21  C   UNK N   1      34.353  17.016   8.958  0.00  0.00     0.030 A 
ENDBRANCH   4  16
TORSDOF 1
ENDMDL
MODEL 2
REMARK VINA RESULT:      -6.7      3.231      4.408
REMARK  1 active torsions:
REMARK  status: ('A' for Active; 'I' for Inactive)
REMARK    1  A    between atoms: N_4  and  C_11 
ROOT
HETATM    1 Cl   UNK N   1      31.282  14.199   3.820  0.00  0.00    -0.084 Cl
HETATM    2  O   UNK N   1      30.001  18.626   9.594  0.00  0.00    -0.272 OA
HETATM    3  O   UNK N   1      27.305  20.310   7.387  0.00  0.00    -0.273 OA
HETATM    4  N   UNK N   1      30.479  17.582   7.640  0.00  0.00    -0.280 N 
HETATM    5  N   UNK N   1      28.316  19.013   5.866  0.00  0.00    -0.320 N 
HETATM    6  C   UNK N   1      30.038  17.154   6.310  0.00  0.00     0.071 A 
HETATM    7  C   UNK N   1      29.042  17.826   5.492  0.00  0.00     0.064 A 
HETATM    8  C   UNK N   1      28.176  18.339   8.229  0.00  0.00     0.206 C 
HETATM    9  C   UNK N   1      29.615  18.208   8.512  0.00  0.00     0.237 C 
HETATM   10  C   UNK N   1      27.938  19.293   7.138  0.00  0.00     0.232 C 
HETATM   11  C   UNK N   1      30.684  16.034   5.741  0.00  0.00     0.056 A 
HETATM   12  C   UNK N   1      28.813  17.336   4.187  0.00  0.00     0.034 A 
HETATM   13  C   UNK N   1      27.855  19.899   4.813  0.00  0.00     0.159 C 
HETATM   14  C   UNK N   1      30.412  15.576   4.459  0.00  0.00     0.036 A 
HETATM   15  C   UNK N   1      29.478  16.229   3.679  0.00  0.00     0.026 A 
ENDROOT
BRANCH   4  16
HETATM   16  C   UNK N   1      31.838  17.259   8.085  0.00  0.00     0.042 A 
HETATM   17  C   UNK N   1      32.908  18.162   7.897  0.00  0.00     0.030 A 
HETATM   18  C   UNK N   1      34.194  17.877   8.363  0.00  0.00     0.002 A 
HETATM   19  C   UNK N   1      34.444  16.679   9.028  0.00  0.00     0.000 A 
HETATM   20  C   UNK N   1      33.411  15.762   9.218  0.00  0.00     0.002 A 
HETATM   21  C   UNK N   1      32.125  16.049   8.751  0.00  0.00     0.030 A 
ENDBRANCH   4  16
TORSDOF 1
ENDMDL
MODEL 3
REMARK VINA RESULT:      -6.6     11.893     13.796
REMARK  1 active torsions:
REMARK  status: ('A' for Active; 'I' for Inactive)
REMARK    1  A    between atoms: N_4  and  C_11 
ROOT
HETATM    1 Cl   UNK N   1      30.073  19.024  -7.913  0.00  0.00    -0.084 Cl
HETATM    2  O   UNK N   1      30.812  23.635  -2.188  0.00  0.00    -0.272 OA
HETATM    3  O   UNK N   1      27.729  25.494  -3.606  0.00  0.00    -0.273 OA
HETATM    4  N   UNK N   1      30.638  22.524  -4.156  0.00  0.00    -0.280 N 
HETATM    5  N   UNK N   1      28.168  24.095  -5.300  0.00  0.00    -0.320 N 
HETATM    6  C   UNK N   1      29.806  22.110  -5.289  0.00  0.00     0.071 A 
HETATM    7  C   UNK N   1      28.670  22.847  -5.818  0.00  0.00     0.064 A 
HETATM    8  C   UNK N   1      28.658  23.473  -2.969  0.00  0.00     0.206 C 
HETATM    9  C   UNK N   1      30.105  23.232  -3.099  0.00  0.00     0.237 C 
HETATM   10  C   UNK N   1      28.190  24.425  -3.985  0.00  0.00     0.232 C 
HETATM   11  C   UNK N   1      30.180  20.933  -5.974  0.00  0.00     0.056 A 
HETATM   12  C   UNK N   1      28.044  22.356  -6.985  0.00  0.00     0.034 A 
HETATM   13  C   UNK N   1      27.492  24.997  -6.213  0.00  0.00     0.159 C 
HETATM   14  C   UNK N   1      29.522  20.477  -7.107  0.00  0.00     0.036 A 
HETATM   15  C   UNK N   1      28.455  21.191  -7.617  0.00  0.00     0.026 A 
ENDROOT
BRANCH   4  16
HETATM   16  C   UNK N   1      32.039  22.100  -4.101  0.00  0.00     0.042 A 
HETATM   17  C   UNK N   1      32.445  20.999  -3.313  0.00  0.00     0.030 A 
HETATM   18  C   UNK N   1      33.772  20.564  -3.297  0.00  0.00     0.002 A 
HETATM   19  C   UNK N   1      34.731  21.219  -4.066  0.00  0.00     0.000 A 
HETATM   20  C   UNK N   1      34.364  22.316  -4.844  0.00  0.00     0.002 A 
HETATM   21  C   UNK N   1      33.035  22.751  -4.859  0.00  0.00     0.030 A 
ENDBRANCH   4  16
TORSDOF 1
ENDMDL
MODEL 4
REMARK VINA RESULT:      -6.6      2.216      5.764
REMARK  1 active torsions:
REMARK  status: ('A' for Active; 'I' for Inactive)
REMARK    1  A    between atoms: N_4  and  C_11 
ROOT
HETATM    1 Cl   UNK N   1      28.068  17.891   9.454  0.00  0.00    -0.084 Cl
HETATM    2  O   UNK N   1      29.629  16.446   2.379  0.00  0.00    -0.272 OA
HETATM    3  O   UNK N   1      33.304  16.060   3.527  0.00  0.00    -0.273 OA
HETATM    4  N   UNK N   1      29.384  17.178   4.510  0.00  0.00    -0.280 N 
HETATM    5  N   UNK N   1      32.388  16.907   5.389  0.00  0.00    -0.320 N 
HETATM    6  C   UNK N   1      29.882  17.207   5.887  0.00  0.00     0.071 A 
HETATM    7  C   UNK N   1      31.275  17.089   6.286  0.00  0.00     0.064 A 
HETATM    8  C   UNK N   1      31.091  15.477   3.862  0.00  0.00     0.206 C 
HETATM    9  C   UNK N   1      30.004  16.417   3.541  0.00  0.00     0.237 C 
HETATM   10  C   UNK N   1      32.315  16.195   4.236  0.00  0.00     0.232 C 
HETATM   11  C   UNK N   1      28.941  17.442   6.914  0.00  0.00     0.056 A 
HETATM   12  C   UNK N   1      31.591  17.245   7.653  0.00  0.00     0.034 A 
HETATM   13  C   UNK N   1      33.690  17.403   5.796  0.00  0.00     0.159 C 
HETATM   14  C   UNK N   1      29.296  17.569   8.249  0.00  0.00     0.036 A 
HETATM   15  C   UNK N   1      30.623  17.475   8.620  0.00  0.00     0.026 A 
ENDROOT
BRANCH   4  16
HETATM   16  C   UNK N   1      28.152  17.898   4.176  0.00  0.00     0.042 A 
HETATM   17  C   UNK N   1      26.944  17.211   3.919  0.00  0.00     0.030 A 
HETATM   18  C   UNK N   1      25.758  17.897   3.649  0.00  0.00     0.002 A 
HETATM   19  C   UNK N   1      25.748  19.290   3.624  0.00  0.00     0.000 A 
HETATM   20  C   UNK N   1      26.926  19.995   3.861  0.00  0.00     0.002 A 
HETATM   21  C   UNK N   1      28.112  19.308   4.132  0.00  0.00     0.030 A 
ENDBRANCH   4  16
TORSDOF 1
ENDMDL
MODEL 5
REMARK VINA RESULT:      -6.4     16.565     18.174
REMARK  1 active torsions:
REMARK  status: ('A' for Active; 'I' for Inactive)
REMARK    1  A    between atoms: N_4  and  C_11 
ROOT
HETATM    1 Cl   UNK N   1      29.379  27.880 -10.292  0.00  0.00    -0.084 Cl
HETATM    2  O   UNK N   1      24.843  24.808  -5.336  0.00  0.00    -0.272 OA
HETATM    3  O   UNK N   1      25.384  28.008  -3.228  0.00  0.00    -0.273 OA
HETATM    4  N   UNK N   1      26.488  25.746  -6.581  0.00  0.00    -0.280 N 
HETATM    5  N   UNK N   1      26.939  28.304  -4.813  0.00  0.00    -0.320 N 
HETATM    6  C   UNK N   1      27.222  26.950  -6.982  0.00  0.00     0.071 A 
HETATM    7  C   UNK N   1      27.433  28.126  -6.155  0.00  0.00     0.064 A 
HETATM    8  C   UNK N   1      24.843  27.105  -5.287  0.00  0.00     0.206 C 
HETATM    9  C   UNK N   1      25.412  25.818  -5.722  0.00  0.00     0.237 C 
HETATM   10  C   UNK N   1      25.757  27.804  -4.375  0.00  0.00     0.232 C 
HETATM   11  C   UNK N   1      27.839  26.942  -8.252  0.00  0.00     0.056 A 
HETATM   12  C   UNK N   1      28.257  29.156  -6.661  0.00  0.00     0.034 A 
HETATM   13  C   UNK N   1      27.683  29.168  -3.914  0.00  0.00     0.159 C 
HETATM   14  C   UNK N   1      28.625  27.987  -8.716  0.00  0.00     0.036 A 
HETATM   15  C   UNK N   1      28.838  29.094  -7.919  0.00  0.00     0.026 A 
ENDROOT
BRANCH   4  16
HETATM   16  C   UNK N   1      26.846  24.455  -7.175  0.00  0.00     0.042 A 
HETATM   17  C   UNK N   1      27.884  23.661  -6.637  0.00  0.00     0.030 A 
HETATM   18  C   UNK N   1      28.195  22.408  -7.172  0.00  0.00     0.002 A 
HETATM   19  C   UNK N   1      27.479  21.917  -8.261  0.00  0.00     0.000 A 
HETATM   20  C   UNK N   1      26.458  22.683  -8.821  0.00  0.00     0.002 A 
HETATM   21  C   UNK N   1      26.147  23.936  -8.285  0.00  0.00     0.030 A 
ENDBRANCH   4  16
TORSDOF 1
ENDMDL
MODEL 6
REMARK VINA RESULT:      -6.4     12.982     15.312
REMARK  1 active torsions:
REMARK  status: ('A' for Active; 'I' for Inactive)
REMARK    1  A    between atoms: N_4  and  C_11 
ROOT
HETATM    1 Cl   UNK N   1      32.191  26.631  -7.161  0.00  0.00    -0.084 Cl
HETATM    2  O   UNK N   1      26.592  23.977  -3.139  0.00  0.00    -0.272 OA
HETATM    3  O   UNK N   1      25.520  27.663  -2.653  0.00  0.00    -0.273 OA
HETATM    4  N   UNK N   1      28.409  24.969  -4.060  0.00  0.00    -0.280 N 
HETATM    5  N   UNK N   1      27.532  27.951  -3.596  0.00  0.00    -0.320 N 
HETATM    6  C   UNK N   1      29.002  26.148  -4.696  0.00  0.00     0.071 A 
HETATM    7  C   UNK N   1      28.597  27.525  -4.470  0.00  0.00     0.064 A 
HETATM    8  C   UNK N   1      26.136  25.996  -4.134  0.00  0.00     0.206 C 
HETATM    9  C   UNK N   1      27.071  24.933  -3.730  0.00  0.00     0.237 C 
HETATM   10  C   UNK N   1      26.397  27.236  -3.393  0.00  0.00     0.232 C 
HETATM   11  C   UNK N   1      30.111  25.939  -5.546  0.00  0.00     0.056 A 
HETATM   12  C   UNK N   1      29.348  28.550  -5.086  0.00  0.00     0.034 A 
HETATM   13  C   UNK N   1      27.619  29.269  -2.996  0.00  0.00     0.159 C 
HETATM   14  C   UNK N   1      30.809  26.978  -6.146  0.00  0.00     0.036 A 
HETATM   15  C   UNK N   1      30.431  28.286  -5.913  0.00  0.00     0.026 A 
ENDROOT
BRANCH   4  16
HETATM   16  C   UNK N   1      29.231  23.774  -3.854  0.00  0.00     0.042 A 
HETATM   17  C   UNK N   1      29.304  22.753  -4.829  0.00  0.00     0.030 A 
HETATM   18  C   UNK N   1      30.124  21.636  -4.656  0.00  0.00     0.002 A 
HETATM   19  C   UNK N   1      30.893  21.507  -3.501  0.00  0.00     0.000 A 
HETATM   20  C   UNK N   1      30.833  22.491  -2.516  0.00  0.00     0.002 A 
HETATM   21  C   UNK N   1      30.012  23.609  -2.690  0.00  0.00     0.030 A 
ENDBRANCH   4  16
TORSDOF 1
ENDMDL
MODEL 7
REMARK VINA RESULT:      -6.4     12.556     15.397
REMARK  1 active torsions:
REMARK  status: ('A' for Active; 'I' for Inactive)
REMARK    1  A    between atoms: N_4  and  C_11 
ROOT
HETATM    1 Cl   UNK N   1      31.301  29.162  -4.867  0.00  0.00    -0.084 Cl
HETATM    2  O   UNK N   1      26.881  23.602  -2.836  0.00  0.00    -0.272 OA
HETATM    3  O   UNK N   1      29.973  21.315  -3.269  0.00  0.00    -0.273 OA
HETATM    4  N   UNK N   1      28.279  25.117  -3.778  0.00  0.00    -0.280 N 
HETATM    5  N   UNK N   1      30.750  23.215  -4.167  0.00  0.00    -0.320 N 
HETATM    6  C   UNK N   1      29.651  25.540  -4.072  0.00  0.00     0.071 A 
HETATM    7  C   UNK N   1      30.787  24.653  -4.259  0.00  0.00     0.064 A 
HETATM    8  C   UNK N   1      29.097  23.246  -2.344  0.00  0.00     0.206 C 
HETATM    9  C   UNK N   1      28.024  23.991  -3.024  0.00  0.00     0.237 C 
HETATM   10  C   UNK N   1      29.942  22.538  -3.313  0.00  0.00     0.232 C 
HETATM   11  C   UNK N   1      29.879  26.921  -4.263  0.00  0.00     0.056 A 
HETATM   12  C   UNK N   1      32.021  25.224  -4.643  0.00  0.00     0.034 A 
HETATM   13  C   UNK N   1      31.713  22.450  -4.938  0.00  0.00     0.159 C 
HETATM   14  C   UNK N   1      31.115  27.440  -4.621  0.00  0.00     0.036 A 
HETATM   15  C   UNK N   1      32.187  26.591  -4.816  0.00  0.00     0.026 A 
ENDROOT
BRANCH   4  16
HETATM   16  C   UNK N   1      27.160  25.956  -4.215  0.00  0.00     0.042 A 
HETATM   17  C   UNK N   1      26.616  26.955  -3.377  0.00  0.00     0.030 A 
HETATM   18  C   UNK N   1      25.581  27.787  -3.810  0.00  0.00     0.002 A 
HETATM   19  C   UNK N   1      25.059  27.641  -5.093  0.00  0.00     0.000 A 
HETATM   20  C   UNK N   1      25.566  26.656  -5.939  0.00  0.00     0.002 A 
HETATM   21  C   UNK N   1      26.602  25.824  -5.505  0.00  0.00     0.030 A 
ENDBRANCH   4  16
TORSDOF 1
ENDMDL
MODEL 8
REMARK VINA RESULT:      -6.3     10.185     11.882
REMARK  1 active torsions:
REMARK  status: ('A' for Active; 'I' for Inactive)
REMARK    1  A    between atoms: N_4  and  C_11 
ROOT
HETATM    1 Cl   UNK N   1      36.684   9.873  20.186  0.00  0.00    -0.084 Cl
HETATM    2  O   UNK N   1      34.343  12.869  13.852  0.00  0.00    -0.272 OA
HETATM    3  O   UNK N   1      34.716   9.331  12.330  0.00  0.00    -0.273 OA
HETATM    4  N   UNK N   1      35.371  11.866  15.605  0.00  0.00    -0.280 N 
HETATM    5  N   UNK N   1      35.710   9.021  14.314  0.00  0.00    -0.320 N 
HETATM    6  C   UNK N   1      35.703  10.632  16.321  0.00  0.00     0.071 A 
HETATM    7  C   UNK N   1      35.867   9.321  15.715  0.00  0.00     0.064 A 
HETATM    8  C   UNK N   1      33.866  10.630  14.045  0.00  0.00     0.206 C 
HETATM    9  C   UNK N   1      34.564  11.849  14.488  0.00  0.00     0.237 C 
HETATM   10  C   UNK N   1      34.815   9.646  13.508  0.00  0.00     0.232 C 
HETATM   11  C   UNK N   1      35.959  10.732  17.707  0.00  0.00     0.056 A 
HETATM   12  C   UNK N   1      36.293   8.255  16.539  0.00  0.00     0.034 A 
HETATM   13  C   UNK N   1      36.459   7.910  13.759  0.00  0.00     0.159 C 
HETATM   14  C   UNK N   1      36.358   9.653  18.481  0.00  0.00     0.036 A 
HETATM   15  C   UNK N   1      36.529   8.413  17.897  0.00  0.00     0.026 A 
ENDROOT
BRANCH   4  16
HETATM   16  C   UNK N   1      35.830  13.152  16.139  0.00  0.00     0.042 A 
HETATM   17  C   UNK N   1      35.316  13.673  17.348  0.00  0.00     0.030 A 
HETATM   18  C   UNK N   1      35.787  14.874  17.883  0.00  0.00     0.002 A 
HETATM   19  C   UNK N   1      36.783  15.589  17.221  0.00  0.00     0.000 A 
HETATM   20  C   UNK N   1      37.301  15.107  16.020  0.00  0.00     0.002 A 
HETATM   21  C   UNK N   1      36.829  13.905  15.486  0.00  0.00     0.030 A 
ENDBRANCH   4  16
TORSDOF 1
ENDMDL
MODEL 9
REMARK VINA RESULT:      -6.1      9.749     11.702
REMARK  1 active torsions:
REMARK  status: ('A' for Active; 'I' for Inactive)
REMARK    1  A    between atoms: N_4  and  C_11 
ROOT
HETATM    1 Cl   UNK N   1      24.478  14.565   1.169  0.00  0.00    -0.084 Cl
HETATM    2  O   UNK N   1      21.626  18.539   6.705  0.00  0.00    -0.272 OA
HETATM    3  O   UNK N   1      19.011  15.709   7.059  0.00  0.00    -0.273 OA
HETATM    4  N   UNK N   1      22.166  17.361   4.846  0.00  0.00    -0.280 N 
HETATM    5  N   UNK N   1      19.991  15.111   5.135  0.00  0.00    -0.320 N 
HETATM    6  C   UNK N   1      22.147  16.086   4.123  0.00  0.00     0.071 A 
HETATM    7  C   UNK N   1      21.132  15.054   4.257  0.00  0.00     0.064 A 
HETATM    8  C   UNK N   1      21.246  16.282   6.900  0.00  0.00     0.206 C 
HETATM    9  C   UNK N   1      21.671  17.463   6.129  0.00  0.00     0.237 C 
HETATM   10  C   UNK N   1      20.009  15.712   6.351  0.00  0.00     0.232 C 
HETATM   11  C   UNK N   1      23.158  15.869   3.161  0.00  0.00     0.056 A 
HETATM   12  C   UNK N   1      21.210  13.930   3.404  0.00  0.00     0.034 A 
HETATM   13  C   UNK N   1      18.794  14.382   4.758  0.00  0.00     0.159 C 
HETATM   14  C   UNK N   1      23.206  14.739   2.358  0.00  0.00     0.036 A 
HETATM   15  C   UNK N   1      22.229  13.769   2.476  0.00  0.00     0.026 A 
ENDROOT
BRANCH   4  16
HETATM   16  C   UNK N   1      22.804  18.527   4.229  0.00  0.00     0.042 A 
HETATM   17  C   UNK N   1      24.174  18.809   4.431  0.00  0.00     0.030 A 
HETATM   18  C   UNK N   1      24.796  19.892   3.806  0.00  0.00     0.002 A 
HETATM   19  C   UNK N   1      24.064  20.725   2.963  0.00  0.00     0.000 A 
HETATM   20  C   UNK N   1      22.708  20.479   2.753  0.00  0.00     0.002 A 
HETATM   21  C   UNK N   1      22.087  19.395   3.379  0.00  0.00     0.030 A 
ENDBRANCH   4  16
TORSDOF 1
ENDMDL
