MODEL 1
REMARK VINA RESULT:      -7.8      0.000      0.000
REMARK  6 active torsions:
REMARK  status: ('A' for Active; 'I' for Inactive)
REMARK    1  A    between atoms: N_2  and  C_8 
REMARK    2  A    between atoms: N_3  and  C_9 
REMARK    3  A    between atoms: C_8  and  C_10 
REMARK    4  A    between atoms: C_8  and  C_11 
REMARK    5  A    between atoms: C_9  and  C_12 
REMARK    6  A    between atoms: C_13  and  C_14 
ROOT
HETATM    1  N   UNK N   1      35.155  14.478  11.660  0.00  0.00     0.105 NA
HETATM    2  N   UNK N   1      34.724  16.302   9.564  0.00  0.00     0.096 N 
HETATM    3  C   UNK N   1      36.103  15.564  11.390  0.00  0.00     0.304 C 
HETATM    4  C   UNK N   1      34.378  14.088  10.479  0.00  0.00     0.304 C 
HETATM    5  C   UNK N   1      35.355  16.754  10.794  0.00  0.00     0.303 C 
HETATM    6  C   UNK N   1      33.699  15.315   9.880  0.00  0.00     0.303 C 
ENDROOT
BRANCH   1   7
HETATM    7  C   UNK N   1      35.849  13.330  12.266  0.00  0.00     0.289 C 
BRANCH   7   8
HETATM    8  C   UNK N   1      35.723  13.259  13.772  0.00  0.00    -0.021 A 
HETATM    9  C   UNK N   1      36.582  13.974  14.623  0.00  0.00     0.011 A 
HETATM   10  C   UNK N   1      36.434  13.892  16.009  0.00  0.00     0.024 A 
HETATM   11  C   UNK N   1      35.428  13.093  16.560  0.00  0.00     0.034 A 
HETATM   12 Cl   UNK N   1      35.242  12.987  18.296  0.00  0.00    -0.084 Cl
HETATM   13  C   UNK N   1      34.569  12.379  15.725  0.00  0.00     0.024 A 
HETATM   14  C   UNK N   1      34.717  12.463  14.340  0.00  0.00     0.011 A 
ENDBRANCH   7   8
BRANCH   7  15
HETATM   15  C   UNK N   1      36.813  12.484  11.428  0.00  0.00    -0.021 A 
HETATM   16  C   UNK N   1      37.961  13.052  10.854  0.00  0.00     0.010 A 
HETATM   17  C   UNK N   1      38.825  12.284  10.066  0.00  0.00     0.001 A 
HETATM   18  C   UNK N   1      38.550  10.935   9.840  0.00  0.00     0.000 A 
HETATM   19  C   UNK N   1      37.412  10.354  10.405  0.00  0.00     0.001 A 
HETATM   20  C   UNK N   1      36.551  11.123  11.192  0.00  0.00     0.010 A 
ENDBRANCH   7  15
ENDBRANCH   1   7
BRANCH   2  21
HETATM   21  C   UNK N   1      34.119  17.418   8.852  0.00  0.00     0.311 C 
BRANCH  21  22
HETATM   22  C   UNK N   1      33.719  16.967   7.480  0.00  0.00    -0.030 A 
HETATM   23  C   UNK N   1      34.627  16.273   6.676  0.00  0.00     0.009 A 
HETATM   24  C   UNK N   1      34.262  15.889   5.380  0.00  0.00     0.008 A 
HETATM   25  C   UNK N   1      32.983  16.196   4.876  0.00  0.00    -0.051 A 
HETATM   26  C   UNK N   1      32.077  16.881   5.697  0.00  0.00     0.008 A 
HETATM   27  C   UNK N   1      32.442  17.263   6.984  0.00  0.00     0.009 A 
BRANCH  25  28
HETATM   28  C   UNK N   1      32.563  15.814   3.472  0.00  0.00    -0.024 C 
HETATM   29  C   UNK N   1      31.345  14.907   3.528  0.00  0.00     0.019 C 
HETATM   30  C   UNK N   1      33.657  15.086   2.706  0.00  0.00     0.019 C 
HETATM   31  C   UNK N   1      32.200  17.065   2.690  0.00  0.00     0.019 C 
ENDBRANCH  25  28
ENDBRANCH  21  22
ENDBRANCH   2  21
TORSDOF 6
ENDMDL
MODEL 2
REMARK VINA RESULT:      -7.5      7.119     11.769
REMARK  6 active torsions:
REMARK  status: ('A' for Active; 'I' for Inactive)
REMARK    1  A    between atoms: N_2  and  C_8 
REMARK    2  A    between atoms: N_3  and  C_9 
REMARK    3  A    between atoms: C_8  and  C_10 
REMARK    4  A    between atoms: C_8  and  C_11 
REMARK    5  A    between atoms: C_9  and  C_12 
REMARK    6  A    between atoms: C_13  and  C_14 
ROOT
HETATM    1  N   UNK N   1      28.632  16.302   4.433  0.00  0.00     0.105 NA
HETATM    2  N   UNK N   1      26.675  14.912   2.968  0.00  0.00     0.096 N 
HETATM    3  C   UNK N   1      27.367  15.893   5.052  0.00  0.00     0.304 C 
HETATM    4  C   UNK N   1      28.534  16.462   2.978  0.00  0.00     0.304 C 
HETATM    5  C   UNK N   1      26.863  14.618   4.380  0.00  0.00     0.303 C 
HETATM    6  C   UNK N   1      27.968  15.191   2.355  0.00  0.00     0.303 C 
ENDROOT
BRANCH   1   7
HETATM    7  C   UNK N   1      29.156  17.512   5.086  0.00  0.00     0.289 C 
BRANCH   7   8
HETATM    8  C   UNK N   1      30.513  17.327   5.730  0.00  0.00    -0.021 A 
HETATM    9  C   UNK N   1      30.651  16.987   7.085  0.00  0.00     0.011 A 
HETATM   10  C   UNK N   1      31.920  16.817   7.646  0.00  0.00     0.024 A 
HETATM   11  C   UNK N   1      33.062  16.986   6.858  0.00  0.00     0.034 A 
HETATM   12 Cl   UNK N   1      34.650  16.775   7.559  0.00  0.00    -0.084 Cl
HETATM   13  C   UNK N   1      32.936  17.323   5.510  0.00  0.00     0.024 A 
HETATM   14  C   UNK N   1      31.669  17.492   4.952  0.00  0.00     0.011 A 
ENDBRANCH   7   8
BRANCH   7  15
HETATM   15  C   UNK N   1      28.247  18.727   5.297  0.00  0.00    -0.021 A 
HETATM   16  C   UNK N   1      27.693  19.414   4.205  0.00  0.00     0.010 A 
HETATM   17  C   UNK N   1      26.886  20.540   4.400  0.00  0.00     0.001 A 
HETATM   18  C   UNK N   1      26.623  20.995   5.693  0.00  0.00     0.000 A 
HETATM   19  C   UNK N   1      27.165  20.322   6.790  0.00  0.00     0.001 A 
HETATM   20  C   UNK N   1      27.971  19.198   6.593  0.00  0.00     0.010 A 
ENDBRANCH   7  15
ENDBRANCH   1   7
BRANCH   2  21
HETATM   21  C   UNK N   1      26.046  13.792   2.285  0.00  0.00     0.311 C 
BRANCH  21  22
HETATM   22  C   UNK N   1      24.590  14.089   2.091  0.00  0.00    -0.030 A 
HETATM   23  C   UNK N   1      23.930  13.646   0.942  0.00  0.00     0.009 A 
HETATM   24  C   UNK N   1      22.579  13.959   0.747  0.00  0.00     0.008 A 
HETATM   25  C   UNK N   1      21.875  14.719   1.702  0.00  0.00    -0.051 A 
HETATM   26  C   UNK N   1      22.546  15.147   2.856  0.00  0.00     0.008 A 
HETATM   27  C   UNK N   1      23.888  14.835   3.047  0.00  0.00     0.009 A 
BRANCH  25  28
HETATM   28  C   UNK N   1      20.421  15.094   1.514  0.00  0.00    -0.024 C 
HETATM   29  C   UNK N   1      19.740  15.212   2.866  0.00  0.00     0.019 C 
HETATM   30  C   UNK N   1      19.651  14.075   0.687  0.00  0.00     0.019 C 
HETATM   31  C   UNK N   1      20.326  16.435   0.804  0.00  0.00     0.019 C 
ENDBRANCH  25  28
ENDBRANCH  21  22
ENDBRANCH   2  21
TORSDOF 6
ENDMDL
MODEL 3
REMARK VINA RESULT:      -7.4      1.373      2.140
REMARK  6 active torsions:
REMARK  status: ('A' for Active; 'I' for Inactive)
REMARK    1  A    between atoms: N_2  and  C_8 
REMARK    2  A    between atoms: N_3  and  C_9 
REMARK    3  A    between atoms: C_8  and  C_10 
REMARK    4  A    between atoms: C_8  and  C_11 
REMARK    5  A    between atoms: C_9  and  C_12 
REMARK    6  A    between atoms: C_13  and  C_14 
ROOT
HETATM    1  N   UNK N   1      36.046  13.977  11.280  0.00  0.00     0.105 NA
HETATM    2  N   UNK N   1      34.814  16.019   9.791  0.00  0.00     0.096 N 
HETATM    3  C   UNK N   1      35.636  13.762   9.889  0.00  0.00     0.304 C 
HETATM    4  C   UNK N   1      35.271  15.027  11.950  0.00  0.00     0.304 C 
HETATM    5  C   UNK N   1      35.709  15.083   9.128  0.00  0.00     0.303 C 
HETATM    6  C   UNK N   1      35.319  16.309  11.127  0.00  0.00     0.303 C 
ENDROOT
BRANCH   1   7
HETATM    7  C   UNK N   1      36.015  12.708  12.027  0.00  0.00     0.289 C 
BRANCH   7   8
HETATM    8  C   UNK N   1      35.805  12.875  13.516  0.00  0.00    -0.021 A 
HETATM    9  C   UNK N   1      36.709  13.591  14.317  0.00  0.00     0.011 A 
HETATM   10  C   UNK N   1      36.481  13.731  15.688  0.00  0.00     0.024 A 
HETATM   11  C   UNK N   1      35.350  13.156  16.273  0.00  0.00     0.034 A 
HETATM   12 Cl   UNK N   1      35.065  13.329  17.990  0.00  0.00    -0.084 Cl
HETATM   13  C   UNK N   1      34.445  12.443  15.486  0.00  0.00     0.024 A 
HETATM   14  C   UNK N   1      34.673  12.304  14.117  0.00  0.00     0.011 A 
ENDBRANCH   7   8
BRANCH   7  15
HETATM   15  C   UNK N   1      36.436  11.404  11.343  0.00  0.00    -0.021 A 
HETATM   16  C   UNK N   1      35.483  10.441  10.973  0.00  0.00     0.010 A 
HETATM   17  C   UNK N   1      35.873   9.239  10.374  0.00  0.00     0.001 A 
HETATM   18  C   UNK N   1      37.225   8.982  10.140  0.00  0.00     0.000 A 
HETATM   19  C   UNK N   1      38.185   9.929  10.502  0.00  0.00     0.001 A 
HETATM   20  C   UNK N   1      37.793  11.129  11.099  0.00  0.00     0.010 A 
ENDBRANCH   7  15
ENDBRANCH   1   7
BRANCH   2  21
HETATM   21  C   UNK N   1      34.706  17.257   9.034  0.00  0.00     0.311 C 
BRANCH  21  22
HETATM   22  C   UNK N   1      33.556  17.152   8.079  0.00  0.00    -0.030 A 
HETATM   23  C   UNK N   1      32.283  16.818   8.547  0.00  0.00     0.009 A 
HETATM   24  C   UNK N   1      31.220  16.682   7.646  0.00  0.00     0.008 A 
HETATM   25  C   UNK N   1      31.422  16.881   6.266  0.00  0.00    -0.051 A 
HETATM   26  C   UNK N   1      32.702  17.227   5.811  0.00  0.00     0.008 A 
HETATM   27  C   UNK N   1      33.756  17.361   6.707  0.00  0.00     0.009 A 
BRANCH  25  28
HETATM   28  C   UNK N   1      30.300  16.721   5.261  0.00  0.00    -0.024 C 
HETATM   29  C   UNK N   1      29.709  15.326   5.366  0.00  0.00     0.019 C 
HETATM   30  C   UNK N   1      30.760  16.931   3.826  0.00  0.00     0.019 C 
HETATM   31  C   UNK N   1      29.206  17.735   5.552  0.00  0.00     0.019 C 
ENDBRANCH  25  28
ENDBRANCH  21  22
ENDBRANCH   2  21
TORSDOF 6
ENDMDL
MODEL 4
REMARK VINA RESULT:      -7.4      3.562      9.578
REMARK  6 active torsions:
REMARK  status: ('A' for Active; 'I' for Inactive)
REMARK    1  A    between atoms: N_2  and  C_8 
REMARK    2  A    between atoms: N_3  and  C_9 
REMARK    3  A    between atoms: C_8  and  C_10 
REMARK    4  A    between atoms: C_8  and  C_11 
REMARK    5  A    between atoms: C_9  and  C_12 
REMARK    6  A    between atoms: C_13  and  C_14 
ROOT
HETATM    1  N   UNK N   1      32.854  16.491   8.890  0.00  0.00     0.105 NA
HETATM    2  N   UNK N   1      35.201  15.477  10.061  0.00  0.00     0.096 N 
HETATM    3  C   UNK N   1      32.900  15.137   9.450  0.00  0.00     0.304 C 
HETATM    4  C   UNK N   1      34.170  16.985   8.472  0.00  0.00     0.304 C 
HETATM    5  C   UNK N   1      33.904  15.097  10.599  0.00  0.00     0.303 C 
HETATM    6  C   UNK N   1      35.157  16.869   9.629  0.00  0.00     0.303 C 
ENDROOT
BRANCH   1   7
HETATM    7  C   UNK N   1      31.867  16.563   7.800  0.00  0.00     0.289 C 
BRANCH   7   8
HETATM    8  C   UNK N   1      32.413  16.162   6.448  0.00  0.00    -0.021 A 
HETATM    9  C   UNK N   1      32.766  17.114   5.478  0.00  0.00     0.011 A 
HETATM   10  C   UNK N   1      33.273  16.708   4.241  0.00  0.00     0.024 A 
HETATM   11  C   UNK N   1      33.432  15.348   3.960  0.00  0.00     0.034 A 
HETATM   12 Cl   UNK N   1      34.066  14.839   2.411  0.00  0.00    -0.084 Cl
HETATM   13  C   UNK N   1      33.085  14.394   4.917  0.00  0.00     0.024 A 
HETATM   14  C   UNK N   1      32.579  14.800   6.152  0.00  0.00     0.011 A 
ENDBRANCH   7   8
BRANCH   7  15
HETATM   15  C   UNK N   1      30.516  17.248   8.030  0.00  0.00    -0.021 A 
HETATM   16  C   UNK N   1      30.289  18.034   9.171  0.00  0.00     0.010 A 
HETATM   17  C   UNK N   1      29.045  18.635   9.392  0.00  0.00     0.001 A 
HETATM   18  C   UNK N   1      28.010  18.456   8.474  0.00  0.00     0.000 A 
HETATM   19  C   UNK N   1      28.220  17.678   7.333  0.00  0.00     0.001 A 
HETATM   20  C   UNK N   1      29.463  17.079   7.114  0.00  0.00     0.010 A 
ENDBRANCH   7  15
ENDBRANCH   1   7
BRANCH   2  21
HETATM   21  C   UNK N   1      36.246  15.313  11.060  0.00  0.00     0.311 C 
BRANCH  21  22
HETATM   22  C   UNK N   1      35.968  14.079  11.864  0.00  0.00    -0.030 A 
HETATM   23  C   UNK N   1      35.919  12.830  11.239  0.00  0.00     0.009 A 
HETATM   24  C   UNK N   1      35.621  11.685  11.988  0.00  0.00     0.008 A 
HETATM   25  C   UNK N   1      35.369  11.780  13.371  0.00  0.00    -0.051 A 
HETATM   26  C   UNK N   1      35.433  13.037  13.987  0.00  0.00     0.008 A 
HETATM   27  C   UNK N   1      35.729  14.173  13.242  0.00  0.00     0.009 A 
BRANCH  25  28
HETATM   28  C   UNK N   1      35.022  10.566  14.207  0.00  0.00    -0.024 C 
HETATM   29  C   UNK N   1      35.964  10.473  15.395  0.00  0.00     0.019 C 
HETATM   30  C   UNK N   1      35.121   9.264  13.425  0.00  0.00     0.019 C 
HETATM   31  C   UNK N   1      33.599  10.691  14.724  0.00  0.00     0.019 C 
ENDBRANCH  25  28
ENDBRANCH  21  22
ENDBRANCH   2  21
TORSDOF 6
ENDMDL
MODEL 5
REMARK VINA RESULT:      -7.3      7.327     11.495
REMARK  6 active torsions:
REMARK  status: ('A' for Active; 'I' for Inactive)
REMARK    1  A    between atoms: N_2  and  C_8 
REMARK    2  A    between atoms: N_3  and  C_9 
REMARK    3  A    between atoms: C_8  and  C_10 
REMARK    4  A    between atoms: C_8  and  C_11 
REMARK    5  A    between atoms: C_9  and  C_12 
REMARK    6  A    between atoms: C_13  and  C_14 
ROOT
HETATM    1  N   UNK N   1      28.968  16.134   4.611  0.00  0.00     0.105 NA
HETATM    2  N   UNK N   1      26.753  15.019   3.285  0.00  0.00     0.096 N 
HETATM    3  C   UNK N   1      27.836  15.575   5.358  0.00  0.00     0.304 C 
HETATM    4  C   UNK N   1      28.600  16.583   3.264  0.00  0.00     0.304 C 
HETATM    5  C   UNK N   1      27.198  14.450   4.548  0.00  0.00     0.303 C 
HETATM    6  C   UNK N   1      27.911  15.450   2.512  0.00  0.00     0.303 C 
ENDROOT
BRANCH   1   7
HETATM    7  C   UNK N   1      29.621  17.200   5.388  0.00  0.00     0.289 C 
BRANCH   7   8
HETATM    8  C   UNK N   1      28.722  18.379   5.692  0.00  0.00    -0.021 A 
HETATM    9  C   UNK N   1      28.273  19.249   4.685  0.00  0.00     0.011 A 
HETATM   10  C   UNK N   1      27.438  20.324   5.000  0.00  0.00     0.024 A 
HETATM   11  C   UNK N   1      27.046  20.542   6.323  0.00  0.00     0.034 A 
HETATM   12 Cl   UNK N   1      26.003  21.889   6.719  0.00  0.00    -0.084 Cl
HETATM   13  C   UNK N   1      27.485  19.684   7.332  0.00  0.00     0.024 A 
HETATM   14  C   UNK N   1      28.318  18.610   7.016  0.00  0.00     0.011 A 
ENDBRANCH   7   8
BRANCH   7  15
HETATM   15  C   UNK N   1      31.138  17.180   5.598  0.00  0.00    -0.021 A 
HETATM   16  C   UNK N   1      31.689  17.005   6.877  0.00  0.00     0.010 A 
HETATM   17  C   UNK N   1      33.074  17.015   7.069  0.00  0.00     0.001 A 
HETATM   18  C   UNK N   1      33.929  17.203   5.982  0.00  0.00     0.000 A 
HETATM   19  C   UNK N   1      33.397  17.378   4.702  0.00  0.00     0.001 A 
HETATM   20  C   UNK N   1      32.013  17.367   4.513  0.00  0.00     0.010 A 
ENDBRANCH   7  15
ENDBRANCH   1   7
BRANCH   2  21
HETATM   21  C   UNK N   1      25.992  14.045   2.517  0.00  0.00     0.311 C 
BRANCH  21  22
HETATM   22  C   UNK N   1      24.578  14.523   2.378  0.00  0.00    -0.030 A 
HETATM   23  C   UNK N   1      24.008  15.326   3.369  0.00  0.00     0.009 A 
HETATM   24  C   UNK N   1      22.675  15.737   3.253  0.00  0.00     0.008 A 
HETATM   25  C   UNK N   1      21.899  15.348   2.144  0.00  0.00    -0.051 A 
HETATM   26  C   UNK N   1      22.487  14.552   1.151  0.00  0.00     0.008 A 
HETATM   27  C   UNK N   1      23.811  14.145   1.268  0.00  0.00     0.009 A 
BRANCH  25  28
HETATM   28  C   UNK N   1      20.448  15.757   1.997  0.00  0.00    -0.024 C 
HETATM   29  C   UNK N   1      19.564  14.521   1.982  0.00  0.00     0.019 C 
HETATM   30  C   UNK N   1      20.182  16.542   0.721  0.00  0.00     0.019 C 
HETATM   31  C   UNK N   1      20.042  16.629   3.173  0.00  0.00     0.019 C 
ENDBRANCH  25  28
ENDBRANCH  21  22
ENDBRANCH   2  21
TORSDOF 6
ENDMDL
MODEL 6
REMARK VINA RESULT:      -7.2      5.316     11.194
REMARK  6 active torsions:
REMARK  status: ('A' for Active; 'I' for Inactive)
REMARK    1  A    between atoms: N_2  and  C_8 
REMARK    2  A    between atoms: N_3  and  C_9 
REMARK    3  A    between atoms: C_8  and  C_10 
REMARK    4  A    between atoms: C_8  and  C_11 
REMARK    5  A    between atoms: C_9  and  C_12 
REMARK    6  A    between atoms: C_13  and  C_14 
ROOT
HETATM    1  N   UNK N   1      29.783  16.743   4.259  0.00  0.00     0.105 NA
HETATM    2  N   UNK N   1      32.472  16.594   5.069  0.00  0.00     0.096 N 
HETATM    3  C   UNK N   1      30.685  17.891   4.117  0.00  0.00     0.304 C 
HETATM    4  C   UNK N   1      30.192  15.820   5.323  0.00  0.00     0.304 C 
HETATM    5  C   UNK N   1      32.112  17.392   3.908  0.00  0.00     0.303 C 
HETATM    6  C   UNK N   1      31.641  15.396   5.110  0.00  0.00     0.303 C 
ENDROOT
BRANCH   1   7
HETATM    7  C   UNK N   1      28.394  17.199   4.430  0.00  0.00     0.289 C 
BRANCH   7   8
HETATM    8  C   UNK N   1      27.394  16.464   3.565  0.00  0.00    -0.021 A 
HETATM    9  C   UNK N   1      27.797  15.611   2.525  0.00  0.00     0.011 A 
HETATM   10  C   UNK N   1      26.847  14.943   1.750  0.00  0.00     0.024 A 
HETATM   11  C   UNK N   1      25.485  15.121   2.003  0.00  0.00     0.034 A 
HETATM   12 Cl   UNK N   1      24.293  14.286   1.032  0.00  0.00    -0.084 Cl
HETATM   13  C   UNK N   1      25.072  15.966   3.034  0.00  0.00     0.024 A 
HETATM   14  C   UNK N   1      26.022  16.633   3.808  0.00  0.00     0.011 A 
ENDBRANCH   7   8
BRANCH   7  15
HETATM   15  C   UNK N   1      28.097  18.480   5.215  0.00  0.00    -0.021 A 
HETATM   16  C   UNK N   1      28.117  18.489   6.619  0.00  0.00     0.010 A 
HETATM   17  C   UNK N   1      27.818  19.653   7.334  0.00  0.00     0.001 A 
HETATM   18  C   UNK N   1      27.490  20.827   6.652  0.00  0.00     0.000 A 
HETATM   19  C   UNK N   1      27.466  20.835   5.256  0.00  0.00     0.001 A 
HETATM   20  C   UNK N   1      27.766  19.671   4.544  0.00  0.00     0.010 A 
ENDBRANCH   7  15
ENDBRANCH   1   7
BRANCH   2  21
HETATM   21  C   UNK N   1      33.874  16.209   5.020  0.00  0.00     0.311 C 
BRANCH  21  22
HETATM   22  C   UNK N   1      34.355  15.924   6.411  0.00  0.00    -0.030 A 
HETATM   23  C   UNK N   1      34.971  14.705   6.705  0.00  0.00     0.009 A 
HETATM   24  C   UNK N   1      35.383  14.427   8.014  0.00  0.00     0.008 A 
HETATM   25  C   UNK N   1      35.182  15.369   9.042  0.00  0.00    -0.051 A 
HETATM   26  C   UNK N   1      34.574  16.593   8.731  0.00  0.00     0.008 A 
HETATM   27  C   UNK N   1      34.165  16.867   7.431  0.00  0.00     0.009 A 
BRANCH  25  28
HETATM   28  C   UNK N   1      35.596  15.094  10.472  0.00  0.00    -0.024 C 
HETATM   29  C   UNK N   1      35.694  16.400  11.241  0.00  0.00     0.019 C 
HETATM   30  C   UNK N   1      36.940  14.387  10.572  0.00  0.00     0.019 C 
HETATM   31  C   UNK N   1      34.556  14.212  11.144  0.00  0.00     0.019 C 
ENDBRANCH  25  28
ENDBRANCH  21  22
ENDBRANCH   2  21
TORSDOF 6
ENDMDL
MODEL 7
REMARK VINA RESULT:      -7.2     16.011     20.782
REMARK  6 active torsions:
REMARK  status: ('A' for Active; 'I' for Inactive)
REMARK    1  A    between atoms: N_2  and  C_8 
REMARK    2  A    between atoms: N_3  and  C_9 
REMARK    3  A    between atoms: C_8  and  C_10 
REMARK    4  A    between atoms: C_8  and  C_11 
REMARK    5  A    between atoms: C_9  and  C_12 
REMARK    6  A    between atoms: C_13  and  C_14 
ROOT
HETATM    1  N   UNK N   1      28.047  25.802  -4.134  0.00  0.00     0.105 NA
HETATM    2  N   UNK N   1      29.250  23.398  -3.309  0.00  0.00     0.096 N 
HETATM    3  C   UNK N   1      27.262  24.574  -3.975  0.00  0.00     0.304 C 
HETATM    4  C   UNK N   1      29.465  25.544  -4.407  0.00  0.00     0.304 C 
HETATM    5  C   UNK N   1      27.892  23.705  -2.889  0.00  0.00     0.303 C 
HETATM    6  C   UNK N   1      30.039  24.624  -3.335  0.00  0.00     0.303 C 
ENDROOT
BRANCH   1   7
HETATM    7  C   UNK N   1      27.439  26.672  -5.154  0.00  0.00     0.289 C 
BRANCH   7   8
HETATM    8  C   UNK N   1      27.181  25.983  -6.476  0.00  0.00    -0.021 A 
HETATM    9  C   UNK N   1      25.890  25.601  -6.874  0.00  0.00     0.011 A 
HETATM   10  C   UNK N   1      25.687  24.972  -8.105  0.00  0.00     0.024 A 
HETATM   11  C   UNK N   1      26.770  24.718  -8.950  0.00  0.00     0.034 A 
HETATM   12 Cl   UNK N   1      26.517  23.930 -10.491  0.00  0.00    -0.084 Cl
HETATM   13  C   UNK N   1      28.057  25.094  -8.565  0.00  0.00     0.024 A 
HETATM   14  C   UNK N   1      28.259  25.723  -7.335  0.00  0.00     0.011 A 
ENDBRANCH   7   8
BRANCH   7  15
HETATM   15  C   UNK N   1      27.357  28.184  -4.924  0.00  0.00    -0.021 A 
HETATM   16  C   UNK N   1      28.162  29.072  -5.656  0.00  0.00     0.010 A 
HETATM   17  C   UNK N   1      28.104  30.449  -5.424  0.00  0.00     0.001 A 
HETATM   18  C   UNK N   1      27.241  30.959  -4.453  0.00  0.00     0.000 A 
HETATM   19  C   UNK N   1      26.433  30.090  -3.717  0.00  0.00     0.001 A 
HETATM   20  C   UNK N   1      26.491  28.714  -3.951  0.00  0.00     0.010 A 
ENDBRANCH   7  15
ENDBRANCH   1   7
BRANCH   2  21
HETATM   21  C   UNK N   1      29.870  22.443  -2.403  0.00  0.00     0.311 C 
BRANCH  21  22
HETATM   22  C   UNK N   1      30.970  21.723  -3.123  0.00  0.00    -0.030 A 
HETATM   23  C   UNK N   1      30.700  21.035  -4.308  0.00  0.00     0.009 A 
HETATM   24  C   UNK N   1      31.723  20.331  -4.955  0.00  0.00     0.008 A 
HETATM   25  C   UNK N   1      33.027  20.310  -4.422  0.00  0.00    -0.051 A 
HETATM   26  C   UNK N   1      33.286  21.015  -3.238  0.00  0.00     0.008 A 
HETATM   27  C   UNK N   1      32.269  21.713  -2.597  0.00  0.00     0.009 A 
BRANCH  25  28
HETATM   28  C   UNK N   1      34.151  19.542  -5.084  0.00  0.00    -0.024 C 
HETATM   29  C   UNK N   1      35.433  20.356  -5.029  0.00  0.00     0.019 C 
HETATM   30  C   UNK N   1      33.864  19.216  -6.542  0.00  0.00     0.019 C 
HETATM   31  C   UNK N   1      34.377  18.231  -4.349  0.00  0.00     0.019 C 
ENDBRANCH  25  28
ENDBRANCH  21  22
ENDBRANCH   2  21
TORSDOF 6
ENDMDL
MODEL 8
REMARK VINA RESULT:      -7.0      7.937     12.024
REMARK  6 active torsions:
REMARK  status: ('A' for Active; 'I' for Inactive)
REMARK    1  A    between atoms: N_2  and  C_8 
REMARK    2  A    between atoms: N_3  and  C_9 
REMARK    3  A    between atoms: C_8  and  C_10 
REMARK    4  A    between atoms: C_8  and  C_11 
REMARK    5  A    between atoms: C_9  and  C_12 
REMARK    6  A    between atoms: C_13  and  C_14 
ROOT
HETATM    1  N   UNK N   1      28.654  16.161   4.795  0.00  0.00     0.105 NA
HETATM    2  N   UNK N   1      28.154  14.017   3.047  0.00  0.00     0.096 N 
HETATM    3  C   UNK N   1      27.978  14.945   5.258  0.00  0.00     0.304 C 
HETATM    4  C   UNK N   1      28.498  16.393   3.356  0.00  0.00     0.304 C 
HETATM    5  C   UNK N   1      28.467  13.751   4.442  0.00  0.00     0.303 C 
HETATM    6  C   UNK N   1      28.939  15.155   2.583  0.00  0.00     0.303 C 
ENDROOT
BRANCH   1   7
HETATM    7  C   UNK N   1      28.222  17.323   5.590  0.00  0.00     0.289 C 
BRANCH   7   8
HETATM    8  C   UNK N   1      27.206  18.202   4.894  0.00  0.00    -0.021 A 
HETATM    9  C   UNK N   1      27.572  19.399   4.258  0.00  0.00     0.011 A 
HETATM   10  C   UNK N   1      26.608  20.183   3.618  0.00  0.00     0.024 A 
HETATM   11  C   UNK N   1      25.270  19.781   3.610  0.00  0.00     0.034 A 
HETATM   12 Cl   UNK N   1      24.063  20.763   2.812  0.00  0.00    -0.084 Cl
HETATM   13  C   UNK N   1      24.896  18.593   4.239  0.00  0.00     0.024 A 
HETATM   14  C   UNK N   1      25.859  17.810   4.876  0.00  0.00     0.011 A 
ENDBRANCH   7   8
BRANCH   7  15
HETATM   15  C   UNK N   1      28.971  17.699   6.872  0.00  0.00    -0.021 A 
HETATM   16  C   UNK N   1      30.315  17.338   7.057  0.00  0.00     0.010 A 
HETATM   17  C   UNK N   1      30.988  17.658   8.240  0.00  0.00     0.001 A 
HETATM   18  C   UNK N   1      30.323  18.343   9.259  0.00  0.00     0.000 A 
HETATM   19  C   UNK N   1      28.986  18.709   9.091  0.00  0.00     0.001 A 
HETATM   20  C   UNK N   1      28.316  18.389   7.907  0.00  0.00     0.010 A 
ENDBRANCH   7  15
ENDBRANCH   1   7
BRANCH   2  21
HETATM   21  C   UNK N   1      28.448  12.857   2.220  0.00  0.00     0.311 C 
BRANCH  21  22
HETATM   22  C   UNK N   1      27.161  12.234   1.770  0.00  0.00    -0.030 A 
HETATM   23  C   UNK N   1      27.144  10.919   1.299  0.00  0.00     0.009 A 
HETATM   24  C   UNK N   1      25.946  10.356   0.842  0.00  0.00     0.008 A 
HETATM   25  C   UNK N   1      24.753  11.104   0.853  0.00  0.00    -0.051 A 
HETATM   26  C   UNK N   1      24.782  12.419   1.339  0.00  0.00     0.008 A 
HETATM   27  C   UNK N   1      25.972  12.977   1.791  0.00  0.00     0.009 A 
BRANCH  25  28
HETATM   28  C   UNK N   1      23.444  10.534   0.347  0.00  0.00    -0.024 C 
HETATM   29  C   UNK N   1      23.580  10.154  -1.117  0.00  0.00     0.019 C 
HETATM   30  C   UNK N   1      22.286  11.512   0.474  0.00  0.00     0.019 C 
HETATM   31  C   UNK N   1      23.090   9.287   1.141  0.00  0.00     0.019 C 
ENDBRANCH  25  28
ENDBRANCH  21  22
ENDBRANCH   2  21
TORSDOF 6
ENDMDL
MODEL 9
REMARK VINA RESULT:      -7.0      8.928     13.797
REMARK  6 active torsions:
REMARK  status: ('A' for Active; 'I' for Inactive)
REMARK    1  A    between atoms: N_2  and  C_8 
REMARK    2  A    between atoms: N_3  and  C_9 
REMARK    3  A    between atoms: C_8  and  C_10 
REMARK    4  A    between atoms: C_8  and  C_11 
REMARK    5  A    between atoms: C_9  and  C_12 
REMARK    6  A    between atoms: C_13  and  C_14 
ROOT
HETATM    1  N   UNK N   1      23.496  17.259   4.860  0.00  0.00     0.105 NA
HETATM    2  N   UNK N   1      25.786  18.452   3.749  0.00  0.00     0.096 N 
HETATM    3  C   UNK N   1      24.441  16.483   4.051  0.00  0.00     0.304 C 
HETATM    4  C   UNK N   1      23.514  18.691   4.547  0.00  0.00     0.304 C 
HETATM    5  C   UNK N   1      25.841  17.071   4.202  0.00  0.00     0.303 C 
HETATM    6  C   UNK N   1      24.939  19.225   4.649  0.00  0.00     0.303 C 
ENDROOT
BRANCH   1   7
HETATM    7  C   UNK N   1      22.142  16.689   4.756  0.00  0.00     0.289 C 
BRANCH   7   8
HETATM    8  C   UNK N   1      21.638  16.062   6.038  0.00  0.00    -0.021 A 
HETATM    9  C   UNK N   1      20.721  16.718   6.874  0.00  0.00     0.011 A 
HETATM   10  C   UNK N   1      20.271  16.107   8.047  0.00  0.00     0.024 A 
HETATM   11  C   UNK N   1      20.735  14.836   8.397  0.00  0.00     0.034 A 
HETATM   12 Cl   UNK N   1      20.174  14.071   9.867  0.00  0.00    -0.084 Cl
HETATM   13  C   UNK N   1      21.646  14.175   7.573  0.00  0.00     0.024 A 
HETATM   14  C   UNK N   1      22.094  14.786   6.402  0.00  0.00     0.011 A 
ENDBRANCH   7   8
BRANCH   7  15
HETATM   15  C   UNK N   1      21.476  16.535   3.386  0.00  0.00    -0.021 A 
HETATM   16  C   UNK N   1      21.632  15.359   2.634  0.00  0.00     0.010 A 
HETATM   17  C   UNK N   1      21.046  15.232   1.371  0.00  0.00     0.001 A 
HETATM   18  C   UNK N   1      20.296  16.282   0.840  0.00  0.00     0.000 A 
HETATM   19  C   UNK N   1      20.131  17.458   1.574  0.00  0.00     0.001 A 
HETATM   20  C   UNK N   1      20.717  17.583   2.837  0.00  0.00     0.010 A 
ENDBRANCH   7  15
ENDBRANCH   1   7
BRANCH   2  21
HETATM   21  C   UNK N   1      27.117  19.039   3.713  0.00  0.00     0.311 C 
BRANCH  21  22
HETATM   22  C   UNK N   1      27.823  18.736   5.000  0.00  0.00    -0.030 A 
HETATM   23  C   UNK N   1      28.792  17.730   5.049  0.00  0.00     0.009 A 
HETATM   24  C   UNK N   1      29.420  17.423   6.262  0.00  0.00     0.008 A 
HETATM   25  C   UNK N   1      29.085  18.121   7.438  0.00  0.00    -0.051 A 
HETATM   26  C   UNK N   1      28.121  19.137   7.373  0.00  0.00     0.008 A 
HETATM   27  C   UNK N   1      27.497  19.439   6.168  0.00  0.00     0.009 A 
BRANCH  25  28
HETATM   28  C   UNK N   1      29.730  17.801   8.771  0.00  0.00    -0.024 C 
HETATM   29  C   UNK N   1      30.865  16.813   8.569  0.00  0.00     0.019 C 
HETATM   30  C   UNK N   1      28.752  17.198   9.769  0.00  0.00     0.019 C 
HETATM   31  C   UNK N   1      30.295  19.072   9.383  0.00  0.00     0.019 C 
ENDBRANCH  25  28
ENDBRANCH  21  22
ENDBRANCH   2  21
TORSDOF 6
ENDMDL
