REMARK  6 active torsions:
REMARK  status: ('A' for Active; 'I' for Inactive)
REMARK    1  A    between atoms: N_2  and  C_8 
REMARK    2  A    between atoms: N_3  and  C_9 
REMARK    3  A    between atoms: C_8  and  C_10 
REMARK    4  A    between atoms: C_8  and  C_11 
REMARK    5  A    between atoms: C_9  and  C_12 
REMARK    6  A    between atoms: C_13  and  C_14 
ROOT
HETATM    1  N   UNK N   1       3.644  -1.690  -0.273  0.00  0.00     0.105 NA
HETATM    2  N   UNK N   1       4.251   1.023   0.148  0.00  0.00     0.096 N 
HETATM    3  C   UNK N   1       3.690  -1.122   1.078  0.00  0.00     0.304 C 
HETATM    4  C   UNK N   1       4.470  -0.952  -1.234  0.00  0.00     0.304 C 
HETATM    5  C   UNK N   1       3.301   0.353   1.022  0.00  0.00     0.303 C 
HETATM    6  C   UNK N   1       4.092   0.525  -1.213  0.00  0.00     0.303 C 
ENDROOT
BRANCH   1   7
HETATM    7  C   UNK N   1       3.984  -3.122  -0.240  0.00  0.00     0.289 C 
BRANCH   7   8
HETATM    8  C   UNK N   1       2.782  -4.039  -0.180  0.00  0.00    -0.021 A 
HETATM    9  C   UNK N   1       2.914  -5.424   0.009  0.00  0.00     0.011 A 
HETATM   10  C   UNK N   1       1.782  -6.241   0.066  0.00  0.00     0.024 A 
HETATM   11  C   UNK N   1       0.508  -5.683  -0.067  0.00  0.00     0.034 A 
HETATM   12 Cl   UNK N   1      -0.910  -6.705   0.002  0.00  0.00    -0.084 Cl
HETATM   13  C   UNK N   1       0.365  -4.308  -0.255  0.00  0.00     0.024 A 
HETATM   14  C   UNK N   1       1.496  -3.493  -0.311  0.00  0.00     0.011 A 
ENDBRANCH   7   8
BRANCH   7  15
HETATM   15  C   UNK N   1       5.433  -3.563  -0.012  0.00  0.00    -0.021 A 
HETATM   16  C   UNK N   1       6.461  -2.619   0.140  0.00  0.00     0.010 A 
HETATM   17  C   UNK N   1       7.787  -3.025   0.320  0.00  0.00     0.001 A 
HETATM   18  C   UNK N   1       8.104  -4.384   0.348  0.00  0.00     0.000 A 
HETATM   19  C   UNK N   1       7.093  -5.336   0.199  0.00  0.00     0.001 A 
HETATM   20  C   UNK N   1       5.769  -4.928   0.020  0.00  0.00     0.010 A 
ENDBRANCH   7  15
ENDBRANCH   1   7
BRANCH   2  21
HETATM   21  C   UNK N   1       4.044   2.463   0.164  0.00  0.00     0.311 C 
BRANCH  21  22
HETATM   22  C   UNK N   1       5.375   3.152   0.140  0.00  0.00    -0.030 A 
HETATM   23  C   UNK N   1       5.474   4.473  -0.304  0.00  0.00     0.009 A 
HETATM   24  C   UNK N   1       6.725   5.099  -0.362  0.00  0.00     0.008 A 
HETATM   25  C   UNK N   1       7.890   4.408   0.025  0.00  0.00    -0.051 A 
HETATM   26  C   UNK N   1       7.775   3.087   0.480  0.00  0.00     0.008 A 
HETATM   27  C   UNK N   1       6.532   2.467   0.536  0.00  0.00     0.009 A 
BRANCH  25  28
HETATM   28  C   UNK N   1       9.261   5.047  -0.045  0.00  0.00    -0.024 C 
HETATM   29  C   UNK N   1       9.889   5.071   1.338  0.00  0.00     0.019 C 
HETATM   30  C   UNK N   1       9.220   6.475  -0.568  0.00  0.00     0.019 C 
HETATM   31  C   UNK N   1      10.155   4.238  -0.970  0.00  0.00     0.019 C 
ENDBRANCH  25  28
ENDBRANCH  21  22
ENDBRANCH   2  21
TORSDOF 6
