MODEL 1
REMARK VINA RESULT:      -6.6      0.000      0.000
REMARK  3 active torsions:
REMARK  status: ('A' for Active; 'I' for Inactive)
REMARK    1  A    between atoms: N_4  and  C_17 
REMARK    2  A    between atoms: C_5  and  C_7 
REMARK    3  A    between atoms: C_5  and  C_8 
ROOT
HETATM    1  O   UNK N   1      33.791  10.634  14.755  0.00  0.00    -0.272 OA
HETATM    2  O   UNK N   1      35.148  13.906  12.056  0.00  0.00    -0.273 OA
HETATM    3  N   UNK N   1      34.472  12.247  13.384  0.00  0.00    -0.297 N 
HETATM    4  C   UNK N   1      35.962  11.484  15.282  0.00  0.00     0.068 C 
HETATM    5  C   UNK N   1      37.001  12.393  14.601  0.00  0.00     0.033 C 
HETATM    6  C   UNK N   1      36.390  13.663  14.038  0.00  0.00     0.105 C 
HETATM    7  C   UNK N   1      34.665  11.431  14.457  0.00  0.00     0.237 C 
HETATM    8  C   UNK N   1      35.308  13.270  13.084  0.00  0.00     0.224 C 
HETATM    9  H   UNK N   1      33.694  12.086  12.803  0.00  0.00     0.171 HD
ENDROOT
BRANCH   4  10
HETATM   10  C   UNK N   1      36.641  10.096  15.271  0.00  0.00     0.020 C 
HETATM   11  C   UNK N   1      37.976  10.024  14.538  0.00  0.00     0.006 C 
ENDBRANCH   4  10
BRANCH   4  12
HETATM   12  C   UNK N   1      35.696  12.006  16.698  0.00  0.00    -0.040 A 
HETATM   13  C   UNK N   1      35.421  13.365  16.940  0.00  0.00     0.011 A 
HETATM   14  C   UNK N   1      35.113  13.816  18.226  0.00  0.00     0.029 A 
HETATM   15  C   UNK N   1      35.065  12.913  19.289  0.00  0.00     0.025 A 
HETATM   16  C   UNK N   1      35.345  11.562  19.071  0.00  0.00     0.029 A 
HETATM   17  C   UNK N   1      35.662  11.112  17.785  0.00  0.00     0.011 A 
BRANCH  15  18
HETATM   18  N   UNK N   1      34.722  13.364  20.580  0.00  0.00    -0.399 N 
HETATM   19  H   UNK N   1      35.314  13.206  21.350  0.00  0.00     0.156 HD
HETATM   20  H   UNK N   1      33.875  13.848  20.712  0.00  0.00     0.156 HD
ENDBRANCH  15  18
ENDBRANCH   4  12
TORSDOF 3
ENDMDL
MODEL 2
REMARK VINA RESULT:      -6.6      8.535     11.533
REMARK  3 active torsions:
REMARK  status: ('A' for Active; 'I' for Inactive)
REMARK    1  A    between atoms: N_4  and  C_17 
REMARK    2  A    between atoms: C_5  and  C_7 
REMARK    3  A    between atoms: C_5  and  C_8 
ROOT
HETATM    1  O   UNK N   1      32.178  14.872   8.641  0.00  0.00    -0.272 OA
HETATM    2  O   UNK N   1      35.474  17.332  10.350  0.00  0.00    -0.273 OA
HETATM    3  N   UNK N   1      33.808  16.103   9.521  0.00  0.00    -0.297 N 
HETATM    4  C   UNK N   1      32.383  17.037   7.649  0.00  0.00     0.068 C 
HETATM    5  C   UNK N   1      33.131  18.345   7.967  0.00  0.00     0.033 C 
HETATM    6  C   UNK N   1      34.588  18.117   8.317  0.00  0.00     0.105 C 
HETATM    7  C   UNK N   1      32.788  15.929   8.636  0.00  0.00     0.237 C 
HETATM    8  C   UNK N   1      34.642  17.169   9.473  0.00  0.00     0.224 C 
HETATM    9  H   UNK N   1      33.943  15.429  10.224  0.00  0.00     0.171 HD
ENDROOT
BRANCH   4  10
HETATM   10  C   UNK N   1      30.900  17.411   7.870  0.00  0.00     0.020 C 
HETATM   11  C   UNK N   1      30.636  18.417   8.984  0.00  0.00     0.006 C 
ENDBRANCH   4  10
BRANCH   4  12
HETATM   12  C   UNK N   1      32.686  16.628   6.203  0.00  0.00    -0.040 A 
HETATM   13  C   UNK N   1      32.115  17.309   5.112  0.00  0.00     0.011 A 
HETATM   14  C   UNK N   1      32.453  16.970   3.800  0.00  0.00     0.029 A 
HETATM   15  C   UNK N   1      33.374  15.951   3.557  0.00  0.00     0.025 A 
HETATM   16  C   UNK N   1      33.943  15.255   4.627  0.00  0.00     0.029 A 
HETATM   17  C   UNK N   1      33.599  15.590   5.941  0.00  0.00     0.011 A 
BRANCH  15  18
HETATM   18  N   UNK N   1      33.738  15.632   2.234  0.00  0.00    -0.399 N 
HETATM   19  H   UNK N   1      33.792  14.697   1.930  0.00  0.00     0.156 HD
HETATM   20  H   UNK N   1      33.942  16.358   1.601  0.00  0.00     0.156 HD
ENDBRANCH  15  18
ENDBRANCH   4  12
TORSDOF 3
ENDMDL
MODEL 3
REMARK VINA RESULT:      -6.5      7.829     10.556
REMARK  3 active torsions:
REMARK  status: ('A' for Active; 'I' for Inactive)
REMARK    1  A    between atoms: N_4  and  C_17 
REMARK    2  A    between atoms: C_5  and  C_7 
REMARK    3  A    between atoms: C_5  and  C_8 
ROOT
HETATM    1  O   UNK N   1      34.328  19.117   8.212  0.00  0.00    -0.272 OA
HETATM    2  O   UNK N   1      35.352  15.560  10.688  0.00  0.00    -0.273 OA
HETATM    3  N   UNK N   1      34.868  17.340   9.435  0.00  0.00    -0.297 N 
HETATM    4  C   UNK N   1      33.173  17.126   7.567  0.00  0.00     0.068 C 
HETATM    5  C   UNK N   1      33.287  15.620   7.872  0.00  0.00     0.033 C 
HETATM    6  C   UNK N   1      33.428  15.332   9.354  0.00  0.00     0.105 C 
HETATM    7  C   UNK N   1      34.160  17.928   8.432  0.00  0.00     0.237 C 
HETATM    8  C   UNK N   1      34.623  16.076   9.858  0.00  0.00     0.224 C 
HETATM    9  H   UNK N   1      35.586  17.853   9.870  0.00  0.00     0.171 HD
ENDROOT
BRANCH   4  10
HETATM   10  C   UNK N   1      33.590  17.221   6.082  0.00  0.00     0.020 C 
HETATM   11  C   UNK N   1      34.245  15.973   5.503  0.00  0.00     0.006 C 
ENDBRANCH   4  10
BRANCH   4  12
HETATM   12  C   UNK N   1      31.729  17.576   7.813  0.00  0.00    -0.040 A 
HETATM   13  C   UNK N   1      30.680  17.173   6.965  0.00  0.00     0.011 A 
HETATM   14  C   UNK N   1      29.359  17.536   7.239  0.00  0.00     0.029 A 
HETATM   15  C   UNK N   1      29.064  18.299   8.370  0.00  0.00     0.025 A 
HETATM   16  C   UNK N   1      30.094  18.718   9.216  0.00  0.00     0.029 A 
HETATM   17  C   UNK N   1      31.417  18.362   8.938  0.00  0.00     0.011 A 
BRANCH  15  18
HETATM   18  N   UNK N   1      27.728  18.637   8.662  0.00  0.00    -0.399 N 
HETATM   19  H   UNK N   1      27.340  18.464   9.550  0.00  0.00     0.156 HD
HETATM   20  H   UNK N   1      27.172  19.053   7.964  0.00  0.00     0.156 HD
ENDBRANCH  15  18
ENDBRANCH   4  12
TORSDOF 3
ENDMDL
MODEL 4
REMARK VINA RESULT:      -6.3      9.922     11.405
REMARK  3 active torsions:
REMARK  status: ('A' for Active; 'I' for Inactive)
REMARK    1  A    between atoms: N_4  and  C_17 
REMARK    2  A    between atoms: C_5  and  C_7 
REMARK    3  A    between atoms: C_5  and  C_8 
ROOT
HETATM    1  O   UNK N   1      31.599  14.186   6.321  0.00  0.00    -0.272 OA
HETATM    2  O   UNK N   1      33.029  16.150   2.589  0.00  0.00    -0.273 OA
HETATM    3  N   UNK N   1      32.338  15.147   4.457  0.00  0.00    -0.297 N 
HETATM    4  C   UNK N   1      32.474  16.385   6.660  0.00  0.00     0.068 C 
HETATM    5  C   UNK N   1      33.289  17.401   5.839  0.00  0.00     0.033 C 
HETATM    6  C   UNK N   1      32.753  17.584   4.432  0.00  0.00     0.105 C 
HETATM    7  C   UNK N   1      32.103  15.167   5.797  0.00  0.00     0.237 C 
HETATM    8  C   UNK N   1      32.733  16.245   3.768  0.00  0.00     0.224 C 
HETATM    9  H   UNK N   1      32.216  14.302   3.969  0.00  0.00     0.171 HD
ENDROOT
BRANCH   4  10
HETATM   10  C   UNK N   1      33.457  15.954   7.771  0.00  0.00     0.020 C 
HETATM   11  C   UNK N   1      34.854  15.570   7.299  0.00  0.00     0.006 C 
ENDBRANCH   4  10
BRANCH   4  12
HETATM   12  C   UNK N   1      31.221  17.077   7.207  0.00  0.00    -0.040 A 
HETATM   13  C   UNK N   1      29.988  17.006   6.531  0.00  0.00     0.011 A 
HETATM   14  C   UNK N   1      28.839  17.584   7.075  0.00  0.00     0.029 A 
HETATM   15  C   UNK N   1      28.900  18.234   8.308  0.00  0.00     0.025 A 
HETATM   16  C   UNK N   1      30.117  18.325   8.988  0.00  0.00     0.029 A 
HETATM   17  C   UNK N   1      31.270  17.753   8.441  0.00  0.00     0.011 A 
BRANCH  15  18
HETATM   18  N   UNK N   1      27.733  18.789   8.870  0.00  0.00    -0.399 N 
HETATM   19  H   UNK N   1      26.845  18.406   8.685  0.00  0.00     0.156 HD
HETATM   20  H   UNK N   1      27.807  19.573   9.460  0.00  0.00     0.156 HD
ENDBRANCH  15  18
ENDBRANCH   4  12
TORSDOF 3
ENDMDL
MODEL 5
REMARK VINA RESULT:      -5.9     22.216     24.704
REMARK  3 active torsions:
REMARK  status: ('A' for Active; 'I' for Inactive)
REMARK    1  A    between atoms: N_4  and  C_17 
REMARK    2  A    between atoms: C_5  and  C_7 
REMARK    3  A    between atoms: C_5  and  C_8 
ROOT
HETATM    1  O   UNK N   1      26.290  23.922  -3.054  0.00  0.00    -0.272 OA
HETATM    2  O   UNK N   1      27.341  28.207  -3.663  0.00  0.00    -0.273 OA
HETATM    3  N   UNK N   1      26.786  26.067  -3.369  0.00  0.00    -0.297 N 
HETATM    4  C   UNK N   1      27.834  24.294  -4.841  0.00  0.00     0.068 C 
HETATM    5  C   UNK N   1      28.351  25.507  -5.636  0.00  0.00     0.033 C 
HETATM    6  C   UNK N   1      28.752  26.666  -4.744  0.00  0.00     0.105 C 
HETATM    7  C   UNK N   1      26.922  24.751  -3.690  0.00  0.00     0.237 C 
HETATM    8  C   UNK N   1      27.570  27.034  -3.905  0.00  0.00     0.224 C 
HETATM    9  H   UNK N   1      26.091  26.326  -2.723  0.00  0.00     0.171 HD
ENDROOT
BRANCH   4  10
HETATM   10  C   UNK N   1      27.003  23.512  -5.882  0.00  0.00     0.020 C 
HETATM   11  C   UNK N   1      25.979  24.334  -6.655  0.00  0.00     0.006 C 
ENDBRANCH   4  10
BRANCH   4  12
HETATM   12  C   UNK N   1      29.032  23.497  -4.313  0.00  0.00    -0.040 A 
HETATM   13  C   UNK N   1      29.555  23.723  -3.025  0.00  0.00     0.011 A 
HETATM   14  C   UNK N   1      30.604  22.943  -2.532  0.00  0.00     0.029 A 
HETATM   15  C   UNK N   1      31.141  21.920  -3.313  0.00  0.00     0.025 A 
HETATM   16  C   UNK N   1      30.644  21.689  -4.598  0.00  0.00     0.029 A 
HETATM   17  C   UNK N   1      29.599  22.474  -5.096  0.00  0.00     0.011 A 
BRANCH  15  18
HETATM   18  N   UNK N   1      32.177  21.113  -2.800  0.00  0.00    -0.399 N 
HETATM   19  H   UNK N   1      32.746  20.573  -3.395  0.00  0.00     0.156 HD
HETATM   20  H   UNK N   1      32.335  21.091  -1.829  0.00  0.00     0.156 HD
ENDBRANCH  15  18
ENDBRANCH   4  12
TORSDOF 3
ENDMDL
MODEL 6
REMARK VINA RESULT:      -5.5      6.414      9.086
REMARK  3 active torsions:
REMARK  status: ('A' for Active; 'I' for Inactive)
REMARK    1  A    between atoms: N_4  and  C_17 
REMARK    2  A    between atoms: C_5  and  C_7 
REMARK    3  A    between atoms: C_5  and  C_8 
ROOT
HETATM    1  O   UNK N   1      32.208  14.396   7.288  0.00  0.00    -0.272 OA
HETATM    2  O   UNK N   1      29.127  17.535   7.983  0.00  0.00    -0.273 OA
HETATM    3  N   UNK N   1      30.663  15.963   7.605  0.00  0.00    -0.297 N 
HETATM    4  C   UNK N   1      33.118  16.541   7.821  0.00  0.00     0.068 C 
HETATM    5  C   UNK N   1      32.590  17.985   7.920  0.00  0.00     0.033 C 
HETATM    6  C   UNK N   1      31.297  18.084   8.707  0.00  0.00     0.105 C 
HETATM    7  C   UNK N   1      31.962  15.560   7.558  0.00  0.00     0.237 C 
HETATM    8  C   UNK N   1      30.293  17.185   8.059  0.00  0.00     0.224 C 
HETATM    9  H   UNK N   1      29.965  15.343   7.295  0.00  0.00     0.171 HD
ENDROOT
BRANCH   4  10
HETATM   10  C   UNK N   1      34.050  16.586   6.590  0.00  0.00     0.020 C 
HETATM   11  C   UNK N   1      33.506  17.337   5.381  0.00  0.00     0.006 C 
ENDBRANCH   4  10
BRANCH   4  12
HETATM   12  C   UNK N   1      33.857  16.191   9.117  0.00  0.00    -0.040 A 
HETATM   13  C   UNK N   1      33.548  15.027   9.847  0.00  0.00     0.011 A 
HETATM   14  C   UNK N   1      34.274  14.685  10.990  0.00  0.00     0.029 A 
HETATM   15  C   UNK N   1      35.328  15.494  11.416  0.00  0.00     0.025 A 
HETATM   16  C   UNK N   1      35.642  16.659  10.712  0.00  0.00     0.029 A 
HETATM   17  C   UNK N   1      34.910  17.007   9.572  0.00  0.00     0.011 A 
BRANCH  15  18
HETATM   18  N   UNK N   1      36.081  15.130  12.551  0.00  0.00    -0.399 N 
HETATM   19  H   UNK N   1      35.727  15.256  13.461  0.00  0.00     0.156 HD
HETATM   20  H   UNK N   1      36.977  14.740  12.430  0.00  0.00     0.156 HD
ENDBRANCH  15  18
ENDBRANCH   4  12
TORSDOF 3
ENDMDL
MODEL 7
REMARK VINA RESULT:      -5.5      9.158     11.600
REMARK  3 active torsions:
REMARK  status: ('A' for Active; 'I' for Inactive)
REMARK    1  A    between atoms: N_4  and  C_17 
REMARK    2  A    between atoms: C_5  and  C_7 
REMARK    3  A    between atoms: C_5  and  C_8 
ROOT
HETATM    1  O   UNK N   1      30.851  13.840   5.630  0.00  0.00    -0.272 OA
HETATM    2  O   UNK N   1      27.319  16.552   5.605  0.00  0.00    -0.273 OA
HETATM    3  N   UNK N   1      29.078  15.182   5.590  0.00  0.00    -0.297 N 
HETATM    4  C   UNK N   1      31.398  16.135   5.247  0.00  0.00     0.068 C 
HETATM    5  C   UNK N   1      30.628  17.425   4.908  0.00  0.00     0.033 C 
HETATM    6  C   UNK N   1      29.405  17.625   5.781  0.00  0.00     0.105 C 
HETATM    7  C   UNK N   1      30.421  14.976   5.507  0.00  0.00     0.237 C 
HETATM    8  C   UNK N   1      28.531  16.421   5.635  0.00  0.00     0.224 C 
HETATM    9  H   UNK N   1      28.481  14.401   5.618  0.00  0.00     0.171 HD
ENDROOT
BRANCH   4  10
HETATM   10  C   UNK N   1      32.207  15.853   3.961  0.00  0.00     0.020 C 
HETATM   11  C   UNK N   1      32.175  16.957   2.911  0.00  0.00     0.006 C 
ENDBRANCH   4  10
BRANCH   4  12
HETATM   12  C   UNK N   1      32.288  16.393   6.468  0.00  0.00    -0.040 A 
HETATM   13  C   UNK N   1      33.394  17.261   6.400  0.00  0.00     0.011 A 
HETATM   14  C   UNK N   1      34.157  17.539   7.537  0.00  0.00     0.029 A 
HETATM   15  C   UNK N   1      33.820  16.962   8.762  0.00  0.00     0.025 A 
HETATM   16  C   UNK N   1      32.733  16.089   8.847  0.00  0.00     0.029 A 
HETATM   17  C   UNK N   1      31.974  15.804   7.707  0.00  0.00     0.011 A 
BRANCH  15  18
HETATM   18  N   UNK N   1      34.571  17.269   9.915  0.00  0.00    -0.399 N 
HETATM   19  H   UNK N   1      35.486  17.626   9.848  0.00  0.00     0.156 HD
HETATM   20  H   UNK N   1      34.172  17.125  10.803  0.00  0.00     0.156 HD
ENDBRANCH  15  18
ENDBRANCH   4  12
TORSDOF 3
ENDMDL
MODEL 8
REMARK VINA RESULT:      -5.4      2.301      4.315
REMARK  3 active torsions:
REMARK  status: ('A' for Active; 'I' for Inactive)
REMARK    1  A    between atoms: N_4  and  C_17 
REMARK    2  A    between atoms: C_5  and  C_7 
REMARK    3  A    between atoms: C_5  and  C_8 
ROOT
HETATM    1  O   UNK N   1      37.560  13.835  15.482  0.00  0.00    -0.272 OA
HETATM    2  O   UNK N   1      34.577  13.977  12.178  0.00  0.00    -0.273 OA
HETATM    3  N   UNK N   1      36.058  13.931  13.844  0.00  0.00    -0.297 N 
HETATM    4  C   UNK N   1      35.929  12.088  15.575  0.00  0.00     0.068 C 
HETATM    5  C   UNK N   1      34.585  11.778  14.891  0.00  0.00     0.033 C 
HETATM    6  C   UNK N   1      34.638  11.960  13.386  0.00  0.00     0.105 C 
HETATM    7  C   UNK N   1      36.573  13.342  14.958  0.00  0.00     0.237 C 
HETATM    8  C   UNK N   1      35.075  13.362  13.106  0.00  0.00     0.224 C 
HETATM    9  H   UNK N   1      36.413  14.805  13.565  0.00  0.00     0.171 HD
ENDROOT
BRANCH   4  10
HETATM   10  C   UNK N   1      35.526  12.379  17.038  0.00  0.00     0.020 C 
HETATM   11  C   UNK N   1      34.758  13.676  17.262  0.00  0.00     0.006 C 
ENDBRANCH   4  10
BRANCH   4  12
HETATM   12  C   UNK N   1      36.851  10.871  15.440  0.00  0.00    -0.040 A 
HETATM   13  C   UNK N   1      37.866  10.823  14.467  0.00  0.00     0.011 A 
HETATM   14  C   UNK N   1      38.742   9.737  14.399  0.00  0.00     0.029 A 
HETATM   15  C   UNK N   1      38.623   8.686  15.309  0.00  0.00     0.025 A 
HETATM   16  C   UNK N   1      37.614   8.710  16.274  0.00  0.00     0.029 A 
HETATM   17  C   UNK N   1      36.732   9.794  16.338  0.00  0.00     0.011 A 
BRANCH  15  18
HETATM   18  N   UNK N   1      39.528   7.606  15.259  0.00  0.00    -0.399 N 
HETATM   19  H   UNK N   1      39.524   6.971  14.508  0.00  0.00     0.156 HD
HETATM   20  H   UNK N   1      40.176   7.487  15.990  0.00  0.00     0.156 HD
ENDBRANCH  15  18
ENDBRANCH   4  12
TORSDOF 3
ENDMDL
MODEL 9
REMARK VINA RESULT:      -5.3     13.493     15.040
REMARK  3 active torsions:
REMARK  status: ('A' for Active; 'I' for Inactive)
REMARK    1  A    between atoms: N_4  and  C_17 
REMARK    2  A    between atoms: C_5  and  C_7 
REMARK    3  A    between atoms: C_5  and  C_8 
ROOT
HETATM    1  O   UNK N   1      28.042  17.193   7.229  0.00  0.00    -0.272 OA
HETATM    2  O   UNK N   1      27.034  21.481   6.578  0.00  0.00    -0.273 OA
HETATM    3  N   UNK N   1      27.511  19.330   6.918  0.00  0.00    -0.297 N 
HETATM    4  C   UNK N   1      27.594  17.744   4.946  0.00  0.00     0.068 C 
HETATM    5  C   UNK N   1      26.990  18.939   4.184  0.00  0.00     0.033 C 
HETATM    6  C   UNK N   1      27.562  20.270   4.632  0.00  0.00     0.105 C 
HETATM    7  C   UNK N   1      27.736  18.074   6.442  0.00  0.00     0.237 C 
HETATM    8  C   UNK N   1      27.334  20.398   6.104  0.00  0.00     0.224 C 
HETATM    9  H   UNK N   1      27.476  19.466   7.892  0.00  0.00     0.171 HD
ENDROOT
BRANCH   4  10
HETATM   10  C   UNK N   1      26.539  16.631   4.759  0.00  0.00     0.020 C 
HETATM   11  C   UNK N   1      25.087  17.071   4.904  0.00  0.00     0.006 C 
ENDBRANCH   4  10
BRANCH   4  12
HETATM   12  C   UNK N   1      28.951  17.392   4.327  0.00  0.00    -0.040 A 
HETATM   13  C   UNK N   1      30.158  17.809   4.918  0.00  0.00     0.011 A 
HETATM   14  C   UNK N   1      31.389  17.424   4.380  0.00  0.00     0.029 A 
HETATM   15  C   UNK N   1      31.432  16.608   3.250  0.00  0.00     0.025 A 
HETATM   16  C   UNK N   1      30.244  16.194   2.643  0.00  0.00     0.029 A 
HETATM   17  C   UNK N   1      29.012  16.585   3.176  0.00  0.00     0.011 A 
BRANCH  15  18
HETATM   18  N   UNK N   1      32.674  16.194   2.728  0.00  0.00    -0.399 N 
HETATM   19  H   UNK N   1      32.819  16.112   1.758  0.00  0.00     0.156 HD
HETATM   20  H   UNK N   1      33.411  15.984   3.347  0.00  0.00     0.156 HD
ENDBRANCH  15  18
ENDBRANCH   4  12
TORSDOF 3
ENDMDL
