MODEL 1
REMARK VINA RESULT:      -7.5      0.000      0.000
REMARK  5 active torsions:
REMARK  status: ('A' for Active; 'I' for Inactive)
REMARK    1  A    between atoms: O_7  and  C_13 
REMARK    2  A    between atoms: C_11  and  C_13 
REMARK    3  A    between atoms: C_13  and  C_17 
REMARK    4  A    between atoms: C_21  and  C_26 
REMARK    5  A    between atoms: C_23  and  C_27 
ROOT
HETATM    1  N   UNK N   1      30.032  17.667   6.936  0.00  0.00    -0.351 N 
ATOM      2  HN  UNK N   1      29.071  17.731   6.597  1.00  0.00     0.166 HD
HETATM    3  C   UNK N   1      32.642  17.486   7.879  0.00  0.00    -0.013 A 
HETATM    4  C   UNK N   1      32.368  17.283   6.504  0.00  0.00     0.000 A 
HETATM    5  C   UNK N   1      31.582  17.780   8.737  0.00  0.00     0.045 A 
HETATM    6  C   UNK N   1      31.025  17.364   6.053  0.00  0.00     0.058 A 
HETATM    7  C   UNK N   1      30.281  17.885   8.252  0.00  0.00     0.117 A 
HETATM    8  C   UNK N   1      33.383  16.986   5.582  0.00  0.00     0.014 A 
HETATM    9  C   UNK N   1      30.714  17.106   4.700  0.00  0.00     0.075 A 
HETATM   10  C   UNK N   1      33.076  16.761   4.240  0.00  0.00     0.002 A 
HETATM   11  C   UNK N   1      31.751  16.808   3.804  0.00  0.00     0.018 A 
ENDROOT
BRANCH   3  12
HETATM   12  C   UNK N   1      34.008  17.347   8.514  0.00  0.00     0.174 C 
BRANCH  12  13
HETATM   13  O   UNK N   1      34.735  18.540   8.530  0.00  0.00    -0.389 OA
HETATM   14  H   UNK N   1      34.384  19.437   8.405  0.00  0.00     0.210 HD
ENDBRANCH  12  13
BRANCH  12  15
HETATM   15  C   UNK N   1      34.044  16.638   9.877  0.00  0.00     0.109 C 
HETATM   16  N   UNK N   1      33.346  15.343   9.877  0.00  0.00    -0.414 N 
HETATM   17  C   UNK N   1      33.970  14.309   9.028  0.00  0.00     0.114 C 
HETATM   18  H   UNK N   1      32.498  15.173  10.419  0.00  0.00     0.153 HD
HETATM   19  C   UNK N   1      35.420  14.606   8.635  0.00  0.00     0.019 C 
HETATM   20  C   UNK N   1      36.172  15.197   9.819  0.00  0.00     0.004 C 
HETATM   21  C   UNK N   1      35.493  16.464  10.361  0.00  0.00     0.028 C 
ENDBRANCH  12  15
ENDBRANCH   3  12
BRANCH   7  22
HETATM   22  C   UNK N   1      29.154  18.236   9.176  0.00  0.00     0.432 C 
HETATM   23  F   UNK N   1      28.513  17.098   9.639  0.00  0.00    -0.165 F 
HETATM   24  F   UNK N   1      29.652  18.937  10.258  0.00  0.00    -0.165 F 
HETATM   25  F   UNK N   1      28.237  19.024   8.507  0.00  0.00    -0.165 F 
ENDBRANCH   7  22
BRANCH   9  26
HETATM   26  C   UNK N   1      29.285  17.114   4.218  0.00  0.00     0.419 C 
HETATM   27  F   UNK N   1      29.258  16.820   2.865  0.00  0.00    -0.166 F 
HETATM   28  F   UNK N   1      28.697  18.353   4.407  0.00  0.00    -0.166 F 
HETATM   29  F   UNK N   1      28.550  16.164   4.902  0.00  0.00    -0.166 F 
ENDBRANCH   9  26
TORSDOF 5
ENDMDL
MODEL 2
REMARK VINA RESULT:      -7.4      3.211      6.375
REMARK  5 active torsions:
REMARK  status: ('A' for Active; 'I' for Inactive)
REMARK    1  A    between atoms: O_7  and  C_13 
REMARK    2  A    between atoms: C_11  and  C_13 
REMARK    3  A    between atoms: C_13  and  C_17 
REMARK    4  A    between atoms: C_21  and  C_26 
REMARK    5  A    between atoms: C_23  and  C_27 
ROOT
HETATM    1  N   UNK N   1      30.902  17.513   8.036  0.00  0.00    -0.351 N 
ATOM      2  HN  UNK N   1      31.563  17.484   8.814  1.00  0.00     0.166 HD
HETATM    3  C   UNK N   1      29.089  17.601   5.930  0.00  0.00    -0.013 A 
HETATM    4  C   UNK N   1      30.474  17.468   5.668  0.00  0.00     0.000 A 
HETATM    5  C   UNK N   1      28.662  17.681   7.255  0.00  0.00     0.045 A 
HETATM    6  C   UNK N   1      31.379  17.443   6.761  0.00  0.00     0.058 A 
HETATM    7  C   UNK N   1      29.576  17.618   8.304  0.00  0.00     0.117 A 
HETATM    8  C   UNK N   1      30.977  17.381   4.362  0.00  0.00     0.014 A 
HETATM    9  C   UNK N   1      32.770  17.373   6.530  0.00  0.00     0.075 A 
HETATM   10  C   UNK N   1      32.350  17.281   4.137  0.00  0.00     0.002 A 
HETATM   11  C   UNK N   1      33.241  17.290   5.212  0.00  0.00     0.018 A 
ENDROOT
BRANCH   3  12
HETATM   12  C   UNK N   1      28.021  17.727   4.865  0.00  0.00     0.174 C 
BRANCH  12  13
HETATM   13  O   UNK N   1      27.929  16.605   4.038  0.00  0.00    -0.389 OA
HETATM   14  H   UNK N   1      27.603  15.725   4.285  0.00  0.00     0.210 HD
ENDBRANCH  12  13
BRANCH  12  15
HETATM   15  C   UNK N   1      26.639  18.190   5.354  0.00  0.00     0.109 C 
HETATM   16  N   UNK N   1      26.650  19.547   5.925  0.00  0.00    -0.414 N 
HETATM   17  C   UNK N   1      26.958  20.618   4.957  0.00  0.00     0.114 C 
HETATM   18  H   UNK N   1      26.461  19.732   6.911  0.00  0.00     0.153 HD
HETATM   19  C   UNK N   1      26.804  20.207   3.490  0.00  0.00     0.019 C 
HETATM   20  C   UNK N   1      25.567  19.337   3.318  0.00  0.00     0.004 C 
HETATM   21  C   UNK N   1      25.602  18.096   4.222  0.00  0.00     0.028 C 
ENDBRANCH  12  15
ENDBRANCH   3  12
BRANCH   7  22
HETATM   22  C   UNK N   1      29.103  17.670   9.725  0.00  0.00     0.432 C 
HETATM   23  F   UNK N   1      29.523  16.556  10.433  0.00  0.00    -0.165 F 
HETATM   24  F   UNK N   1      29.610  18.803  10.334  0.00  0.00    -0.165 F 
HETATM   25  F   UNK N   1      27.722  17.721   9.749  0.00  0.00    -0.165 F 
ENDBRANCH   7  22
BRANCH   9  26
HETATM   26  C   UNK N   1      33.750  17.421   7.676  0.00  0.00     0.419 C 
HETATM   27  F   UNK N   1      34.988  16.982   7.236  0.00  0.00    -0.166 F 
HETATM   28  F   UNK N   1      33.344  16.607   8.719  0.00  0.00    -0.166 F 
HETATM   29  F   UNK N   1      33.869  18.717   8.143  0.00  0.00    -0.166 F 
ENDBRANCH   9  26
TORSDOF 5
ENDMDL
MODEL 3
REMARK VINA RESULT:      -7.2     12.588     15.721
REMARK  5 active torsions:
REMARK  status: ('A' for Active; 'I' for Inactive)
REMARK    1  A    between atoms: O_7  and  C_13 
REMARK    2  A    between atoms: C_11  and  C_13 
REMARK    3  A    between atoms: C_13  and  C_17 
REMARK    4  A    between atoms: C_21  and  C_26 
REMARK    5  A    between atoms: C_23  and  C_27 
ROOT
HETATM    1  N   UNK N   1      29.677  22.029  -5.420  0.00  0.00    -0.351 N 
ATOM      2  HN  UNK N   1      30.350  21.314  -5.699  1.00  0.00     0.166 HD
HETATM    3  C   UNK N   1      27.859  23.987  -4.649  0.00  0.00    -0.013 A 
HETATM    4  C   UNK N   1      27.660  23.268  -5.853  0.00  0.00     0.000 A 
HETATM    5  C   UNK N   1      28.974  23.687  -3.866  0.00  0.00     0.045 A 
HETATM    6  C   UNK N   1      28.613  22.287  -6.231  0.00  0.00     0.058 A 
HETATM    7  C   UNK N   1      29.870  22.693  -4.252  0.00  0.00     0.117 A 
HETATM    8  C   UNK N   1      26.561  23.513  -6.690  0.00  0.00     0.014 A 
HETATM    9  C   UNK N   1      28.474  21.598  -7.455  0.00  0.00     0.075 A 
HETATM   10  C   UNK N   1      26.411  22.809  -7.884  0.00  0.00     0.002 A 
HETATM   11  C   UNK N   1      27.366  21.868  -8.271  0.00  0.00     0.018 A 
ENDROOT
BRANCH   3  12
HETATM   12  C   UNK N   1      26.975  25.116  -4.165  0.00  0.00     0.174 C 
BRANCH  12  13
HETATM   13  O   UNK N   1      26.449  24.898  -2.889  0.00  0.00    -0.389 OA
HETATM   14  H   UNK N   1      26.513  24.084  -2.364  0.00  0.00     0.210 HD
ENDBRANCH  12  13
BRANCH  12  15
HETATM   15  C   UNK N   1      27.557  26.531  -4.308  0.00  0.00     0.109 C 
HETATM   16  N   UNK N   1      27.650  26.981  -5.707  0.00  0.00    -0.414 N 
HETATM   17  C   UNK N   1      26.349  27.163  -6.380  0.00  0.00     0.114 C 
HETATM   18  H   UNK N   1      28.541  27.153  -6.173  0.00  0.00     0.153 HD
HETATM   19  C   UNK N   1      25.154  27.261  -5.428  0.00  0.00     0.019 C 
HETATM   20  C   UNK N   1      25.522  28.097  -4.211  0.00  0.00     0.004 C 
HETATM   21  C   UNK N   1      26.749  27.539  -3.475  0.00  0.00     0.028 C 
ENDBRANCH  12  15
ENDBRANCH   3  12
BRANCH   7  22
HETATM   22  C   UNK N   1      31.046  22.356  -3.387  0.00  0.00     0.432 C 
HETATM   23  F   UNK N   1      32.228  22.808  -3.950  0.00  0.00    -0.165 F 
HETATM   24  F   UNK N   1      30.887  22.950  -2.149  0.00  0.00    -0.165 F 
HETATM   25  F   UNK N   1      31.122  20.985  -3.227  0.00  0.00    -0.165 F 
ENDBRANCH   7  22
BRANCH   9  26
HETATM   26  C   UNK N   1      29.516  20.606  -7.910  0.00  0.00     0.419 C 
HETATM   27  F   UNK N   1      29.125  20.054  -9.118  0.00  0.00    -0.166 F 
HETATM   28  F   UNK N   1      29.667  19.580  -6.992  0.00  0.00    -0.166 F 
HETATM   29  F   UNK N   1      30.733  21.239  -8.073  0.00  0.00    -0.166 F 
ENDBRANCH   9  26
TORSDOF 5
ENDMDL
MODEL 4
REMARK VINA RESULT:      -7.1      8.122     10.750
REMARK  5 active torsions:
REMARK  status: ('A' for Active; 'I' for Inactive)
REMARK    1  A    between atoms: O_7  and  C_13 
REMARK    2  A    between atoms: C_11  and  C_13 
REMARK    3  A    between atoms: C_13  and  C_17 
REMARK    4  A    between atoms: C_21  and  C_26 
REMARK    5  A    between atoms: C_23  and  C_27 
ROOT
HETATM    1  N   UNK N   1      36.092  13.484  16.316  0.00  0.00    -0.351 N 
ATOM      2  HN  UNK N   1      36.276  13.433  17.319  1.00  0.00     0.166 HD
HETATM    3  C   UNK N   1      35.610  13.635  13.582  0.00  0.00    -0.013 A 
HETATM    4  C   UNK N   1      35.127  12.532  14.328  0.00  0.00     0.000 A 
HETATM    5  C   UNK N   1      36.321  14.634  14.247  0.00  0.00     0.045 A 
HETATM    6  C   UNK N   1      35.403  12.471  15.718  0.00  0.00     0.058 A 
HETATM    7  C   UNK N   1      36.542  14.558  15.619  0.00  0.00     0.117 A 
HETATM    8  C   UNK N   1      34.404  11.490  13.728  0.00  0.00     0.014 A 
HETATM    9  C   UNK N   1      34.988  11.355  16.476  0.00  0.00     0.075 A 
HETATM   10  C   UNK N   1      33.969  10.403  14.485  0.00  0.00     0.002 A 
HETATM   11  C   UNK N   1      34.269  10.329  15.846  0.00  0.00     0.018 A 
ENDROOT
BRANCH   3  12
HETATM   12  C   UNK N   1      35.466  13.789  12.083  0.00  0.00     0.174 C 
BRANCH  12  13
HETATM   13  O   UNK N   1      34.276  14.414  11.703  0.00  0.00    -0.389 OA
HETATM   14  H   UNK N   1      34.089  15.367  11.716  0.00  0.00     0.210 HD
ENDBRANCH  12  13
BRANCH  12  15
HETATM   15  C   UNK N   1      36.680  14.381  11.351  0.00  0.00     0.109 C 
HETATM   16  N   UNK N   1      37.835  13.469  11.311  0.00  0.00    -0.414 N 
HETATM   17  C   UNK N   1      37.622  12.244  10.516  0.00  0.00     0.114 C 
HETATM   18  H   UNK N   1      38.712  13.667  11.794  0.00  0.00     0.153 HD
HETATM   19  C   UNK N   1      36.434  12.315   9.552  0.00  0.00     0.019 C 
HETATM   20  C   UNK N   1      36.376  13.686   8.895  0.00  0.00     0.004 C 
HETATM   21  C   UNK N   1      36.297  14.820   9.928  0.00  0.00     0.028 C 
ENDBRANCH  12  15
ENDBRANCH   3  12
BRANCH   7  22
HETATM   22  C   UNK N   1      37.277  15.654  16.330  0.00  0.00     0.432 C 
HETATM   23  F   UNK N   1      37.887  16.513  15.430  0.00  0.00    -0.165 F 
HETATM   24  F   UNK N   1      36.386  16.376  17.101  0.00  0.00    -0.165 F 
HETATM   25  F   UNK N   1      38.245  15.104  17.149  0.00  0.00    -0.165 F 
ENDBRANCH   7  22
BRANCH   9  26
HETATM   26  C   UNK N   1      35.337  11.238  17.939  0.00  0.00     0.419 C 
HETATM   27  F   UNK N   1      34.516  10.291  18.530  0.00  0.00    -0.166 F 
HETATM   28  F   UNK N   1      35.156  12.442  18.597  0.00  0.00    -0.166 F 
HETATM   29  F   UNK N   1      36.655  10.846  18.082  0.00  0.00    -0.166 F 
ENDBRANCH   9  26
TORSDOF 5
ENDMDL
MODEL 5
REMARK VINA RESULT:      -7.1     14.353     16.332
REMARK  5 active torsions:
REMARK  status: ('A' for Active; 'I' for Inactive)
REMARK    1  A    between atoms: O_7  and  C_13 
REMARK    2  A    between atoms: C_11  and  C_13 
REMARK    3  A    between atoms: C_13  and  C_17 
REMARK    4  A    between atoms: C_21  and  C_26 
REMARK    5  A    between atoms: C_23  and  C_27 
ROOT
HETATM    1  N   UNK N   1      27.611  22.027  -7.160  0.00  0.00    -0.351 N 
ATOM      2  HN  UNK N   1      27.807  21.325  -7.874  1.00  0.00     0.166 HD
HETATM    3  C   UNK N   1      27.057  23.935  -5.214  0.00  0.00    -0.013 A 
HETATM    4  C   UNK N   1      28.342  23.343  -5.283  0.00  0.00     0.000 A 
HETATM    5  C   UNK N   1      26.089  23.543  -6.139  0.00  0.00     0.045 A 
HETATM    6  C   UNK N   1      28.593  22.360  -6.274  0.00  0.00     0.058 A 
HETATM    7  C   UNK N   1      26.381  22.600  -7.121  0.00  0.00     0.117 A 
HETATM    8  C   UNK N   1      29.365  23.688  -4.387  0.00  0.00     0.014 A 
HETATM    9  C   UNK N   1      29.844  21.710  -6.328  0.00  0.00     0.075 A 
HETATM   10  C   UNK N   1      30.611  23.065  -4.462  0.00  0.00     0.002 A 
HETATM   11  C   UNK N   1      30.845  22.074  -5.417  0.00  0.00     0.018 A 
ENDROOT
BRANCH   3  12
HETATM   12  C   UNK N   1      26.623  24.930  -4.160  0.00  0.00     0.174 C 
BRANCH  12  13
HETATM   13  O   UNK N   1      26.554  24.381  -2.877  0.00  0.00    -0.389 OA
HETATM   14  H   UNK N   1      26.540  24.867  -2.036  0.00  0.00     0.210 HD
ENDBRANCH  12  13
BRANCH  12  15
HETATM   15  C   UNK N   1      27.362  26.277  -4.165  0.00  0.00     0.109 C 
HETATM   16  N   UNK N   1      27.546  26.832  -5.516  0.00  0.00    -0.414 N 
HETATM   17  C   UNK N   1      26.296  27.217  -6.198  0.00  0.00     0.114 C 
HETATM   18  H   UNK N   1      28.465  26.941  -5.947  0.00  0.00     0.153 HD
HETATM   19  C   UNK N   1      25.090  27.368  -5.266  0.00  0.00     0.019 C 
HETATM   20  C   UNK N   1      25.511  28.050  -3.972  0.00  0.00     0.004 C 
HETATM   21  C   UNK N   1      26.645  27.295  -3.263  0.00  0.00     0.028 C 
ENDBRANCH  12  15
ENDBRANCH   3  12
BRANCH   7  22
HETATM   22  C   UNK N   1      25.345  22.212  -8.132  0.00  0.00     0.432 C 
HETATM   23  F   UNK N   1      25.908  21.499  -9.177  0.00  0.00    -0.165 F 
HETATM   24  F   UNK N   1      24.385  21.426  -7.522  0.00  0.00    -0.165 F 
HETATM   25  F   UNK N   1      24.747  23.350  -8.637  0.00  0.00    -0.165 F 
ENDBRANCH   7  22
BRANCH   9  26
HETATM   26  C   UNK N   1      30.103  20.608  -7.327  0.00  0.00     0.419 C 
HETATM   27  F   UNK N   1      31.369  20.087  -7.114  0.00  0.00    -0.166 F 
HETATM   28  F   UNK N   1      30.041  21.084  -8.626  0.00  0.00    -0.166 F 
HETATM   29  F   UNK N   1      29.168  19.602  -7.176  0.00  0.00    -0.166 F 
ENDBRANCH   9  26
TORSDOF 5
ENDMDL
MODEL 6
REMARK VINA RESULT:      -6.8     12.065     14.422
REMARK  5 active torsions:
REMARK  status: ('A' for Active; 'I' for Inactive)
REMARK    1  A    between atoms: O_7  and  C_13 
REMARK    2  A    between atoms: C_11  and  C_13 
REMARK    3  A    between atoms: C_13  and  C_17 
REMARK    4  A    between atoms: C_21  and  C_26 
REMARK    5  A    between atoms: C_23  and  C_27 
ROOT
HETATM    1  N   UNK N   1      27.044  23.382  -5.944  0.00  0.00    -0.351 N 
ATOM      2  HN  UNK N   1      26.083  23.620  -6.190  1.00  0.00     0.166 HD
HETATM    3  C   UNK N   1      29.661  22.740  -5.254  0.00  0.00    -0.013 A 
HETATM    4  C   UNK N   1      29.039  22.099  -6.353  0.00  0.00     0.000 A 
HETATM    5  C   UNK N   1      28.937  23.694  -4.538  0.00  0.00     0.045 A 
HETATM    6  C   UNK N   1      27.697  22.433  -6.673  0.00  0.00     0.058 A 
HETATM    7  C   UNK N   1      27.634  24.021  -4.902  0.00  0.00     0.117 A 
HETATM    8  C   UNK N   1      29.704  21.131  -7.121  0.00  0.00     0.014 A 
HETATM    9  C   UNK N   1      27.031  21.767  -7.724  0.00  0.00     0.075 A 
HETATM   10  C   UNK N   1      29.053  20.496  -8.178  0.00  0.00     0.002 A 
HETATM   11  C   UNK N   1      27.723  20.801  -8.470  0.00  0.00     0.018 A 
ENDROOT
BRANCH   3  12
HETATM   12  C   UNK N   1      31.051  22.423  -4.748  0.00  0.00     0.174 C 
BRANCH  12  13
HETATM   13  O   UNK N   1      31.820  23.562  -4.494  0.00  0.00    -0.389 OA
HETATM   14  H   UNK N   1      32.482  23.960  -5.083  0.00  0.00     0.210 HD
ENDBRANCH  12  13
BRANCH  12  15
HETATM   15  C   UNK N   1      31.129  21.414  -3.592  0.00  0.00     0.109 C 
HETATM   16  N   UNK N   1      31.073  20.013  -4.040  0.00  0.00    -0.414 N 
HETATM   17  C   UNK N   1      32.230  19.579  -4.846  0.00  0.00     0.114 C 
HETATM   18  H   UNK N   1      30.295  19.392  -3.813  0.00  0.00     0.153 HD
HETATM   19  C   UNK N   1      33.456  20.491  -4.732  0.00  0.00     0.019 C 
HETATM   20  C   UNK N   1      33.638  20.944  -3.291  0.00  0.00     0.004 C 
HETATM   21  C   UNK N   1      32.390  21.652  -2.745  0.00  0.00     0.028 C 
ENDBRANCH  12  15
ENDBRANCH   3  12
BRANCH   7  22
HETATM   22  C   UNK N   1      26.878  25.072  -4.147  0.00  0.00     0.432 C 
HETATM   23  F   UNK N   1      27.559  26.279  -4.151  0.00  0.00    -0.165 F 
HETATM   24  F   UNK N   1      25.641  25.257  -4.736  0.00  0.00    -0.165 F 
HETATM   25  F   UNK N   1      26.702  24.663  -2.839  0.00  0.00    -0.165 F 
ENDBRANCH   7  22
BRANCH   9  26
HETATM   26  C   UNK N   1      25.582  22.054  -8.029  0.00  0.00     0.419 C 
HETATM   27  F   UNK N   1      25.184  21.293  -9.115  0.00  0.00    -0.166 F 
HETATM   28  F   UNK N   1      25.389  23.390  -8.340  0.00  0.00    -0.166 F 
HETATM   29  F   UNK N   1      24.795  21.733  -6.939  0.00  0.00    -0.166 F 
ENDBRANCH   9  26
TORSDOF 5
ENDMDL
MODEL 7
REMARK VINA RESULT:      -6.7     12.872     15.991
REMARK  5 active torsions:
REMARK  status: ('A' for Active; 'I' for Inactive)
REMARK    1  A    between atoms: O_7  and  C_13 
REMARK    2  A    between atoms: C_11  and  C_13 
REMARK    3  A    between atoms: C_13  and  C_17 
REMARK    4  A    between atoms: C_21  and  C_26 
REMARK    5  A    between atoms: C_23  and  C_27 
ROOT
HETATM    1  N   UNK N   1      29.566  21.672  -6.028  0.00  0.00    -0.351 N 
ATOM      2  HN  UNK N   1      30.039  20.772  -5.935  1.00  0.00     0.166 HD
HETATM    3  C   UNK N   1      28.262  24.114  -6.289  0.00  0.00    -0.013 A 
HETATM    4  C   UNK N   1      29.260  23.945  -5.299  0.00  0.00     0.000 A 
HETATM    5  C   UNK N   1      27.956  23.039  -7.123  0.00  0.00     0.045 A 
HETATM    6  C   UNK N   1      29.897  22.683  -5.176  0.00  0.00     0.058 A 
HETATM    7  C   UNK N   1      28.627  21.825  -6.996  0.00  0.00     0.117 A 
HETATM    8  C   UNK N   1      29.621  24.982  -4.425  0.00  0.00     0.014 A 
HETATM    9  C   UNK N   1      30.852  22.467  -4.159  0.00  0.00     0.075 A 
HETATM   10  C   UNK N   1      30.587  24.774  -3.441  0.00  0.00     0.002 A 
HETATM   11  C   UNK N   1      31.189  23.522  -3.300  0.00  0.00     0.018 A 
ENDROOT
BRANCH   3  12
HETATM   12  C   UNK N   1      27.442  25.372  -6.478  0.00  0.00     0.174 C 
BRANCH  12  13
HETATM   13  O   UNK N   1      27.545  25.912  -7.762  0.00  0.00    -0.389 OA
HETATM   14  H   UNK N   1      27.757  26.831  -7.992  0.00  0.00     0.210 HD
ENDBRANCH  12  13
BRANCH  12  15
HETATM   15  C   UNK N   1      25.981  25.297  -6.006  0.00  0.00     0.109 C 
HETATM   16  N   UNK N   1      25.846  24.893  -4.597  0.00  0.00    -0.414 N 
HETATM   17  C   UNK N   1      26.385  25.865  -3.626  0.00  0.00     0.114 C 
HETATM   18  H   UNK N   1      25.415  24.012  -4.314  0.00  0.00     0.153 HD
HETATM   19  C   UNK N   1      26.604  27.270  -4.195  0.00  0.00     0.019 C 
HETATM   20  C   UNK N   1      25.451  27.648  -5.113  0.00  0.00     0.004 C 
HETATM   21  C   UNK N   1      25.261  26.633  -6.250  0.00  0.00     0.028 C 
ENDBRANCH  12  15
ENDBRANCH   3  12
BRANCH   7  22
HETATM   22  C   UNK N   1      28.315  20.687  -7.920  0.00  0.00     0.432 C 
HETATM   23  F   UNK N   1      26.948  20.514  -8.059  0.00  0.00    -0.165 F 
HETATM   24  F   UNK N   1      28.860  20.947  -9.163  0.00  0.00    -0.165 F 
HETATM   25  F   UNK N   1      28.865  19.523  -7.417  0.00  0.00    -0.165 F 
ENDBRANCH   7  22
BRANCH   9  26
HETATM   26  C   UNK N   1      31.485  21.111  -3.966  0.00  0.00     0.419 C 
HETATM   27  F   UNK N   1      32.424  21.186  -2.951  0.00  0.00    -0.166 F 
HETATM   28  F   UNK N   1      32.122  20.684  -5.119  0.00  0.00    -0.166 F 
HETATM   29  F   UNK N   1      30.520  20.183  -3.622  0.00  0.00    -0.166 F 
ENDBRANCH   9  26
TORSDOF 5
ENDMDL
MODEL 8
REMARK VINA RESULT:      -6.6     14.721     17.254
REMARK  5 active torsions:
REMARK  status: ('A' for Active; 'I' for Inactive)
REMARK    1  A    between atoms: O_7  and  C_13 
REMARK    2  A    between atoms: C_11  and  C_13 
REMARK    3  A    between atoms: C_13  and  C_17 
REMARK    4  A    between atoms: C_21  and  C_26 
REMARK    5  A    between atoms: C_23  and  C_27 
ROOT
HETATM    1  N   UNK N   1      26.012  25.916  -7.381  0.00  0.00    -0.351 N 
ATOM      2  HN  UNK N   1      25.534  26.814  -7.459  1.00  0.00     0.166 HD
HETATM    3  C   UNK N   1      27.322  23.470  -7.188  0.00  0.00    -0.013 A 
HETATM    4  C   UNK N   1      26.975  24.184  -6.015  0.00  0.00     0.000 A 
HETATM    5  C   UNK N   1      26.988  24.016  -8.428  0.00  0.00     0.045 A 
HETATM    6  C   UNK N   1      26.323  25.438  -6.142  0.00  0.00     0.058 A 
HETATM    7  C   UNK N   1      26.317  25.233  -8.513  0.00  0.00     0.117 A 
HETATM    8  C   UNK N   1      27.277  23.697  -4.734  0.00  0.00     0.014 A 
HETATM    9  C   UNK N   1      26.021  26.201  -4.994  0.00  0.00     0.075 A 
HETATM   10  C   UNK N   1      26.949  24.440  -3.600  0.00  0.00     0.002 A 
HETATM   11  C   UNK N   1      26.338  25.688  -3.728  0.00  0.00     0.018 A 
ENDROOT
BRANCH   3  12
HETATM   12  C   UNK N   1      28.092  22.168  -7.206  0.00  0.00     0.174 C 
BRANCH  12  13
HETATM   13  O   UNK N   1      27.413  21.133  -7.854  0.00  0.00    -0.389 OA
HETATM   14  H   UNK N   1      27.750  20.241  -8.037  0.00  0.00     0.210 HD
ENDBRANCH  12  13
BRANCH  12  15
HETATM   15  C   UNK N   1      29.557  22.262  -7.663  0.00  0.00     0.109 C 
HETATM   16  N   UNK N   1      30.382  23.112  -6.790  0.00  0.00    -0.414 N 
HETATM   17  C   UNK N   1      30.567  22.591  -5.422  0.00  0.00     0.114 C 
HETATM   18  H   UNK N   1      30.793  23.992  -7.105  0.00  0.00     0.153 HD
HETATM   19  C   UNK N   1      30.239  21.104  -5.263  0.00  0.00     0.019 C 
HETATM   20  C   UNK N   1      30.749  20.325  -6.466  0.00  0.00     0.004 C 
HETATM   21  C   UNK N   1      30.179  20.862  -7.788  0.00  0.00     0.028 C 
ENDBRANCH  12  15
ENDBRANCH   3  12
BRANCH   7  22
HETATM   22  C   UNK N   1      25.933  25.794  -9.849  0.00  0.00     0.432 C 
HETATM   23  F   UNK N   1      25.696  24.784 -10.767  0.00  0.00    -0.165 F 
HETATM   24  F   UNK N   1      24.784  26.550  -9.713  0.00  0.00    -0.165 F 
HETATM   25  F   UNK N   1      26.953  26.597 -10.322  0.00  0.00    -0.165 F 
ENDBRANCH   7  22
BRANCH   9  26
HETATM   26  C   UNK N   1      25.396  27.569  -5.114  0.00  0.00     0.419 C 
HETATM   27  F   UNK N   1      25.196  28.092  -3.848  0.00  0.00    -0.166 F 
HETATM   28  F   UNK N   1      24.172  27.507  -5.758  0.00  0.00    -0.166 F 
HETATM   29  F   UNK N   1      26.231  28.410  -5.826  0.00  0.00    -0.166 F 
ENDBRANCH   9  26
TORSDOF 5
ENDMDL
MODEL 9
REMARK VINA RESULT:      -6.6     13.177     14.899
REMARK  5 active torsions:
REMARK  status: ('A' for Active; 'I' for Inactive)
REMARK    1  A    between atoms: O_7  and  C_13 
REMARK    2  A    between atoms: C_11  and  C_13 
REMARK    3  A    between atoms: C_13  and  C_17 
REMARK    4  A    between atoms: C_21  and  C_26 
REMARK    5  A    between atoms: C_23  and  C_27 
ROOT
HETATM    1  N   UNK N   1      29.183  27.437  -3.967  0.00  0.00    -0.351 N 
ATOM      2  HN  UNK N   1      28.844  28.384  -4.144  1.00  0.00     0.166 HD
HETATM    3  C   UNK N   1      30.121  24.866  -3.475  0.00  0.00    -0.013 A 
HETATM    4  C   UNK N   1      28.752  25.078  -3.768  0.00  0.00     0.000 A 
HETATM    5  C   UNK N   1      30.978  25.966  -3.445  0.00  0.00     0.045 A 
HETATM    6  C   UNK N   1      28.296  26.402  -3.998  0.00  0.00     0.058 A 
HETATM    7  C   UNK N   1      30.502  27.247  -3.710  0.00  0.00     0.117 A 
HETATM    8  C   UNK N   1      27.832  24.020  -3.818  0.00  0.00     0.014 A 
HETATM    9  C   UNK N   1      26.927  26.651  -4.232  0.00  0.00     0.075 A 
HETATM   10  C   UNK N   1      26.484  24.266  -4.079  0.00  0.00     0.002 A 
HETATM   11  C   UNK N   1      26.032  25.572  -4.272  0.00  0.00     0.018 A 
ENDROOT
BRANCH   3  12
HETATM   12  C   UNK N   1      30.729  23.525  -3.126  0.00  0.00     0.174 C 
BRANCH  12  13
HETATM   13  O   UNK N   1      30.518  23.151  -1.796  0.00  0.00    -0.389 OA
HETATM   14  H   UNK N   1      30.478  23.741  -1.026  0.00  0.00     0.210 HD
ENDBRANCH  12  13
BRANCH  12  15
HETATM   15  C   UNK N   1      30.417  22.374  -4.097  0.00  0.00     0.109 C 
HETATM   16  N   UNK N   1      30.882  22.632  -5.470  0.00  0.00    -0.414 N 
HETATM   17  C   UNK N   1      32.348  22.710  -5.617  0.00  0.00     0.114 C 
HETATM   18  H   UNK N   1      30.242  22.749  -6.256  0.00  0.00     0.153 HD
HETATM   19  C   UNK N   1      33.133  22.111  -4.446  0.00  0.00     0.019 C 
HETATM   20  C   UNK N   1      32.467  20.828  -3.972  0.00  0.00     0.004 C 
HETATM   21  C   UNK N   1      30.999  21.050  -3.576  0.00  0.00     0.028 C 
ENDBRANCH  12  15
ENDBRANCH   3  12
BRANCH   7  22
HETATM   22  C   UNK N   1      31.438  28.418  -3.708  0.00  0.00     0.432 C 
HETATM   23  F   UNK N   1      32.622  28.114  -4.359  0.00  0.00    -0.165 F 
HETATM   24  F   UNK N   1      30.837  29.483  -4.353  0.00  0.00    -0.165 F 
HETATM   25  F   UNK N   1      31.723  28.779  -2.405  0.00  0.00    -0.165 F 
ENDBRANCH   7  22
BRANCH   9  26
HETATM   26  C   UNK N   1      26.413  28.059  -4.404  0.00  0.00     0.419 C 
HETATM   27  F   UNK N   1      27.010  28.631  -5.515  0.00  0.00    -0.166 F 
HETATM   28  F   UNK N   1      26.709  28.840  -3.300  0.00  0.00    -0.166 F 
HETATM   29  F   UNK N   1      25.042  28.044  -4.583  0.00  0.00    -0.166 F 
ENDBRANCH   9  26
TORSDOF 5
ENDMDL
