REMARK  3 active torsions:
REMARK  status: ('A' for Active; 'I' for Inactive)
REMARK    1  A    between atoms: S_1  and  N_4 
REMARK    2  A    between atoms: S_1  and  C_10 
REMARK       I    between atoms: N_4  and  C_16 
REMARK    3  A    between atoms: N_5  and  C_13 
ROOT
HETATM    1  S   UNK N   1       1.275   0.956   0.384  0.00  0.00     0.276 S 
HETATM    2  O   UNK N   1      -0.256   1.012   0.289  0.00  0.00    -0.200 OA
HETATM    3  O   UNK N   1       1.348   0.910  -1.150  0.00  0.00    -0.200 OA
ENDROOT
BRANCH   1   4
HETATM    4  N   UNK N   1       1.822   2.617   0.196  0.00  0.00    -0.112 N 
HETATM    5  C   UNK N   1       3.164   3.062   0.241  0.00  0.00     0.691 A 
HETATM    6  N   UNK N   1       3.432   4.362  -0.054  0.00  0.00    -0.201 N 
HETATM    7  N   UNK N   1       4.174   2.212   0.562  0.00  0.00    -0.201 N 
HETATM    8  C   UNK N   1       4.705   4.835  -0.037  0.00  0.00     0.107 A 
ATOM      9  HN  UNK N   1       2.665   4.991  -0.292  1.00  0.00     0.183 HD
HETATM   10  C   UNK N   1       5.754   3.982   0.291  0.00  0.00     0.035 A 
HETATM   11  C   UNK N   1       5.462   2.653   0.594  0.00  0.00     0.107 A 
ATOM     12  HN  UNK N   1       3.966   1.237   0.779  1.00  0.00     0.183 HD
HETATM   13  H   UNK N   1       1.129   3.301   0.046  0.00  0.00     0.197 HD
ENDBRANCH   1   4
BRANCH   1  14
HETATM   14  C   UNK N   1       1.902  -0.730   0.261  0.00  0.00     0.080 A 
HETATM   15  C   UNK N   1       1.076  -1.718  -0.301  0.00  0.00     0.027 A 
HETATM   16  C   UNK N   1       1.512  -3.038  -0.400  0.00  0.00     0.030 A 
HETATM   17  C   UNK N   1       2.775  -3.389   0.073  0.00  0.00     0.025 A 
HETATM   18  C   UNK N   1       3.601  -2.416   0.652  0.00  0.00     0.030 A 
HETATM   19  C   UNK N   1       3.165  -1.086   0.750  0.00  0.00     0.027 A 
BRANCH  17  20
HETATM   20  N   UNK N   1       3.216  -4.723  -0.033  0.00  0.00    -0.399 N 
HETATM   21  H   UNK N   1       2.563  -5.456  -0.108  0.00  0.00     0.156 HD
HETATM   22  H   UNK N   1       4.180  -4.923  -0.033  0.00  0.00     0.156 HD
ENDBRANCH  17  20
ENDBRANCH   1  14
TORSDOF 3
