MODEL 1
REMARK VINA RESULT:      -6.3      0.000      0.000
REMARK  3 active torsions:
REMARK  status: ('A' for Active; 'I' for Inactive)
REMARK    1  A    between atoms: S_1  and  N_4 
REMARK    2  A    between atoms: S_1  and  C_10 
REMARK       I    between atoms: N_4  and  C_16 
REMARK    3  A    between atoms: N_5  and  C_13 
ROOT
HETATM    1  S   UNK N   1      35.832  12.861  14.506  0.00  0.00     0.276 S 
HETATM    2  O   UNK N   1      34.529  12.648  13.723  0.00  0.00    -0.200 OA
HETATM    3  O   UNK N   1      35.980  11.337  14.633  0.00  0.00    -0.200 OA
ENDROOT
BRANCH   1   4
HETATM    4  N   UNK N   1      37.124  12.723  13.320  0.00  0.00    -0.112 N 
HETATM    5  C   UNK N   1      37.098  13.226  11.998  0.00  0.00     0.691 A 
HETATM    6  N   UNK N   1      38.230  13.152  11.249  0.00  0.00    -0.201 N 
HETATM    7  N   UNK N   1      35.972  13.782  11.482  0.00  0.00    -0.201 N 
HETATM    8  C   UNK N   1      38.260  13.632   9.978  0.00  0.00     0.107 A 
ATOM      9  HN  UNK N   1      39.069  12.730  11.647  1.00  0.00     0.183 HD
HETATM   10  C   UNK N   1      37.117  14.204   9.429  0.00  0.00     0.035 A 
HETATM   11  C   UNK N   1      35.964  14.269  10.210  0.00  0.00     0.107 A 
ATOM     12  HN  UNK N   1      35.127  13.838  12.051  1.00  0.00     0.183 HD
HETATM   13  H   UNK N   1      37.941  12.252  13.604  0.00  0.00     0.197 HD
ENDBRANCH   1   4
BRANCH   1  14
HETATM   14  C   UNK N   1      35.575  12.779  16.289  0.00  0.00     0.080 A 
HETATM   15  C   UNK N   1      35.438  13.979  17.007  0.00  0.00     0.027 A 
HETATM   16  C   UNK N   1      35.256  13.965  18.388  0.00  0.00     0.030 A 
HETATM   17  C   UNK N   1      35.220  12.751  19.071  0.00  0.00     0.025 A 
HETATM   18  C   UNK N   1      35.372  11.548  18.368  0.00  0.00     0.030 A 
HETATM   19  C   UNK N   1      35.553  11.560  16.977  0.00  0.00     0.027 A 
BRANCH  17  20
HETATM   20  N   UNK N   1      35.030  12.738  20.467  0.00  0.00    -0.399 N 
HETATM   21  H   UNK N   1      35.764  12.469  21.064  0.00  0.00     0.156 HD
HETATM   22  H   UNK N   1      34.160  13.000  20.847  0.00  0.00     0.156 HD
ENDBRANCH  17  20
ENDBRANCH   1  14
TORSDOF 3
ENDMDL
MODEL 2
REMARK VINA RESULT:      -6.2      1.642      1.683
REMARK  3 active torsions:
REMARK  status: ('A' for Active; 'I' for Inactive)
REMARK    1  A    between atoms: S_1  and  N_4 
REMARK    2  A    between atoms: S_1  and  C_10 
REMARK       I    between atoms: N_4  and  C_16 
REMARK    3  A    between atoms: N_5  and  C_13 
ROOT
HETATM    1  S   UNK N   1      35.412  13.029  14.747  0.00  0.00     0.276 S 
HETATM    2  O   UNK N   1      34.833  11.943  13.829  0.00  0.00    -0.200 OA
HETATM    3  O   UNK N   1      36.762  12.296  14.728  0.00  0.00    -0.200 OA
ENDROOT
BRANCH   1   4
HETATM    4  N   UNK N   1      36.207  14.178  13.679  0.00  0.00    -0.112 N 
HETATM    5  C   UNK N   1      35.728  14.615  12.422  0.00  0.00     0.691 A 
HETATM    6  N   UNK N   1      36.396  15.608  11.777  0.00  0.00    -0.201 N 
HETATM    7  N   UNK N   1      34.617  14.065  11.865  0.00  0.00    -0.201 N 
HETATM    8  C   UNK N   1      35.969  16.071  10.574  0.00  0.00     0.107 A 
ATOM      9  HN  UNK N   1      37.230  16.012  12.204  1.00  0.00     0.183 HD
HETATM   10  C   UNK N   1      34.835  15.521   9.985  0.00  0.00     0.035 A 
HETATM   11  C   UNK N   1      34.163  14.501  10.657  0.00  0.00     0.107 A 
ATOM     12  HN  UNK N   1      34.119  13.323  12.356  1.00  0.00     0.183 HD
HETATM   13  H   UNK N   1      37.065  14.552  13.985  0.00  0.00     0.197 HD
ENDBRANCH   1   4
BRANCH   1  14
HETATM   14  C   UNK N   1      35.398  12.531  16.480  0.00  0.00     0.080 A 
HETATM   15  C   UNK N   1      35.159  13.508  17.461  0.00  0.00     0.027 A 
HETATM   16  C   UNK N   1      35.156  13.172  18.814  0.00  0.00     0.030 A 
HETATM   17  C   UNK N   1      35.405  11.857  19.203  0.00  0.00     0.025 A 
HETATM   18  C   UNK N   1      35.663  10.877  18.235  0.00  0.00     0.030 A 
HETATM   19  C   UNK N   1      35.663  11.213  16.872  0.00  0.00     0.027 A 
BRANCH  17  20
HETATM   20  N   UNK N   1      35.397  11.519  20.571  0.00  0.00    -0.399 N 
HETATM   21  H   UNK N   1      36.138  10.997  20.956  0.00  0.00     0.156 HD
HETATM   22  H   UNK N   1      34.649  11.806  21.143  0.00  0.00     0.156 HD
ENDBRANCH  17  20
ENDBRANCH   1  14
TORSDOF 3
ENDMDL
MODEL 3
REMARK VINA RESULT:      -6.1      5.997     10.069
REMARK  3 active torsions:
REMARK  status: ('A' for Active; 'I' for Inactive)
REMARK    1  A    between atoms: S_1  and  N_4 
REMARK    2  A    between atoms: S_1  and  C_10 
REMARK       I    between atoms: N_4  and  C_16 
REMARK    3  A    between atoms: N_5  and  C_13 
ROOT
HETATM    1  S   UNK N   1      33.925  17.868   8.415  0.00  0.00     0.276 S 
HETATM    2  O   UNK N   1      34.865  19.070   8.249  0.00  0.00    -0.200 OA
HETATM    3  O   UNK N   1      34.962  16.984   7.705  0.00  0.00    -0.200 OA
ENDROOT
BRANCH   1   4
HETATM    4  N   UNK N   1      34.463  17.043   9.872  0.00  0.00    -0.112 N 
HETATM    5  C   UNK N   1      34.501  15.643  10.072  0.00  0.00     0.691 A 
HETATM    6  N   UNK N   1      35.069  15.159  11.208  0.00  0.00    -0.201 N 
HETATM    7  N   UNK N   1      33.991  14.789   9.146  0.00  0.00    -0.201 N 
HETATM    8  C   UNK N   1      35.140  13.823  11.441  0.00  0.00     0.107 A 
ATOM      9  HN  UNK N   1      35.447  15.810  11.897  1.00  0.00     0.183 HD
HETATM   10  C   UNK N   1      34.622  12.931  10.507  0.00  0.00     0.035 A 
HETATM   11  C   UNK N   1      34.040  13.444   9.348  0.00  0.00     0.107 A 
ATOM     12  HN  UNK N   1      33.569  15.159   8.294  1.00  0.00     0.183 HD
HETATM   13  H   UNK N   1      34.767  17.609  10.619  0.00  0.00     0.197 HD
ENDBRANCH   1   4
BRANCH   1  14
HETATM   14  C   UNK N   1      32.947  17.560   6.932  0.00  0.00     0.080 A 
HETATM   15  C   UNK N   1      33.576  17.648   5.679  0.00  0.00     0.027 A 
HETATM   16  C   UNK N   1      32.856  17.435   4.504  0.00  0.00     0.030 A 
HETATM   17  C   UNK N   1      31.495  17.144   4.568  0.00  0.00     0.025 A 
HETATM   18  C   UNK N   1      30.852  17.072   5.812  0.00  0.00     0.030 A 
HETATM   19  C   UNK N   1      31.576  17.283   6.995  0.00  0.00     0.027 A 
BRANCH  17  20
HETATM   20  N   UNK N   1      30.770  16.925   3.380  0.00  0.00    -0.399 N 
HETATM   21  H   UNK N   1      30.113  16.193   3.329  0.00  0.00     0.156 HD
HETATM   22  H   UNK N   1      30.919  17.505   2.599  0.00  0.00     0.156 HD
ENDBRANCH  17  20
ENDBRANCH   1  14
TORSDOF 3
ENDMDL
MODEL 4
REMARK VINA RESULT:      -6.1      1.230      1.822
REMARK  3 active torsions:
REMARK  status: ('A' for Active; 'I' for Inactive)
REMARK    1  A    between atoms: S_1  and  N_4 
REMARK    2  A    between atoms: S_1  and  C_10 
REMARK       I    between atoms: N_4  and  C_16 
REMARK    3  A    between atoms: N_5  and  C_13 
ROOT
HETATM    1  S   UNK N   1      35.626  12.218  14.387  0.00  0.00     0.276 S 
HETATM    2  O   UNK N   1      37.091  12.265  13.931  0.00  0.00    -0.200 OA
HETATM    3  O   UNK N   1      35.620  13.753  14.459  0.00  0.00    -0.200 OA
ENDROOT
BRANCH   1   4
HETATM    4  N   UNK N   1      34.669  12.447  12.929  0.00  0.00    -0.112 N 
HETATM    5  C   UNK N   1      35.076  13.141  11.766  0.00  0.00     0.691 A 
HETATM    6  N   UNK N   1      34.267  13.116  10.673  0.00  0.00    -0.201 N 
HETATM    7  N   UNK N   1      36.254  13.816  11.729  0.00  0.00    -0.201 N 
HETATM    8  C   UNK N   1      34.619  13.757   9.528  0.00  0.00     0.107 A 
ATOM      9  HN  UNK N   1      33.384  12.608  10.714  1.00  0.00     0.183 HD
HETATM   10  C   UNK N   1      35.821  14.455   9.469  0.00  0.00     0.035 A 
HETATM   11  C   UNK N   1      36.636  14.474  10.599  0.00  0.00     0.107 A 
ATOM     12  HN  UNK N   1      36.858  13.828  12.551  1.00  0.00     0.183 HD
HETATM   13  H   UNK N   1      33.765  12.055  12.923  0.00  0.00     0.197 HD
ENDBRANCH   1   4
BRANCH   1  14
HETATM   14  C   UNK N   1      35.469  12.337  16.179  0.00  0.00     0.080 A 
HETATM   15  C   UNK N   1      35.322  13.607  16.761  0.00  0.00     0.027 A 
HETATM   16  C   UNK N   1      35.215  13.749  18.143  0.00  0.00     0.030 A 
HETATM   17  C   UNK N   1      35.265  12.622  18.962  0.00  0.00     0.025 A 
HETATM   18  C   UNK N   1      35.429  11.351  18.395  0.00  0.00     0.030 A 
HETATM   19  C   UNK N   1      35.534  11.206  17.003  0.00  0.00     0.027 A 
BRANCH  17  20
HETATM   20  N   UNK N   1      35.151  12.767  20.359  0.00  0.00    -0.399 N 
HETATM   21  H   UNK N   1      34.440  12.294  20.849  0.00  0.00     0.156 HD
HETATM   22  H   UNK N   1      35.785  13.341  20.846  0.00  0.00     0.156 HD
ENDBRANCH  17  20
ENDBRANCH   1  14
TORSDOF 3
ENDMDL
MODEL 5
REMARK VINA RESULT:      -6.0      8.838     12.095
REMARK  3 active torsions:
REMARK  status: ('A' for Active; 'I' for Inactive)
REMARK    1  A    between atoms: S_1  and  N_4 
REMARK    2  A    between atoms: S_1  and  C_10 
REMARK       I    between atoms: N_4  and  C_16 
REMARK    3  A    between atoms: N_5  and  C_13 
ROOT
HETATM    1  S   UNK N   1      29.023  17.530   8.408  0.00  0.00     0.276 S 
HETATM    2  O   UNK N   1      27.989  17.562   9.543  0.00  0.00    -0.200 OA
HETATM    3  O   UNK N   1      29.453  18.955   8.789  0.00  0.00    -0.200 OA
ENDROOT
BRANCH   1   4
HETATM    4  N   UNK N   1      30.537  17.049   9.162  0.00  0.00    -0.112 N 
HETATM    5  C   UNK N   1      31.823  17.141   8.580  0.00  0.00     0.691 A 
HETATM    6  N   UNK N   1      32.909  16.849   9.344  0.00  0.00    -0.201 N 
HETATM    7  N   UNK N   1      31.981  17.524   7.286  0.00  0.00    -0.201 N 
HETATM    8  C   UNK N   1      34.166  16.935   8.835  0.00  0.00     0.107 A 
ATOM      9  HN  UNK N   1      32.778  16.561  10.313  1.00  0.00     0.183 HD
HETATM   10  C   UNK N   1      34.350  17.323   7.512  0.00  0.00     0.035 A 
HETATM   11  C   UNK N   1      33.226  17.616   6.741  0.00  0.00     0.107 A 
ATOM     12  HN  UNK N   1      31.162  17.745   6.719  1.00  0.00     0.183 HD
HETATM   13  H   UNK N   1      30.485  16.679  10.073  0.00  0.00     0.197 HD
ENDBRANCH   1   4
BRANCH   1  14
HETATM   14  C   UNK N   1      28.414  18.333   6.913  0.00  0.00     0.080 A 
HETATM   15  C   UNK N   1      27.840  19.611   7.018  0.00  0.00     0.027 A 
HETATM   16  C   UNK N   1      27.341  20.261   5.891  0.00  0.00     0.030 A 
HETATM   17  C   UNK N   1      27.398  19.637   4.647  0.00  0.00     0.025 A 
HETATM   18  C   UNK N   1      27.951  18.354   4.532  0.00  0.00     0.030 A 
HETATM   19  C   UNK N   1      28.458  17.699   5.665  0.00  0.00     0.027 A 
BRANCH  17  20
HETATM   20  N   UNK N   1      26.897  20.299   3.508  0.00  0.00    -0.399 N 
HETATM   21  H   UNK N   1      27.512  20.608   2.805  0.00  0.00     0.156 HD
HETATM   22  H   UNK N   1      25.929  20.452   3.415  0.00  0.00     0.156 HD
ENDBRANCH  17  20
ENDBRANCH   1  14
TORSDOF 3
ENDMDL
MODEL 6
REMARK VINA RESULT:      -5.9      6.536      9.086
REMARK  3 active torsions:
REMARK  status: ('A' for Active; 'I' for Inactive)
REMARK    1  A    between atoms: S_1  and  N_4 
REMARK    2  A    between atoms: S_1  and  C_10 
REMARK       I    between atoms: N_4  and  C_16 
REMARK    3  A    between atoms: N_5  and  C_13 
ROOT
HETATM    1  S   UNK N   1      33.386  16.975   7.063  0.00  0.00     0.276 S 
HETATM    2  O   UNK N   1      34.201  17.839   6.090  0.00  0.00    -0.200 OA
HETATM    3  O   UNK N   1      33.247  18.190   7.993  0.00  0.00    -0.200 OA
ENDROOT
BRANCH   1   4
HETATM    4  N   UNK N   1      31.699  17.288   6.674  0.00  0.00    -0.112 N 
HETATM    5  C   UNK N   1      30.635  17.385   7.601  0.00  0.00     0.691 A 
HETATM    6  N   UNK N   1      29.409  17.762   7.151  0.00  0.00    -0.201 N 
HETATM    7  N   UNK N   1      30.827  17.118   8.919  0.00  0.00    -0.201 N 
HETATM    8  C   UNK N   1      28.358  17.882   8.003  0.00  0.00     0.107 A 
ATOM      9  HN  UNK N   1      29.276  17.958   6.159  1.00  0.00     0.183 HD
HETATM   10  C   UNK N   1      28.532  17.611   9.357  0.00  0.00     0.035 A 
HETATM   11  C   UNK N   1      29.795  17.223   9.801  0.00  0.00     0.107 A 
ATOM     12  HN  UNK N   1      31.751  16.839   9.250  1.00  0.00     0.183 HD
HETATM   13  H   UNK N   1      31.475  17.406   5.722  0.00  0.00     0.197 HD
ENDBRANCH   1   4
BRANCH   1  14
HETATM   14  C   UNK N   1      34.399  16.321   8.403  0.00  0.00     0.080 A 
HETATM   15  C   UNK N   1      34.578  17.103   9.557  0.00  0.00     0.027 A 
HETATM   16  C   UNK N   1      35.367  16.645  10.611  0.00  0.00     0.030 A 
HETATM   17  C   UNK N   1      35.998  15.406  10.518  0.00  0.00     0.025 A 
HETATM   18  C   UNK N   1      35.842  14.625   9.364  0.00  0.00     0.030 A 
HETATM   19  C   UNK N   1      35.045  15.083   8.304  0.00  0.00     0.027 A 
BRANCH  17  20
HETATM   20  N   UNK N   1      36.791  14.943  11.586  0.00  0.00    -0.399 N 
HETATM   21  H   UNK N   1      37.540  14.327  11.417  0.00  0.00     0.156 HD
HETATM   22  H   UNK N   1      36.597  15.237  12.506  0.00  0.00     0.156 HD
ENDBRANCH  17  20
ENDBRANCH   1  14
TORSDOF 3
ENDMDL
MODEL 7
REMARK VINA RESULT:      -5.9     16.006     17.379
REMARK  3 active torsions:
REMARK  status: ('A' for Active; 'I' for Inactive)
REMARK    1  A    between atoms: S_1  and  N_4 
REMARK    2  A    between atoms: S_1  and  C_10 
REMARK       I    between atoms: N_4  and  C_16 
REMARK    3  A    between atoms: N_5  and  C_13 
ROOT
HETATM    1  S   UNK N   1      20.803  15.769   7.281  0.00  0.00     0.276 S 
HETATM    2  O   UNK N   1      20.797  17.126   7.999  0.00  0.00    -0.200 OA
HETATM    3  O   UNK N   1      19.420  15.470   7.880  0.00  0.00    -0.200 OA
ENDROOT
BRANCH   1   4
HETATM    4  N   UNK N   1      19.918  16.022   5.783  0.00  0.00    -0.112 N 
HETATM    5  C   UNK N   1      20.145  17.057   4.846  0.00  0.00     0.691 A 
HETATM    6  N   UNK N   1      19.461  17.037   3.671  0.00  0.00    -0.201 N 
HETATM    7  N   UNK N   1      21.035  18.051   5.101  0.00  0.00    -0.201 N 
HETATM    8  C   UNK N   1      19.652  18.001   2.733  0.00  0.00     0.107 A 
ATOM      9  HN  UNK N   1      18.794  16.286   3.491  1.00  0.00     0.183 HD
HETATM   10  C   UNK N   1      20.557  19.029   2.976  0.00  0.00     0.035 A 
HETATM   11  C   UNK N   1      21.248  19.037   4.186  0.00  0.00     0.107 A 
ATOM     12  HN  UNK N   1      21.547  18.058   5.984  1.00  0.00     0.183 HD
HETATM   13  H   UNK N   1      19.196  15.383   5.577  0.00  0.00     0.197 HD
ENDBRANCH   1   4
BRANCH   1  14
HETATM   14  C   UNK N   1      21.336  14.430   8.365  0.00  0.00     0.080 A 
HETATM   15  C   UNK N   1      20.551  14.117   9.487  0.00  0.00     0.027 A 
HETATM   16  C   UNK N   1      20.933  13.102  10.362  0.00  0.00     0.030 A 
HETATM   17  C   UNK N   1      22.113  12.396  10.133  0.00  0.00     0.025 A 
HETATM   18  C   UNK N   1      22.914  12.711   9.027  0.00  0.00     0.030 A 
HETATM   19  C   UNK N   1      22.529  13.731   8.143  0.00  0.00     0.027 A 
BRANCH  17  20
HETATM   20  N   UNK N   1      22.495  11.366  11.016  0.00  0.00    -0.399 N 
HETATM   21  H   UNK N   1      21.979  11.202  11.838  0.00  0.00     0.156 HD
HETATM   22  H   UNK N   1      23.280  10.809  10.810  0.00  0.00     0.156 HD
ENDBRANCH  17  20
ENDBRANCH   1  14
TORSDOF 3
ENDMDL
MODEL 8
REMARK VINA RESULT:      -5.7      6.392      9.313
REMARK  3 active torsions:
REMARK  status: ('A' for Active; 'I' for Inactive)
REMARK    1  A    between atoms: S_1  and  N_4 
REMARK    2  A    between atoms: S_1  and  C_10 
REMARK       I    between atoms: N_4  and  C_16 
REMARK    3  A    between atoms: N_5  and  C_13 
ROOT
HETATM    1  S   UNK N   1      33.140  17.076   7.005  0.00  0.00     0.276 S 
HETATM    2  O   UNK N   1      33.261  17.155   5.477  0.00  0.00    -0.200 OA
HETATM    3  O   UNK N   1      32.563  15.659   6.865  0.00  0.00    -0.200 OA
ENDROOT
BRANCH   1   4
HETATM    4  N   UNK N   1      34.593  16.252   7.554  0.00  0.00    -0.112 N 
HETATM    5  C   UNK N   1      34.763  15.603   8.800  0.00  0.00     0.691 A 
HETATM    6  N   UNK N   1      35.905  14.899   9.020  0.00  0.00    -0.201 N 
HETATM    7  N   UNK N   1      33.805  15.669   9.761  0.00  0.00    -0.201 N 
HETATM    8  C   UNK N   1      36.110  14.248  10.194  0.00  0.00     0.107 A 
ATOM      9  HN  UNK N   1      36.618  14.858   8.291  1.00  0.00     0.183 HD
HETATM   10  C   UNK N   1      35.143  14.304  11.192  0.00  0.00     0.035 A 
HETATM   11  C   UNK N   1      33.979  15.033  10.952  0.00  0.00     0.107 A 
ATOM     12  HN  UNK N   1      32.949  16.197   9.587  1.00  0.00     0.183 HD
HETATM   13  H   UNK N   1      35.361  16.242   6.937  0.00  0.00     0.197 HD
ENDBRANCH   1   4
BRANCH   1  14
HETATM   14  C   UNK N   1      31.477  17.477   7.576  0.00  0.00     0.080 A 
HETATM   15  C   UNK N   1      31.330  18.230   8.753  0.00  0.00     0.027 A 
HETATM   16  C   UNK N   1      30.064  18.548   9.241  0.00  0.00     0.030 A 
HETATM   17  C   UNK N   1      28.928  18.106   8.565  0.00  0.00     0.025 A 
HETATM   18  C   UNK N   1      29.062  17.338   7.400  0.00  0.00     0.030 A 
HETATM   19  C   UNK N   1      30.335  17.020   6.905  0.00  0.00     0.027 A 
BRANCH  17  20
HETATM   20  N   UNK N   1      27.649  18.433   9.057  0.00  0.00    -0.399 N 
HETATM   21  H   UNK N   1      26.845  18.206   8.536  0.00  0.00     0.156 HD
HETATM   22  H   UNK N   1      27.559  18.889   9.925  0.00  0.00     0.156 HD
ENDBRANCH  17  20
ENDBRANCH   1  14
TORSDOF 3
ENDMDL
MODEL 9
REMARK VINA RESULT:      -5.6      1.830      2.236
REMARK  3 active torsions:
REMARK  status: ('A' for Active; 'I' for Inactive)
REMARK    1  A    between atoms: S_1  and  N_4 
REMARK    2  A    between atoms: S_1  and  C_10 
REMARK       I    between atoms: N_4  and  C_16 
REMARK    3  A    between atoms: N_5  and  C_13 
ROOT
HETATM    1  S   UNK N   1      35.805  11.822  14.591  0.00  0.00     0.276 S 
HETATM    2  O   UNK N   1      36.753  12.853  13.961  0.00  0.00    -0.200 OA
HETATM    3  O   UNK N   1      34.653  12.829  14.454  0.00  0.00    -0.200 OA
ENDROOT
BRANCH   1   4
HETATM    4  N   UNK N   1      35.032  11.003  13.241  0.00  0.00    -0.112 N 
HETATM    5  C   UNK N   1      34.827  11.539  11.948  0.00  0.00     0.691 A 
HETATM    6  N   UNK N   1      34.331  10.729  10.975  0.00  0.00    -0.201 N 
HETATM    7  N   UNK N   1      35.126  12.835  11.671  0.00  0.00    -0.201 N 
HETATM    8  C   UNK N   1      34.128  11.193   9.715  0.00  0.00     0.107 A 
ATOM      9  HN  UNK N   1      34.108   9.759  11.196  1.00  0.00     0.183 HD
HETATM   10  C   UNK N   1      34.426  12.518   9.410  0.00  0.00     0.035 A 
HETATM   11  C   UNK N   1      34.931  13.336  10.420  0.00  0.00     0.107 A 
ATOM     12  HN  UNK N   1      35.501  13.437  12.405  1.00  0.00     0.183 HD
HETATM   13  H   UNK N   1      34.711  10.085  13.400  0.00  0.00     0.197 HD
ENDBRANCH   1   4
BRANCH   1  14
HETATM   14  C   UNK N   1      35.571  12.105  16.357  0.00  0.00     0.080 A 
HETATM   15  C   UNK N   1      35.323  13.414  16.804  0.00  0.00     0.027 A 
HETATM   16  C   UNK N   1      35.153  13.682  18.161  0.00  0.00     0.030 A 
HETATM   17  C   UNK N   1      35.243  12.646  19.089  0.00  0.00     0.025 A 
HETATM   18  C   UNK N   1      35.508  11.340  18.657  0.00  0.00     0.030 A 
HETATM   19  C   UNK N   1      35.676  11.067  17.291  0.00  0.00     0.027 A 
BRANCH  17  20
HETATM   20  N   UNK N   1      35.066  12.919  20.460  0.00  0.00    -0.399 N 
HETATM   21  H   UNK N   1      35.390  12.282  21.137  0.00  0.00     0.156 HD
HETATM   22  H   UNK N   1      34.617  13.748  20.742  0.00  0.00     0.156 HD
ENDBRANCH  17  20
ENDBRANCH   1  14
TORSDOF 3
ENDMDL
