MODEL 1
REMARK VINA RESULT:      -7.6      0.000      0.000
REMARK  2 active torsions:
REMARK  status: ('A' for Active; 'I' for Inactive)
REMARK    1  A    between atoms: C_7  and  O_1 
REMARK    2  A    between atoms: C_3  and  C_14 
ROOT
HETATM    1  O   UNK N   1      32.850   8.520  21.492  0.00  0.00    -0.293 OA
HETATM    2  C   UNK N   1      36.458  11.804  14.713  0.00  0.00     0.006 C 
HETATM    3  C   UNK N   1      35.736  12.623  15.938  0.00  0.00     0.002 C 
HETATM    4  C   UNK N   1      35.832  12.083  17.412  0.00  0.00    -0.005 C 
HETATM    5  C   UNK N   1      35.090  10.725  17.416  0.00  0.00    -0.002 C 
HETATM    6  C   UNK N   1      36.078  12.928  13.671  0.00  0.00     0.128 C 
HETATM    7  C   UNK N   1      36.773  10.533  15.561  0.00  0.00     0.014 C 
HETATM    8  C   UNK N   1      36.363  13.998  15.831  0.00  0.00     0.010 C 
HETATM    9  C   UNK N   1      35.531   9.885  16.223  0.00  0.00     0.006 C 
HETATM   10  C   UNK N   1      35.400   9.986  18.714  0.00  0.00     0.019 C 
HETATM   11  C   UNK N   1      36.438  14.260  14.341  0.00  0.00     0.052 C 
HETATM   12  C   UNK N   1      35.263  12.966  18.545  0.00  0.00     0.010 C 
HETATM   13  C   UNK N   1      35.452  12.273  19.919  0.00  0.00     0.035 C 
HETATM   14  C   UNK N   1      34.921  10.863  19.860  0.00  0.00    -0.072 C 
HETATM   15  C   UNK N   1      34.835   8.546  18.732  0.00  0.00     0.017 C 
HETATM   16  C   UNK N   1      36.755  12.893  12.347  0.00  0.00    -0.078 C 
HETATM   17  C   UNK N   1      33.398   8.499  19.200  0.00  0.00     0.084 C 
HETATM   18  C   UNK N   1      34.010  10.428  20.751  0.00  0.00     0.053 C 
HETATM   19  C   UNK N   1      33.378   9.105  20.562  0.00  0.00     0.149 C 
HETATM   20  C   UNK N   1      37.319  12.865  11.282  0.00  0.00     0.015 C 
ENDROOT
BRANCH   6  21
HETATM   21  O   UNK N   1      34.693  12.942  13.402  0.00  0.00    -0.377 OA
HETATM   22  H   UNK N   1      33.809  12.545  13.338  0.00  0.00     0.211 HD
ENDBRANCH   6  21
BRANCH   2  23
HETATM   23  C   UNK N   1      36.436  10.593  13.709  0.00  0.00     0.009 C 
HETATM   24  C   UNK N   1      37.684   9.768  13.456  0.00  0.00     0.006 C 
ENDBRANCH   2  23
TORSDOF 2
ENDMDL
MODEL 2
REMARK VINA RESULT:      -7.3     10.751     13.762
REMARK  2 active torsions:
REMARK  status: ('A' for Active; 'I' for Inactive)
REMARK    1  A    between atoms: C_7  and  O_1 
REMARK    2  A    between atoms: C_3  and  C_14 
ROOT
HETATM    1  O   UNK N   1      25.870  20.944   5.295  0.00  0.00    -0.293 OA
HETATM    2  C   UNK N   1      32.624  16.119   6.222  0.00  0.00     0.006 C 
HETATM    3  C   UNK N   1      32.036  17.206   7.301  0.00  0.00     0.002 C 
HETATM    4  C   UNK N   1      30.485  17.426   7.433  0.00  0.00    -0.005 C 
HETATM    5  C   UNK N   1      30.020  17.999   6.072  0.00  0.00    -0.002 C 
HETATM    6  C   UNK N   1      34.104  16.342   6.728  0.00  0.00     0.128 C 
HETATM    7  C   UNK N   1      31.262  15.894   5.494  0.00  0.00     0.014 C 
HETATM    8  C   UNK N   1      32.620  16.721   8.611  0.00  0.00     0.010 C 
HETATM    9  C   UNK N   1      30.620  17.187   4.931  0.00  0.00     0.006 C 
HETATM   10  C   UNK N   1      28.496  17.947   5.999  0.00  0.00     0.019 C 
HETATM   11  C   UNK N   1      34.033  16.303   8.260  0.00  0.00     0.052 C 
HETATM   12  C   UNK N   1      29.978  18.351   8.563  0.00  0.00     0.010 C 
HETATM   13  C   UNK N   1      28.430  18.440   8.537  0.00  0.00     0.035 C 
HETATM   14  C   UNK N   1      27.960  18.788   7.147  0.00  0.00    -0.072 C 
HETATM   15  C   UNK N   1      27.951  18.344   4.607  0.00  0.00     0.017 C 
HETATM   16  C   UNK N   1      35.131  15.354   6.300  0.00  0.00    -0.078 C 
HETATM   17  C   UNK N   1      27.778  19.839   4.463  0.00  0.00     0.084 C 
HETATM   18  C   UNK N   1      27.149  19.843   6.934  0.00  0.00     0.053 C 
HETATM   19  C   UNK N   1      26.849  20.264   5.549  0.00  0.00     0.149 C 
HETATM   20  C   UNK N   1      35.953  14.543   5.959  0.00  0.00     0.015 C 
ENDROOT
BRANCH   6  21
HETATM   21  O   UNK N   1      34.597  17.609   6.351  0.00  0.00    -0.377 OA
HETATM   22  H   UNK N   1      35.280  18.292   6.265  0.00  0.00     0.211 HD
ENDBRANCH   6  21
BRANCH   2  23
HETATM   23  C   UNK N   1      32.980  15.761   4.732  0.00  0.00     0.009 C 
HETATM   24  C   UNK N   1      32.568  14.430   4.131  0.00  0.00     0.006 C 
ENDBRANCH   2  23
TORSDOF 2
ENDMDL
MODEL 3
REMARK VINA RESULT:      -7.2      2.257      4.295
REMARK  2 active torsions:
REMARK  status: ('A' for Active; 'I' for Inactive)
REMARK    1  A    between atoms: C_7  and  O_1 
REMARK    2  A    between atoms: C_3  and  C_14 
ROOT
HETATM    1  O   UNK N   1      35.116  12.872  19.973  0.00  0.00    -0.293 OA
HETATM    2  C   UNK N   1      36.332  12.584  11.714  0.00  0.00     0.006 C 
HETATM    3  C   UNK N   1      37.033  11.625  12.847  0.00  0.00     0.002 C 
HETATM    4  C   UNK N   1      36.225  11.194  14.125  0.00  0.00    -0.005 C 
HETATM    5  C   UNK N   1      35.937  12.500  14.905  0.00  0.00    -0.002 C 
HETATM    6  C   UNK N   1      37.590  12.471  10.767  0.00  0.00     0.128 C 
HETATM    7  C   UNK N   1      35.083  12.935  12.582  0.00  0.00     0.014 C 
HETATM    8  C   UNK N   1      37.445  10.410  12.041  0.00  0.00     0.010 C 
HETATM    9  C   UNK N   1      35.420  13.573  13.953  0.00  0.00     0.006 C 
HETATM   10  C   UNK N   1      34.896  12.221  15.985  0.00  0.00     0.019 C 
HETATM   11  C   UNK N   1      37.960  10.983  10.737  0.00  0.00     0.052 C 
HETATM   12  C   UNK N   1      36.879  10.174  15.085  0.00  0.00     0.010 C 
HETATM   13  C   UNK N   1      35.935   9.872  16.277  0.00  0.00     0.035 C 
HETATM   14  C   UNK N   1      35.476  11.161  16.908  0.00  0.00    -0.072 C 
HETATM   15  C   UNK N   1      34.422  13.506  16.705  0.00  0.00     0.017 C 
HETATM   16  C   UNK N   1      37.431  12.924   9.359  0.00  0.00    -0.078 C 
HETATM   17  C   UNK N   1      35.326  13.886  17.856  0.00  0.00     0.084 C 
HETATM   18  C   UNK N   1      35.637  11.382  18.228  0.00  0.00     0.053 C 
HETATM   19  C   UNK N   1      35.341  12.719  18.784  0.00  0.00     0.149 C 
HETATM   20  C   UNK N   1      37.290  13.281   8.217  0.00  0.00     0.015 C 
ENDROOT
BRANCH   6  21
HETATM   21  O   UNK N   1      38.696  13.179  11.285  0.00  0.00    -0.377 OA
HETATM   22  H   UNK N   1      39.581  13.257  11.674  0.00  0.00     0.211 HD
ENDBRANCH   6  21
BRANCH   2  23
HETATM   23  C   UNK N   1      35.877  14.022  11.265  0.00  0.00     0.009 C 
HETATM   24  C   UNK N   1      34.487  14.260  10.705  0.00  0.00     0.006 C 
ENDBRANCH   2  23
TORSDOF 2
ENDMDL
MODEL 4
REMARK VINA RESULT:      -7.1      2.059      7.585
REMARK  2 active torsions:
REMARK  status: ('A' for Active; 'I' for Inactive)
REMARK    1  A    between atoms: C_7  and  O_1 
REMARK    2  A    between atoms: C_3  and  C_14 
ROOT
HETATM    1  O   UNK N   1      35.205  15.139   8.481  0.00  0.00    -0.293 OA
HETATM    2  C   UNK N   1      36.098  11.869  16.114  0.00  0.00     0.006 C 
HETATM    3  C   UNK N   1      36.529  11.176  14.690  0.00  0.00     0.002 C 
HETATM    4  C   UNK N   1      37.070  12.066  13.513  0.00  0.00    -0.005 C 
HETATM    5  C   UNK N   1      35.899  12.994  13.109  0.00  0.00    -0.002 C 
HETATM    6  C   UNK N   1      35.820  10.460  16.773  0.00  0.00     0.128 C 
HETATM    7  C   UNK N   1      36.166  13.334  15.583  0.00  0.00     0.014 C 
HETATM    8  C   UNK N   1      37.571  10.163  15.118  0.00  0.00     0.010 C 
HETATM    9  C   UNK N   1      35.266  13.608  14.352  0.00  0.00     0.006 C 
HETATM   10  C   UNK N   1      36.425  14.098  12.196  0.00  0.00     0.019 C 
HETATM   11  C   UNK N   1      37.022   9.581  16.404  0.00  0.00     0.052 C 
HETATM   12  C   UNK N   1      37.600  11.351  12.249  0.00  0.00     0.010 C 
HETATM   13  C   UNK N   1      38.092  12.387  11.207  0.00  0.00     0.035 C 
HETATM   14  C   UNK N   1      37.025  13.426  10.971  0.00  0.00    -0.072 C 
HETATM   15  C   UNK N   1      35.356  15.170  11.878  0.00  0.00     0.017 C 
HETATM   16  C   UNK N   1      35.666  10.413  18.252  0.00  0.00    -0.078 C 
HETATM   17  C   UNK N   1      34.491  14.786  10.699  0.00  0.00     0.084 C 
HETATM   18  C   UNK N   1      36.580  13.693   9.728  0.00  0.00     0.053 C 
HETATM   19  C   UNK N   1      35.414  14.583   9.546  0.00  0.00     0.149 C 
HETATM   20  C   UNK N   1      35.555  10.383  19.451  0.00  0.00     0.015 C 
ENDROOT
BRANCH   6  21
HETATM   21  O   UNK N   1      34.663   9.855  16.238  0.00  0.00    -0.377 OA
HETATM   22  H   UNK N   1      33.708   9.767  16.096  0.00  0.00     0.211 HD
ENDBRANCH   6  21
BRANCH   2  23
HETATM   23  C   UNK N   1      35.041  12.685  16.947  0.00  0.00     0.009 C 
HETATM   24  C   UNK N   1      35.464  13.871  17.794  0.00  0.00     0.006 C 
ENDBRANCH   2  23
TORSDOF 2
ENDMDL
MODEL 5
REMARK VINA RESULT:      -6.9     23.819     26.782
REMARK  2 active torsions:
REMARK  status: ('A' for Active; 'I' for Inactive)
REMARK    1  A    between atoms: C_7  and  O_1 
REMARK    2  A    between atoms: C_3  and  C_14 
ROOT
HETATM    1  O   UNK N   1      34.232  20.168  -5.140  0.00  0.00    -0.293 OA
HETATM    2  C   UNK N   1      27.143  24.559  -5.603  0.00  0.00     0.006 C 
HETATM    3  C   UNK N   1      27.787  23.604  -6.772  0.00  0.00     0.002 C 
HETATM    4  C   UNK N   1      28.559  22.291  -6.381  0.00  0.00    -0.005 C 
HETATM    5  C   UNK N   1      29.802  22.751  -5.582  0.00  0.00    -0.002 C 
HETATM    6  C   UNK N   1      26.477  25.508  -6.675  0.00  0.00     0.128 C 
HETATM    7  C   UNK N   1      27.854  23.831  -4.420  0.00  0.00     0.014 C 
HETATM    8  C   UNK N   1      26.585  23.281  -7.634  0.00  0.00     0.010 C 
HETATM    9  C   UNK N   1      29.399  23.785  -4.537  0.00  0.00     0.006 C 
HETATM   10  C   UNK N   1      30.435  21.542  -4.897  0.00  0.00     0.019 C 
HETATM   11  C   UNK N   1      25.810  24.581  -7.699  0.00  0.00     0.052 C 
HETATM   12  C   UNK N   1      29.017  21.354  -7.521  0.00  0.00     0.010 C 
HETATM   13  C   UNK N   1      29.752  20.117  -6.943  0.00  0.00     0.035 C 
HETATM   14  C   UNK N   1      30.831  20.561  -5.988  0.00  0.00    -0.072 C 
HETATM   15  C   UNK N   1      31.586  21.933  -3.940  0.00  0.00     0.017 C 
HETATM   16  C   UNK N   1      25.444  26.466  -6.196  0.00  0.00    -0.078 C 
HETATM   17  C   UNK N   1      32.911  22.058  -4.656  0.00  0.00     0.084 C 
HETATM   18  C   UNK N   1      32.105  20.150  -6.144  0.00  0.00     0.053 C 
HETATM   19  C   UNK N   1      33.168  20.739  -5.303  0.00  0.00     0.149 C 
HETATM   20  C   UNK N   1      24.600  27.229  -5.801  0.00  0.00     0.015 C 
ENDROOT
BRANCH   6  21
HETATM   21  O   UNK N   1      27.442  26.280  -7.357  0.00  0.00    -0.377 OA
HETATM   22  H   UNK N   1      27.736  27.001  -7.935  0.00  0.00     0.211 HD
ENDBRANCH   6  21
BRANCH   2  23
HETATM   23  C   UNK N   1      27.356  25.646  -4.486  0.00  0.00     0.009 C 
HETATM   24  C   UNK N   1      26.654  25.534  -3.145  0.00  0.00     0.006 C 
ENDBRANCH   2  23
TORSDOF 2
ENDMDL
MODEL 6
REMARK VINA RESULT:      -6.8     15.782     17.131
REMARK  2 active torsions:
REMARK  status: ('A' for Active; 'I' for Inactive)
REMARK    1  A    between atoms: C_7  and  O_1 
REMARK    2  A    between atoms: C_3  and  C_14 
ROOT
HETATM    1  O   UNK N   1      23.437  11.569  11.807  0.00  0.00    -0.293 OA
HETATM    2  C   UNK N   1      21.424  16.308   5.232  0.00  0.00     0.006 C 
HETATM    3  C   UNK N   1      22.872  16.258   6.002  0.00  0.00     0.002 C 
HETATM    4  C   UNK N   1      23.401  14.903   6.600  0.00  0.00    -0.005 C 
HETATM    5  C   UNK N   1      22.400  14.511   7.713  0.00  0.00    -0.002 C 
HETATM    6  C   UNK N   1      21.633  17.822   4.831  0.00  0.00     0.128 C 
HETATM    7  C   UNK N   1      20.981  14.878   5.673  0.00  0.00     0.014 C 
HETATM    8  C   UNK N   1      23.825  16.785   4.950  0.00  0.00     0.010 C 
HETATM    9  C   UNK N   1      20.969  14.660   7.207  0.00  0.00     0.006 C 
HETATM   10  C   UNK N   1      22.653  13.065   8.131  0.00  0.00     0.019 C 
HETATM   11  C   UNK N   1      23.065  17.918   4.291  0.00  0.00     0.052 C 
HETATM   12  C   UNK N   1      24.831  14.879   7.184  0.00  0.00     0.010 C 
HETATM   13  C   UNK N   1      25.174  13.464   7.719  0.00  0.00     0.035 C 
HETATM   14  C   UNK N   1      24.083  12.986   8.642  0.00  0.00    -0.072 C 
HETATM   15  C   UNK N   1      21.590  12.534   9.121  0.00  0.00     0.017 C 
HETATM   16  C   UNK N   1      20.723  18.390   3.800  0.00  0.00    -0.078 C 
HETATM   17  C   UNK N   1      21.923  12.871  10.557  0.00  0.00     0.084 C 
HETATM   18  C   UNK N   1      24.366  12.570   9.892  0.00  0.00     0.053 C 
HETATM   19  C   UNK N   1      23.263  12.277  10.830  0.00  0.00     0.149 C 
HETATM   20  C   UNK N   1      19.991  18.838   2.955  0.00  0.00     0.015 C 
ENDROOT
BRANCH   6  21
HETATM   21  O   UNK N   1      21.537  18.674   5.952  0.00  0.00    -0.377 OA
HETATM   22  H   UNK N   1      21.894  19.205   6.681  0.00  0.00     0.211 HD
ENDBRANCH   6  21
BRANCH   2  23
HETATM   23  C   UNK N   1      19.853  16.346   5.322  0.00  0.00     0.009 C 
HETATM   24  C   UNK N   1      19.005  15.352   4.550  0.00  0.00     0.006 C 
ENDBRANCH   2  23
TORSDOF 2
ENDMDL
MODEL 7
REMARK VINA RESULT:      -6.7      3.174      8.752
REMARK  2 active torsions:
REMARK  status: ('A' for Active; 'I' for Inactive)
REMARK    1  A    between atoms: C_7  and  O_1 
REMARK    2  A    between atoms: C_3  and  C_14 
ROOT
HETATM    1  O   UNK N   1      34.573  17.217   7.183  0.00  0.00    -0.293 OA
HETATM    2  C   UNK N   1      35.356  11.859  13.542  0.00  0.00     0.006 C 
HETATM    3  C   UNK N   1      34.958  11.496  11.992  0.00  0.00     0.002 C 
HETATM    4  C   UNK N   1      35.590  12.309  10.804  0.00  0.00    -0.005 C 
HETATM    5  C   UNK N   1      35.079  13.761  10.964  0.00  0.00    -0.002 C 
HETATM    6  C   UNK N   1      34.516  10.643  14.097  0.00  0.00     0.128 C 
HETATM    7  C   UNK N   1      36.095  13.188  13.189  0.00  0.00     0.014 C 
HETATM    8  C   UNK N   1      35.325  10.030  11.892  0.00  0.00     0.010 C 
HETATM    9  C   UNK N   1      35.228  14.211  12.413  0.00  0.00     0.006 C 
HETATM   10  C   UNK N   1      35.884  14.681  10.050  0.00  0.00     0.019 C 
HETATM   11  C   UNK N   1      34.886   9.442  13.217  0.00  0.00     0.052 C 
HETATM   12  C   UNK N   1      35.296  11.832   9.364  0.00  0.00     0.010 C 
HETATM   13  C   UNK N   1      36.005  12.750   8.335  0.00  0.00     0.035 C 
HETATM   14  C   UNK N   1      35.679  14.193   8.625  0.00  0.00    -0.072 C 
HETATM   15  C   UNK N   1      35.555  16.177  10.268  0.00  0.00     0.017 C 
HETATM   16  C   UNK N   1      34.735  10.247  15.514  0.00  0.00    -0.078 C 
HETATM   17  C   UNK N   1      34.362  16.627   9.455  0.00  0.00     0.084 C 
HETATM   18  C   UNK N   1      35.167  14.993   7.669  0.00  0.00     0.053 C 
HETATM   19  C   UNK N   1      34.694  16.347   8.028  0.00  0.00     0.149 C 
HETATM   20  C   UNK N   1      34.929   9.925  16.658  0.00  0.00     0.015 C 
ENDROOT
BRANCH   6  21
HETATM   21  O   UNK N   1      33.129  10.864  13.961  0.00  0.00    -0.377 OA
HETATM   22  H   UNK N   1      32.332  11.170  13.500  0.00  0.00     0.211 HD
ENDBRANCH   6  21
BRANCH   2  23
HETATM   23  C   UNK N   1      35.181  12.802  14.790  0.00  0.00     0.009 C 
HETATM   24  C   UNK N   1      36.388  13.350  15.528  0.00  0.00     0.006 C 
ENDBRANCH   2  23
TORSDOF 2
ENDMDL
MODEL 8
REMARK VINA RESULT:      -6.7      5.800     10.901
REMARK  2 active torsions:
REMARK  status: ('A' for Active; 'I' for Inactive)
REMARK    1  A    between atoms: C_7  and  O_1 
REMARK    2  A    between atoms: C_3  and  C_14 
ROOT
HETATM    1  O   UNK N   1      32.826  17.011   3.025  0.00  0.00    -0.293 OA
HETATM    2  C   UNK N   1      35.242  13.875  10.380  0.00  0.00     0.006 C 
HETATM    3  C   UNK N   1      35.287  15.450   9.918  0.00  0.00     0.002 C 
HETATM    4  C   UNK N   1      34.165  16.030   8.982  0.00  0.00    -0.005 C 
HETATM    5  C   UNK N   1      34.297  15.269   7.640  0.00  0.00    -0.002 C 
HETATM    6  C   UNK N   1      36.492  14.065  11.326  0.00  0.00     0.128 C 
HETATM    7  C   UNK N   1      34.111  13.470   9.384  0.00  0.00     0.014 C 
HETATM    8  C   UNK N   1      35.308  16.182  11.244  0.00  0.00     0.010 C 
HETATM    9  C   UNK N   1      34.432  13.773   7.899  0.00  0.00     0.006 C 
HETATM   10  C   UNK N   1      33.061  15.538   6.786  0.00  0.00     0.019 C 
HETATM   11  C   UNK N   1      36.229  15.353  12.115  0.00  0.00     0.052 C 
HETATM   12  C   UNK N   1      34.173  17.549   8.698  0.00  0.00     0.010 C 
HETATM   13  C   UNK N   1      32.995  17.931   7.764  0.00  0.00     0.035 C 
HETATM   14  C   UNK N   1      32.993  17.038   6.549  0.00  0.00    -0.072 C 
HETATM   15  C   UNK N   1      33.029  14.684   5.497  0.00  0.00     0.017 C 
HETATM   16  C   UNK N   1      36.778  12.985  12.309  0.00  0.00    -0.078 C 
HETATM   17  C   UNK N   1      33.793  15.328   4.362  0.00  0.00     0.084 C 
HETATM   18  C   UNK N   1      32.997  17.560   5.307  0.00  0.00     0.053 C 
HETATM   19  C   UNK N   1      33.174  16.667   4.142  0.00  0.00     0.149 C 
HETATM   20  C   UNK N   1      36.994  12.113  13.111  0.00  0.00     0.015 C 
ENDROOT
BRANCH   6  21
HETATM   21  O   UNK N   1      37.681  14.247  10.587  0.00  0.00    -0.377 OA
HETATM   22  H   UNK N   1      38.374  14.775  10.161  0.00  0.00     0.211 HD
ENDBRANCH   6  21
BRANCH   2  23
HETATM   23  C   UNK N   1      35.493  12.363  10.026  0.00  0.00     0.009 C 
HETATM   24  C   UNK N   1      34.454  11.305  10.351  0.00  0.00     0.006 C 
ENDBRANCH   2  23
TORSDOF 2
ENDMDL
MODEL 9
REMARK VINA RESULT:      -6.6     23.415     26.355
REMARK  2 active torsions:
REMARK  status: ('A' for Active; 'I' for Inactive)
REMARK    1  A    between atoms: C_7  and  O_1 
REMARK    2  A    between atoms: C_3  and  C_14 
ROOT
HETATM    1  O   UNK N   1      33.353  19.390  -4.352  0.00  0.00    -0.293 OA
HETATM    2  C   UNK N   1      27.521  25.250  -5.537  0.00  0.00     0.006 C 
HETATM    3  C   UNK N   1      28.858  25.369  -4.593  0.00  0.00     0.002 C 
HETATM    4  C   UNK N   1      30.195  24.664  -5.026  0.00  0.00    -0.005 C 
HETATM    5  C   UNK N   1      29.895  23.145  -5.017  0.00  0.00    -0.002 C 
HETATM    6  C   UNK N   1      26.713  26.236  -4.605  0.00  0.00     0.128 C 
HETATM    7  C   UNK N   1      28.107  24.145  -6.470  0.00  0.00     0.014 C 
HETATM    8  C   UNK N   1      29.055  26.867  -4.485  0.00  0.00     0.010 C 
HETATM    9  C   UNK N   1      28.576  22.868  -5.728  0.00  0.00     0.006 C 
HETATM   10  C   UNK N   1      31.029  22.405  -5.723  0.00  0.00     0.019 C 
HETATM   11  C   UNK N   1      27.652  27.419  -4.333  0.00  0.00     0.052 C 
HETATM   12  C   UNK N   1      31.460  24.928  -4.179  0.00  0.00     0.010 C 
HETATM   13  C   UNK N   1      32.672  24.154  -4.760  0.00  0.00     0.035 C 
HETATM   14  C   UNK N   1      32.309  22.705  -4.958  0.00  0.00    -0.072 C 
HETATM   15  C   UNK N   1      30.734  20.898  -5.910  0.00  0.00     0.017 C 
HETATM   16  C   UNK N   1      25.437  26.788  -5.133  0.00  0.00    -0.078 C 
HETATM   17  C   UNK N   1      31.127  20.081  -4.699  0.00  0.00     0.084 C 
HETATM   18  C   UNK N   1      33.059  21.723  -4.420  0.00  0.00     0.053 C 
HETATM   19  C   UNK N   1      32.582  20.326  -4.480  0.00  0.00     0.149 C 
HETATM   20  C   UNK N   1      24.411  27.240  -5.574  0.00  0.00     0.015 C 
ENDROOT
BRANCH   6  21
HETATM   21  O   UNK N   1      26.400  25.641  -3.365  0.00  0.00    -0.377 OA
HETATM   22  H   UNK N   1      25.979  25.607  -2.492  0.00  0.00     0.211 HD
ENDBRANCH   6  21
BRANCH   2  23
HETATM   23  C   UNK N   1      26.293  24.397  -6.029  0.00  0.00     0.009 C 
HETATM   24  C   UNK N   1      25.942  24.315  -7.503  0.00  0.00     0.006 C 
ENDBRANCH   2  23
TORSDOF 2
ENDMDL
