REMARK  2 active torsions:
REMARK  status: ('A' for Active; 'I' for Inactive)
REMARK    1  A    between atoms: C_7  and  O_1 
REMARK    2  A    between atoms: C_3  and  C_14 
ROOT
HETATM    1  O   UNK N   1      -0.608  -2.330   0.765  0.00  0.00    -0.293 OA
HETATM    2  C   UNK N   1       7.106   0.660  -0.380  0.00  0.00     0.006 C 
HETATM    3  C   UNK N   1       6.680  -0.648   0.515  0.00  0.00     0.002 C 
HETATM    4  C   UNK N   1       5.487  -1.563   0.056  0.00  0.00    -0.005 C 
HETATM    5  C   UNK N   1       4.222  -0.673   0.116  0.00  0.00    -0.002 C 
HETATM    6  C   UNK N   1       8.346   0.957   0.552  0.00  0.00     0.128 C 
HETATM    7  C   UNK N   1       5.848   0.614  -1.302  0.00  0.00     0.014 C 
HETATM    8  C   UNK N   1       7.969  -1.441   0.575  0.00  0.00     0.010 C 
HETATM    9  C   UNK N   1       4.499   0.674  -0.542  0.00  0.00     0.006 C 
HETATM   10  C   UNK N   1       3.077  -1.377  -0.607  0.00  0.00     0.019 C 
HETATM   11  C   UNK N   1       9.046  -0.392   0.760  0.00  0.00     0.052 C 
HETATM   12  C   UNK N   1       5.222  -2.861   0.852  0.00  0.00     0.010 C 
HETATM   13  C   UNK N   1       4.016  -3.628   0.251  0.00  0.00     0.035 C 
HETATM   14  C   UNK N   1       2.838  -2.699   0.105  0.00  0.00    -0.072 C 
HETATM   15  C   UNK N   1       1.819  -0.487  -0.743  0.00  0.00     0.017 C 
HETATM   16  C   UNK N   1       9.364   1.920   0.053  0.00  0.00    -0.078 C 
HETATM   17  C   UNK N   1       0.926  -0.565   0.475  0.00  0.00     0.084 C 
HETATM   18  C   UNK N   1       1.642  -3.007   0.644  0.00  0.00     0.053 C 
HETATM   19  C   UNK N   1       0.559  -2.001   0.638  0.00  0.00     0.149 C 
HETATM   20  C   UNK N   1      10.190   2.691  -0.365  0.00  0.00     0.015 C 
ENDROOT
BRANCH   6  21
HETATM   21  O   UNK N   1       7.943   1.433   1.818  0.00  0.00    -0.377 OA
HETATM   22  H   UNK N   1       8.088   1.837   2.688  0.00  0.00     0.211 HD
ENDBRANCH   6  21
BRANCH   2  23
HETATM   23  C   UNK N   1       6.822   2.148  -0.806  0.00  0.00     0.009 C 
HETATM   24  C   UNK N   1       6.353   3.173   0.210  0.00  0.00     0.006 C 
ENDBRANCH   2  23
TORSDOF 2
