MODEL 1
REMARK VINA RESULT:      -5.1      0.000      0.000
REMARK  6 active torsions:
REMARK  status: ('A' for Active; 'I' for Inactive)
REMARK    1  A    between atoms: C_5  and  O_1 
REMARK    2  A    between atoms: O_2  and  C_10 
REMARK    3  A    between atoms: O_3  and  C_12 
REMARK    4  A    between atoms: N_4  and  C_7 
REMARK    5  A    between atoms: C_5  and  C_6 
REMARK    6  A    between atoms: C_5  and  C_7 
ROOT
HETATM    1  C   UNK N   1      22.942  12.267  10.426  0.00  0.00    -0.025 A 
HETATM    2  C   UNK N   1      21.778  13.043  10.433  0.00  0.00     0.049 A 
HETATM    3  C   UNK N   1      23.352  11.640   9.242  0.00  0.00     0.013 A 
HETATM    4  C   UNK N   1      21.029  13.194   9.266  0.00  0.00     0.099 A 
HETATM    5  C   UNK N   1      22.603  11.790   8.073  0.00  0.00     0.040 A 
HETATM    6  C   UNK N   1      21.441  12.567   8.083  0.00  0.00     0.098 A 
ENDROOT
BRANCH   1   7
HETATM    7  C   UNK N   1      23.740  12.109  11.679  0.00  0.00     0.168 C 
BRANCH   7   8
HETATM    8  O   UNK N   1      25.122  12.309  11.617  0.00  0.00    -0.389 OA
HETATM    9  H   UNK N   1      25.485  13.032  11.083  0.00  0.00     0.210 HD
ENDBRANCH   7   8
BRANCH   7  10
HETATM   10  C   UNK N   1      23.094  11.739  13.009  0.00  0.00     0.147 C 
BRANCH  10  11
HETATM   11  N   UNK N   1      23.667  12.513  14.094  0.00  0.00    -0.427 N 
HETATM   12  H   UNK N   1      23.437  12.282  15.061  0.00  0.00     0.150 HD
HETATM   13  H   UNK N   1      24.299  13.287  13.892  0.00  0.00     0.150 HD
ENDBRANCH  10  11
ENDBRANCH   7  10
ENDBRANCH   1   7
BRANCH   4  14
HETATM   14  O   UNK N   1      19.913  13.944   9.286  0.00  0.00    -0.358 OA
HETATM   15  H   UNK N   1      19.296  13.884   8.584  0.00  0.00     0.217 HD
ENDBRANCH   4  14
BRANCH   6  16
HETATM   16  O   UNK N   1      20.725  12.707   6.955  0.00  0.00    -0.358 OA
HETATM   17  H   UNK N   1      21.162  12.817   6.134  0.00  0.00     0.217 HD
ENDBRANCH   6  16
TORSDOF 6
ENDMDL
MODEL 2
REMARK VINA RESULT:      -5.1     14.258     15.669
REMARK  6 active torsions:
REMARK  status: ('A' for Active; 'I' for Inactive)
REMARK    1  A    between atoms: C_5  and  O_1 
REMARK    2  A    between atoms: O_2  and  C_10 
REMARK    3  A    between atoms: O_3  and  C_12 
REMARK    4  A    between atoms: N_4  and  C_7 
REMARK    5  A    between atoms: C_5  and  C_6 
REMARK    6  A    between atoms: C_5  and  C_7 
ROOT
HETATM    1  C   UNK N   1      35.493  12.654  17.072  0.00  0.00    -0.025 A 
HETATM    2  C   UNK N   1      35.131  13.435  18.175  0.00  0.00     0.049 A 
HETATM    3  C   UNK N   1      35.763  11.291  17.245  0.00  0.00     0.013 A 
HETATM    4  C   UNK N   1      35.039  12.859  19.442  0.00  0.00     0.099 A 
HETATM    5  C   UNK N   1      35.671  10.712  18.513  0.00  0.00     0.040 A 
HETATM    6  C   UNK N   1      35.309  11.495  19.613  0.00  0.00     0.098 A 
ENDROOT
BRANCH   1   7
HETATM    7  C   UNK N   1      35.590  13.277  15.718  0.00  0.00     0.168 C 
BRANCH   7   8
HETATM    8  O   UNK N   1      34.527  13.102  14.826  0.00  0.00    -0.389 OA
HETATM    9  H   UNK N   1      34.531  12.357  14.206  0.00  0.00     0.210 HD
ENDBRANCH   7   8
BRANCH   7  10
HETATM   10  C   UNK N   1      36.806  14.089  15.286  0.00  0.00     0.147 C 
BRANCH  10  11
HETATM   11  N   UNK N   1      36.728  14.425  13.877  0.00  0.00    -0.427 N 
HETATM   12  H   UNK N   1      37.332  15.152  13.492  0.00  0.00     0.150 HD
HETATM   13  H   UNK N   1      36.071  13.935  13.270  0.00  0.00     0.150 HD
ENDBRANCH  10  11
ENDBRANCH   7  10
ENDBRANCH   1   7
BRANCH   4  14
HETATM   14  O   UNK N   1      34.691  13.621  20.494  0.00  0.00    -0.358 OA
HETATM   15  H   UNK N   1      33.800  13.893  20.600  0.00  0.00     0.217 HD
ENDBRANCH   4  14
BRANCH   6  16
HETATM   16  O   UNK N   1      35.223  10.932  20.830  0.00  0.00    -0.358 OA
HETATM   17  H   UNK N   1      34.561  11.214  21.430  0.00  0.00     0.217 HD
ENDBRANCH   6  16
TORSDOF 6
ENDMDL
MODEL 3
REMARK VINA RESULT:      -4.9      9.402      9.717
REMARK  6 active torsions:
REMARK  status: ('A' for Active; 'I' for Inactive)
REMARK    1  A    between atoms: C_5  and  O_1 
REMARK    2  A    between atoms: O_2  and  C_10 
REMARK    3  A    between atoms: O_3  and  C_12 
REMARK    4  A    between atoms: N_4  and  C_7 
REMARK    5  A    between atoms: C_5  and  C_6 
REMARK    6  A    between atoms: C_5  and  C_7 
ROOT
HETATM    1  C   UNK N   1      28.262  18.932   7.323  0.00  0.00    -0.025 A 
HETATM    2  C   UNK N   1      28.748  18.142   6.276  0.00  0.00     0.049 A 
HETATM    3  C   UNK N   1      27.564  20.112   7.036  0.00  0.00     0.013 A 
HETATM    4  C   UNK N   1      28.539  18.526   4.951  0.00  0.00     0.099 A 
HETATM    5  C   UNK N   1      27.353  20.498   5.711  0.00  0.00     0.040 A 
HETATM    6  C   UNK N   1      27.840  19.707   4.666  0.00  0.00     0.098 A 
ENDROOT
BRANCH   1   7
HETATM    7  C   UNK N   1      28.490  18.516   8.739  0.00  0.00     0.168 C 
BRANCH   7   8
HETATM    8  O   UNK N   1      27.415  17.984   9.458  0.00  0.00    -0.389 OA
HETATM    9  H   UNK N   1      27.397  18.052  10.425  0.00  0.00     0.210 HD
ENDBRANCH   7   8
BRANCH   7  10
HETATM   10  C   UNK N   1      29.849  18.654   9.415  0.00  0.00     0.147 C 
BRANCH  10  11
HETATM   11  N   UNK N   1      30.527  17.373   9.479  0.00  0.00    -0.427 N 
HETATM   12  H   UNK N   1      30.652  16.907  10.378  0.00  0.00     0.150 HD
HETATM   13  H   UNK N   1      30.879  16.937   8.627  0.00  0.00     0.150 HD
ENDBRANCH  10  11
ENDBRANCH   7  10
ENDBRANCH   1   7
BRANCH   4  14
HETATM   14  O   UNK N   1      29.012  17.758   3.954  0.00  0.00    -0.358 OA
HETATM   15  H   UNK N   1      29.051  18.095   3.081  0.00  0.00     0.217 HD
ENDBRANCH   4  14
BRANCH   6  16
HETATM   16  O   UNK N   1      27.634  20.084   3.394  0.00  0.00    -0.358 OA
HETATM   17  H   UNK N   1      28.352  20.120   2.794  0.00  0.00     0.217 HD
ENDBRANCH   6  16
TORSDOF 6
ENDMDL
MODEL 4
REMARK VINA RESULT:      -4.8      2.789      4.784
REMARK  6 active torsions:
REMARK  status: ('A' for Active; 'I' for Inactive)
REMARK    1  A    between atoms: C_5  and  O_1 
REMARK    2  A    between atoms: O_2  and  C_10 
REMARK    3  A    between atoms: O_3  and  C_12 
REMARK    4  A    between atoms: N_4  and  C_7 
REMARK    5  A    between atoms: C_5  and  C_6 
REMARK    6  A    between atoms: C_5  and  C_7 
ROOT
HETATM    1  C   UNK N   1      21.908  13.248   9.672  0.00  0.00    -0.025 A 
HETATM    2  C   UNK N   1      21.752  12.591  10.897  0.00  0.00     0.049 A 
HETATM    3  C   UNK N   1      23.187  13.399   9.123  0.00  0.00     0.013 A 
HETATM    4  C   UNK N   1      22.865  12.087  11.570  0.00  0.00     0.099 A 
HETATM    5  C   UNK N   1      24.303  12.896   9.794  0.00  0.00     0.040 A 
HETATM    6  C   UNK N   1      24.145  12.239  11.018  0.00  0.00     0.098 A 
ENDROOT
BRANCH   1   7
HETATM    7  C   UNK N   1      20.712  13.785   8.957  0.00  0.00     0.168 C 
BRANCH   7   8
HETATM    8  O   UNK N   1      19.553  14.043   9.696  0.00  0.00    -0.389 OA
HETATM    9  H   UNK N   1      18.681  13.937   9.284  0.00  0.00     0.210 HD
ENDBRANCH   7   8
BRANCH   7  10
HETATM   10  C   UNK N   1      20.720  14.057   7.457  0.00  0.00     0.147 C 
BRANCH  10  11
HETATM   11  N   UNK N   1      20.359  15.434   7.179  0.00  0.00    -0.427 N 
HETATM   12  H   UNK N   1      20.911  15.982   6.519  0.00  0.00     0.150 HD
HETATM   13  H   UNK N   1      19.555  15.855   7.644  0.00  0.00     0.150 HD
ENDBRANCH  10  11
ENDBRANCH   7  10
ENDBRANCH   1   7
BRANCH   4  14
HETATM   14  O   UNK N   1      22.702  11.457  12.746  0.00  0.00    -0.358 OA
HETATM   15  H   UNK N   1      22.219  10.655  12.785  0.00  0.00     0.217 HD
ENDBRANCH   4  14
BRANCH   6  16
HETATM   16  O   UNK N   1      25.223  11.757  11.659  0.00  0.00    -0.358 OA
HETATM   17  H   UNK N   1      26.082  11.945  11.337  0.00  0.00     0.217 HD
ENDBRANCH   6  16
TORSDOF 6
ENDMDL
MODEL 5
REMARK VINA RESULT:      -4.8     11.607     12.307
REMARK  6 active torsions:
REMARK  status: ('A' for Active; 'I' for Inactive)
REMARK    1  A    between atoms: C_5  and  O_1 
REMARK    2  A    between atoms: O_2  and  C_10 
REMARK    3  A    between atoms: O_3  and  C_12 
REMARK    4  A    between atoms: N_4  and  C_7 
REMARK    5  A    between atoms: C_5  and  C_6 
REMARK    6  A    between atoms: C_5  and  C_7 
ROOT
HETATM    1  C   UNK N   1      33.341  17.592   7.339  0.00  0.00    -0.025 A 
HETATM    2  C   UNK N   1      33.645  17.563   5.974  0.00  0.00     0.049 A 
HETATM    3  C   UNK N   1      32.017  17.412   7.760  0.00  0.00     0.013 A 
HETATM    4  C   UNK N   1      32.636  17.355   5.034  0.00  0.00     0.099 A 
HETATM    5  C   UNK N   1      31.005  17.204   6.821  0.00  0.00     0.040 A 
HETATM    6  C   UNK N   1      31.311  17.175   5.457  0.00  0.00     0.098 A 
ENDROOT
BRANCH   1   7
HETATM    7  C   UNK N   1      34.427  17.815   8.340  0.00  0.00     0.168 C 
BRANCH   7   8
HETATM    8  O   UNK N   1      35.038  19.072   8.391  0.00  0.00    -0.389 OA
HETATM    9  H   UNK N   1      34.738  19.732   9.035  0.00  0.00     0.210 HD
ENDBRANCH   7   8
BRANCH   7  10
HETATM   10  C   UNK N   1      34.882  16.720   9.298  0.00  0.00     0.147 C 
BRANCH  10  11
HETATM   11  N   UNK N   1      35.074  17.250  10.635  0.00  0.00    -0.427 N 
HETATM   12  H   UNK N   1      34.893  18.236  10.823  0.00  0.00     0.150 HD
HETATM   13  H   UNK N   1      35.388  16.637  11.386  0.00  0.00     0.150 HD
ENDBRANCH  10  11
ENDBRANCH   7  10
ENDBRANCH   1   7
BRANCH   4  14
HETATM   14  O   UNK N   1      32.941  17.328   3.725  0.00  0.00    -0.358 OA
HETATM   15  H   UNK N   1      32.772  16.557   3.220  0.00  0.00     0.217 HD
ENDBRANCH   4  14
BRANCH   6  16
HETATM   16  O   UNK N   1      30.333  16.974   4.559  0.00  0.00    -0.358 OA
HETATM   17  H   UNK N   1      30.341  17.438   3.746  0.00  0.00     0.217 HD
ENDBRANCH   6  16
TORSDOF 6
ENDMDL
MODEL 6
REMARK VINA RESULT:      -4.8     10.440     11.542
REMARK  6 active torsions:
REMARK  status: ('A' for Active; 'I' for Inactive)
REMARK    1  A    between atoms: C_5  and  O_1 
REMARK    2  A    between atoms: O_2  and  C_10 
REMARK    3  A    between atoms: O_3  and  C_12 
REMARK    4  A    between atoms: N_4  and  C_7 
REMARK    5  A    between atoms: C_5  and  C_6 
REMARK    6  A    between atoms: C_5  and  C_7 
ROOT
HETATM    1  C   UNK N   1      31.316  17.618   8.024  0.00  0.00    -0.025 A 
HETATM    2  C   UNK N   1      32.518  18.291   8.270  0.00  0.00     0.049 A 
HETATM    3  C   UNK N   1      31.282  16.580   7.084  0.00  0.00     0.013 A 
HETATM    4  C   UNK N   1      33.677  17.931   7.583  0.00  0.00     0.099 A 
HETATM    5  C   UNK N   1      32.442  16.218   6.396  0.00  0.00     0.040 A 
HETATM    6  C   UNK N   1      33.641  16.892   6.644  0.00  0.00     0.098 A 
ENDROOT
BRANCH   1   7
HETATM    7  C   UNK N   1      30.078  18.008   8.762  0.00  0.00     0.168 C 
BRANCH   7   8
HETATM    8  O   UNK N   1      30.140  18.121  10.155  0.00  0.00    -0.389 OA
HETATM    9  H   UNK N   1      29.323  18.179  10.674  0.00  0.00     0.210 HD
ENDBRANCH   7   8
BRANCH   7  10
HETATM   10  C   UNK N   1      28.761  18.285   8.045  0.00  0.00     0.147 C 
BRANCH  10  11
HETATM   11  N   UNK N   1      27.687  18.489   8.998  0.00  0.00    -0.427 N 
HETATM   12  H   UNK N   1      26.971  19.193   8.816  0.00  0.00     0.150 HD
HETATM   13  H   UNK N   1      27.647  17.931   9.850  0.00  0.00     0.150 HD
ENDBRANCH  10  11
ENDBRANCH   7  10
ENDBRANCH   1   7
BRANCH   4  14
HETATM   14  O   UNK N   1      34.825  18.586   7.829  0.00  0.00    -0.358 OA
HETATM   15  H   UNK N   1      35.356  18.884   7.117  0.00  0.00     0.217 HD
ENDBRANCH   4  14
BRANCH   6  16
HETATM   16  O   UNK N   1      34.752  16.539   5.978  0.00  0.00    -0.358 OA
HETATM   17  H   UNK N   1      34.721  15.844   5.350  0.00  0.00     0.217 HD
ENDBRANCH   6  16
TORSDOF 6
ENDMDL
MODEL 7
REMARK VINA RESULT:      -4.8     13.695     15.228
REMARK  6 active torsions:
REMARK  status: ('A' for Active; 'I' for Inactive)
REMARK    1  A    between atoms: C_5  and  O_1 
REMARK    2  A    between atoms: O_2  and  C_10 
REMARK    3  A    between atoms: O_3  and  C_12 
REMARK    4  A    between atoms: N_4  and  C_7 
REMARK    5  A    between atoms: C_5  and  C_6 
REMARK    6  A    between atoms: C_5  and  C_7 
ROOT
HETATM    1  C   UNK N   1      35.336  12.579  16.176  0.00  0.00    -0.025 A 
HETATM    2  C   UNK N   1      35.291  13.835  16.791  0.00  0.00     0.049 A 
HETATM    3  C   UNK N   1      35.353  11.420  16.962  0.00  0.00     0.013 A 
HETATM    4  C   UNK N   1      35.263  13.934  18.182  0.00  0.00     0.099 A 
HETATM    5  C   UNK N   1      35.325  11.517  18.355  0.00  0.00     0.040 A 
HETATM    6  C   UNK N   1      35.280  12.773  18.967  0.00  0.00     0.098 A 
ENDROOT
BRANCH   1   7
HETATM    7  C   UNK N   1      35.365  12.480  14.685  0.00  0.00     0.168 C 
BRANCH   7   8
HETATM    8  O   UNK N   1      34.163  12.252  14.009  0.00  0.00    -0.389 OA
HETATM    9  H   UNK N   1      33.881  11.346  13.812  0.00  0.00     0.210 HD
ENDBRANCH   7   8
BRANCH   7  10
HETATM   10  C   UNK N   1      36.658  12.620  13.891  0.00  0.00     0.147 C 
BRANCH  10  11
HETATM   11  N   UNK N   1      36.838  13.984  13.430  0.00  0.00    -0.427 N 
HETATM   12  H   UNK N   1      36.829  14.190  12.431  0.00  0.00     0.150 HD
HETATM   13  H   UNK N   1      36.973  14.737  14.105  0.00  0.00     0.150 HD
ENDBRANCH  10  11
ENDBRANCH   7  10
ENDBRANCH   1   7
BRANCH   4  14
HETATM   14  O   UNK N   1      35.219  15.146  18.761  0.00  0.00    -0.358 OA
HETATM   15  H   UNK N   1      34.785  15.856  18.330  0.00  0.00     0.217 HD
ENDBRANCH   4  14
BRANCH   6  16
HETATM   16  O   UNK N   1      35.254  12.859  20.307  0.00  0.00    -0.358 OA
HETATM   17  H   UNK N   1      36.025  13.111  20.776  0.00  0.00     0.217 HD
ENDBRANCH   6  16
TORSDOF 6
ENDMDL
MODEL 8
REMARK VINA RESULT:      -4.8     12.424     13.104
REMARK  6 active torsions:
REMARK  status: ('A' for Active; 'I' for Inactive)
REMARK    1  A    between atoms: C_5  and  O_1 
REMARK    2  A    between atoms: O_2  and  C_10 
REMARK    3  A    between atoms: O_3  and  C_12 
REMARK    4  A    between atoms: N_4  and  C_7 
REMARK    5  A    between atoms: C_5  and  C_6 
REMARK    6  A    between atoms: C_5  and  C_7 
ROOT
HETATM    1  C   UNK N   1      34.541  15.877   9.609  0.00  0.00    -0.025 A 
HETATM    2  C   UNK N   1      34.806  17.250   9.564  0.00  0.00     0.049 A 
HETATM    3  C   UNK N   1      34.156  15.205   8.442  0.00  0.00     0.013 A 
HETATM    4  C   UNK N   1      34.687  17.949   8.363  0.00  0.00     0.099 A 
HETATM    5  C   UNK N   1      34.036  15.903   7.238  0.00  0.00     0.040 A 
HETATM    6  C   UNK N   1      34.301  17.275   7.196  0.00  0.00     0.098 A 
ENDROOT
BRANCH   1   7
HETATM    7  C   UNK N   1      34.670  15.134  10.899  0.00  0.00     0.168 C 
BRANCH   7   8
HETATM    8  O   UNK N   1      33.509  14.646  11.505  0.00  0.00    -0.389 OA
HETATM    9  H   UNK N   1      32.947  15.240  12.026  0.00  0.00     0.210 HD
ENDBRANCH   7   8
BRANCH   7  10
HETATM   10  C   UNK N   1      36.021  14.898  11.564  0.00  0.00     0.147 C 
BRANCH  10  11
HETATM   11  N   UNK N   1      37.093  14.944  10.588  0.00  0.00    -0.427 N 
HETATM   12  H   UNK N   1      37.315  14.117  10.034  0.00  0.00     0.150 HD
HETATM   13  H   UNK N   1      37.626  15.804  10.456  0.00  0.00     0.150 HD
ENDBRANCH  10  11
ENDBRANCH   7  10
ENDBRANCH   1   7
BRANCH   4  14
HETATM   14  O   UNK N   1      34.944  19.268   8.334  0.00  0.00    -0.358 OA
HETATM   15  H   UNK N   1      34.661  19.784   7.604  0.00  0.00     0.217 HD
ENDBRANCH   4  14
BRANCH   6  16
HETATM   16  O   UNK N   1      34.184  17.940   6.035  0.00  0.00    -0.358 OA
HETATM   17  H   UNK N   1      33.931  17.483   5.257  0.00  0.00     0.217 HD
ENDBRANCH   6  16
TORSDOF 6
ENDMDL
MODEL 9
REMARK VINA RESULT:      -4.7      2.408      4.888
REMARK  6 active torsions:
REMARK  status: ('A' for Active; 'I' for Inactive)
REMARK    1  A    between atoms: C_5  and  O_1 
REMARK    2  A    between atoms: O_2  and  C_10 
REMARK    3  A    between atoms: O_3  and  C_12 
REMARK    4  A    between atoms: N_4  and  C_7 
REMARK    5  A    between atoms: C_5  and  C_6 
REMARK    6  A    between atoms: C_5  and  C_7 
ROOT
HETATM    1  C   UNK N   1      22.034  12.784   9.751  0.00  0.00    -0.025 A 
HETATM    2  C   UNK N   1      23.413  12.763   9.985  0.00  0.00     0.049 A 
HETATM    3  C   UNK N   1      21.150  12.425  10.776  0.00  0.00     0.013 A 
HETATM    4  C   UNK N   1      23.907  12.386  11.234  0.00  0.00     0.099 A 
HETATM    5  C   UNK N   1      21.642  12.047  12.027  0.00  0.00     0.040 A 
HETATM    6  C   UNK N   1      23.021  12.027  12.259  0.00  0.00     0.098 A 
ENDROOT
BRANCH   1   7
HETATM    7  C   UNK N   1      21.511  13.188   8.412  0.00  0.00     0.168 C 
BRANCH   7   8
HETATM    8  O   UNK N   1      21.028  12.193   7.557  0.00  0.00    -0.389 OA
HETATM    9  H   UNK N   1      20.149  12.282   7.157  0.00  0.00     0.210 HD
ENDBRANCH   7   8
BRANCH   7  10
HETATM   10  C   UNK N   1      21.490  14.643   7.957  0.00  0.00     0.147 C 
BRANCH  10  11
HETATM   11  N   UNK N   1      20.286  15.310   8.414  0.00  0.00    -0.427 N 
HETATM   12  H   UNK N   1      19.533  14.769   8.837  0.00  0.00     0.150 HD
HETATM   13  H   UNK N   1      20.192  16.321   8.311  0.00  0.00     0.150 HD
ENDBRANCH  10  11
ENDBRANCH   7  10
ENDBRANCH   1   7
BRANCH   4  14
HETATM   14  O   UNK N   1      25.234  12.371  11.446  0.00  0.00    -0.358 OA
HETATM   15  H   UNK N   1      25.650  11.590  11.754  0.00  0.00     0.217 HD
ENDBRANCH   4  14
BRANCH   6  16
HETATM   16  O   UNK N   1      23.488  11.663  13.464  0.00  0.00    -0.358 OA
HETATM   17  H   UNK N   1      24.176  12.155  13.868  0.00  0.00     0.217 HD
ENDBRANCH   6  16
TORSDOF 6
ENDMDL
