REMARK  6 active torsions:
REMARK  status: ('A' for Active; 'I' for Inactive)
REMARK    1  A    between atoms: C_5  and  O_1 
REMARK    2  A    between atoms: O_2  and  C_10 
REMARK    3  A    between atoms: O_3  and  C_12 
REMARK    4  A    between atoms: N_4  and  C_7 
REMARK    5  A    between atoms: C_5  and  C_6 
REMARK    6  A    between atoms: C_5  and  C_7 
ROOT
HETATM    1  C   UNK N   1       3.677   0.376   0.000  0.00  0.00    -0.025 A 
HETATM    2  C   UNK N   1       2.387  -0.165   0.000  0.00  0.00     0.049 A 
HETATM    3  C   UNK N   1       4.788  -0.477   0.000  0.00  0.00     0.013 A 
HETATM    4  C   UNK N   1       2.206  -1.548   0.000  0.00  0.00     0.099 A 
HETATM    5  C   UNK N   1       4.609  -1.862  -0.000  0.00  0.00     0.040 A 
HETATM    6  C   UNK N   1       3.319  -2.400  -0.000  0.00  0.00     0.098 A 
ENDROOT
BRANCH   1   7
HETATM    7  C   UNK N   1       3.864   1.858   0.000  0.00  0.00     0.168 C 
BRANCH   7   8
HETATM    8  O   UNK N   1       2.728   2.673  -0.000  0.00  0.00    -0.389 OA
HETATM    9  H   UNK N   1       2.823   3.638  -0.000  0.00  0.00     0.210 HD
ENDBRANCH   7   8
BRANCH   7  10
HETATM   10  C   UNK N   1       5.247   2.499  -0.000  0.00  0.00     0.147 C 
BRANCH  10  11
HETATM   11  N   UNK N   1       5.146   3.946   0.000  0.00  0.00    -0.427 N 
HETATM   12  H   UNK N   1       5.992   4.516   0.000  0.00  0.00     0.150 HD
HETATM   13  H   UNK N   1       4.230   4.394   0.000  0.00  0.00     0.150 HD
ENDBRANCH  10  11
ENDBRANCH   7  10
ENDBRANCH   1   7
BRANCH   4  14
HETATM   14  O   UNK N   1       0.961  -2.055   0.000  0.00  0.00    -0.358 OA
HETATM   15  H   UNK N   1       0.221  -1.480   0.000  0.00  0.00     0.217 HD
ENDBRANCH   4  14
BRANCH   6  16
HETATM   16  O   UNK N   1       3.154  -3.733  -0.000  0.00  0.00    -0.358 OA
HETATM   17  H   UNK N   1       2.291  -4.098  -0.000  0.00  0.00     0.217 HD
ENDBRANCH   6  16
TORSDOF 6
