MODEL 1
REMARK VINA RESULT:      -5.7      0.000      0.000
REMARK  10 active torsions:
REMARK  status: ('A' for Active; 'I' for Inactive)
REMARK    1  A    between atoms: P_1  and  O_4 
REMARK    2  A    between atoms: P_1  and  O_5 
REMARK    3  A    between atoms: P_1  and  C_15 
REMARK    4  A    between atoms: C_12  and  O_2 
REMARK    5  A    between atoms: O_2  and  C_15 
REMARK    6  A    between atoms: O_3  and  C_14 
REMARK    7  A    between atoms: N_8  and  C_13 
REMARK    8  A    between atoms: N_11  and  C_19 
REMARK    9  A    between atoms: C_12  and  C_13 
REMARK   10  A    between atoms: C_12  and  C_14 
ROOT
HETATM    1  C   UNK N   1      32.868  17.010   8.822  0.00  0.00     0.164 C 
ENDROOT
BRANCH   1   2
HETATM    2  O   UNK N   1      31.591  16.459   8.851  0.00  0.00    -0.371 OA
BRANCH   2   3
HETATM    3  C   UNK N   1      30.678  17.344   8.282  0.00  0.00     0.292 C 
BRANCH   3   4
HETATM    4  P   UNK N   1      29.401  17.562   9.602  0.00  0.00     0.260 P 
HETATM    5  O   UNK N   1      29.665  18.948  10.245  0.00  0.00    -0.652 OA
BRANCH   4   6
HETATM    6  O   UNK N   1      27.709  17.600   9.219  0.00  0.00    -0.328 OA
HETATM    7  H   UNK N   1      27.000  18.064   9.692  0.00  0.00     0.220 HD
ENDBRANCH   4   6
BRANCH   4   8
HETATM    8  O   UNK N   1      29.634  16.482  10.938  0.00  0.00    -0.328 OA
HETATM    9  H   UNK N   1      30.324  15.801  10.971  0.00  0.00     0.220 HD
ENDBRANCH   4   8
ENDBRANCH   3   4
ENDBRANCH   2   3
ENDBRANCH   1   2
BRANCH   1  10
HETATM   10  C   UNK N   1      33.814  15.817   8.687  0.00  0.00     0.167 C 
BRANCH  10  11
HETATM   11  N   UNK N   1      34.531  15.539   9.918  0.00  0.00    -0.307 N 
HETATM   12  C   UNK N   1      34.316  14.343  10.530  0.00  0.00     0.099 A 
HETATM   13  C   UNK N   1      34.992  14.022  11.701  0.00  0.00     0.065 A 
HETATM   14  C   UNK N   1      35.880  14.949  12.237  0.00  0.00     0.103 A 
HETATM   15  N   UNK N   1      36.068  16.148  11.625  0.00  0.00    -0.295 N 
HETATM   16  C   UNK N   1      35.401  16.453  10.469  0.00  0.00     0.328 A 
ATOM     17  HN  UNK N   1      36.713  16.826  12.030  1.00  0.00     0.172 HD
HETATM   18  O   UNK N   1      35.580  17.537   9.937  0.00  0.00    -0.246 OA
BRANCH  14  19
HETATM   19  N   UNK N   1      36.586  14.643  13.415  0.00  0.00    -0.385 N 
HETATM   20  H   UNK N   1      36.338  13.877  13.980  0.00  0.00     0.157 HD
HETATM   21  H   UNK N   1      37.345  15.210  13.681  0.00  0.00     0.157 HD
ENDBRANCH  14  19
ENDBRANCH  10  11
ENDBRANCH   1  10
BRANCH   1  22
HETATM   22  C   UNK N   1      32.996  17.953   7.619  0.00  0.00     0.197 C 
BRANCH  22  23
HETATM   23  O   UNK N   1      34.339  18.185   7.310  0.00  0.00    -0.398 OA
HETATM   24  H   UNK N   1      35.027  17.883   6.696  0.00  0.00     0.209 HD
ENDBRANCH  22  23
ENDBRANCH   1  22
TORSDOF 10
ENDMDL
MODEL 2
REMARK VINA RESULT:      -5.6     15.038     17.139
REMARK  10 active torsions:
REMARK  status: ('A' for Active; 'I' for Inactive)
REMARK    1  A    between atoms: P_1  and  O_4 
REMARK    2  A    between atoms: P_1  and  O_5 
REMARK    3  A    between atoms: P_1  and  C_15 
REMARK    4  A    between atoms: C_12  and  O_2 
REMARK    5  A    between atoms: O_2  and  C_15 
REMARK    6  A    between atoms: O_3  and  C_14 
REMARK    7  A    between atoms: N_8  and  C_13 
REMARK    8  A    between atoms: N_11  and  C_19 
REMARK    9  A    between atoms: C_12  and  C_13 
REMARK   10  A    between atoms: C_12  and  C_14 
ROOT
HETATM    1  C   UNK N   1      29.826  23.407  -3.650  0.00  0.00     0.164 C 
ENDROOT
BRANCH   1   2
HETATM    2  O   UNK N   1      30.420  22.348  -4.328  0.00  0.00    -0.371 OA
BRANCH   2   3
HETATM    3  C   UNK N   1      31.772  22.613  -4.535  0.00  0.00     0.292 C 
BRANCH   3   4
HETATM    4  P   UNK N   1      32.627  21.224  -3.665  0.00  0.00     0.260 P 
HETATM    5  O   UNK N   1      34.102  21.246  -4.144  0.00  0.00    -0.652 OA
BRANCH   4   6
HETATM    6  O   UNK N   1      32.758  21.190  -1.934  0.00  0.00    -0.328 OA
HETATM    7  H   UNK N   1      33.210  20.533  -1.382  0.00  0.00     0.220 HD
ENDBRANCH   4   6
BRANCH   4   8
HETATM    8  O   UNK N   1      32.085  19.667  -4.202  0.00  0.00    -0.328 OA
HETATM    9  H   UNK N   1      31.383  19.158  -3.766  0.00  0.00     0.220 HD
ENDBRANCH   4   8
ENDBRANCH   3   4
ENDBRANCH   2   3
ENDBRANCH   1   2
BRANCH   1  10
HETATM   10  C   UNK N   1      28.637  23.819  -4.518  0.00  0.00     0.167 C 
BRANCH  10  11
HETATM   11  N   UNK N   1      28.080  25.100  -4.118  0.00  0.00    -0.307 N 
HETATM   12  C   UNK N   1      28.848  26.211  -4.277  0.00  0.00     0.099 A 
HETATM   13  C   UNK N   1      28.354  27.461  -3.927  0.00  0.00     0.065 A 
HETATM   14  C   UNK N   1      27.068  27.550  -3.403  0.00  0.00     0.103 A 
HETATM   15  N   UNK N   1      26.321  26.428  -3.232  0.00  0.00    -0.295 N 
HETATM   16  C   UNK N   1      26.815  25.201  -3.585  0.00  0.00     0.328 A 
ATOM     17  HN  UNK N   1      25.383  26.500  -2.839  1.00  0.00     0.172 HD
HETATM   18  O   UNK N   1      26.131  24.204  -3.419  0.00  0.00    -0.246 OA
BRANCH  14  19
HETATM   19  N   UNK N   1      26.540  28.807  -3.053  0.00  0.00    -0.385 N 
HETATM   20  H   UNK N   1      26.185  29.425  -3.731  0.00  0.00     0.157 HD
HETATM   21  H   UNK N   1      26.525  29.073  -2.105  0.00  0.00     0.157 HD
ENDBRANCH  14  19
ENDBRANCH  10  11
ENDBRANCH   1  10
BRANCH   1  22
HETATM   22  C   UNK N   1      29.361  22.938  -2.266  0.00  0.00     0.197 C 
BRANCH  22  23
HETATM   23  O   UNK N   1      30.393  23.049  -1.330  0.00  0.00    -0.398 OA
HETATM   24  H   UNK N   1      30.577  23.444  -0.464  0.00  0.00     0.209 HD
ENDBRANCH  22  23
ENDBRANCH   1  22
TORSDOF 10
ENDMDL
MODEL 3
REMARK VINA RESULT:      -5.5      5.406      7.519
REMARK  10 active torsions:
REMARK  status: ('A' for Active; 'I' for Inactive)
REMARK    1  A    between atoms: P_1  and  O_4 
REMARK    2  A    between atoms: P_1  and  O_5 
REMARK    3  A    between atoms: P_1  and  C_15 
REMARK    4  A    between atoms: C_12  and  O_2 
REMARK    5  A    between atoms: O_2  and  C_15 
REMARK    6  A    between atoms: O_3  and  C_14 
REMARK    7  A    between atoms: N_8  and  C_13 
REMARK    8  A    between atoms: N_11  and  C_19 
REMARK    9  A    between atoms: C_12  and  C_13 
REMARK   10  A    between atoms: C_12  and  C_14 
ROOT
HETATM    1  C   UNK N   1      35.838  13.075  14.111  0.00  0.00     0.164 C 
ENDROOT
BRANCH   1   2
HETATM    2  O   UNK N   1      35.100  13.801  13.182  0.00  0.00    -0.371 OA
BRANCH   2   3
HETATM    3  C   UNK N   1      35.933  14.686  12.500  0.00  0.00     0.292 C 
BRANCH   3   4
HETATM    4  P   UNK N   1      34.860  15.334  11.140  0.00  0.00     0.260 P 
HETATM    5  O   UNK N   1      35.414  14.735   9.821  0.00  0.00    -0.652 OA
BRANCH   4   6
HETATM    6  O   UNK N   1      33.164  14.968  11.079  0.00  0.00    -0.328 OA
HETATM    7  H   UNK N   1      32.739  14.098  11.135  0.00  0.00     0.220 HD
ENDBRANCH   4   6
BRANCH   4   8
HETATM    8  O   UNK N   1      35.060  17.038  10.888  0.00  0.00    -0.328 OA
HETATM    9  H   UNK N   1      35.211  17.442  10.019  0.00  0.00     0.220 HD
ENDBRANCH   4   8
ENDBRANCH   3   4
ENDBRANCH   2   3
ENDBRANCH   1   2
BRANCH   1  10
HETATM   10  C   UNK N   1      34.809  12.235  14.868  0.00  0.00     0.167 C 
BRANCH  10  11
HETATM   11  N   UNK N   1      34.994  12.301  16.307  0.00  0.00    -0.307 N 
HETATM   12  C   UNK N   1      35.013  13.527  16.895  0.00  0.00     0.099 A 
HETATM   13  C   UNK N   1      35.168  13.643  18.271  0.00  0.00     0.065 A 
HETATM   14  C   UNK N   1      35.315  12.485  19.028  0.00  0.00     0.103 A 
HETATM   15  N   UNK N   1      35.314  11.268  18.422  0.00  0.00    -0.295 N 
HETATM   16  C   UNK N   1      35.156  11.164  17.066  0.00  0.00     0.328 A 
ATOM     17  HN  UNK N   1      35.432  10.424  18.983  1.00  0.00     0.172 HD
HETATM   18  O   UNK N   1      35.163  10.063  16.540  0.00  0.00    -0.246 OA
BRANCH  14  19
HETATM   19  N   UNK N   1      35.461  12.574  20.425  0.00  0.00    -0.385 N 
HETATM   20  H   UNK N   1      36.247  12.204  20.886  0.00  0.00     0.157 HD
HETATM   21  H   UNK N   1      34.760  13.018  20.953  0.00  0.00     0.157 HD
ENDBRANCH  14  19
ENDBRANCH  10  11
ENDBRANCH   1  10
BRANCH   1  22
HETATM   22  C   UNK N   1      36.849  12.181  13.382  0.00  0.00     0.197 C 
BRANCH  22  23
HETATM   23  O   UNK N   1      38.017  12.034  14.136  0.00  0.00    -0.398 OA
HETATM   24  H   UNK N   1      38.443  12.392  14.930  0.00  0.00     0.209 HD
ENDBRANCH  22  23
ENDBRANCH   1  22
TORSDOF 10
ENDMDL
MODEL 4
REMARK VINA RESULT:      -5.4      4.483      6.514
REMARK  10 active torsions:
REMARK  status: ('A' for Active; 'I' for Inactive)
REMARK    1  A    between atoms: P_1  and  O_4 
REMARK    2  A    between atoms: P_1  and  O_5 
REMARK    3  A    between atoms: P_1  and  C_15 
REMARK    4  A    between atoms: C_12  and  O_2 
REMARK    5  A    between atoms: O_2  and  C_15 
REMARK    6  A    between atoms: O_3  and  C_14 
REMARK    7  A    between atoms: N_8  and  C_13 
REMARK    8  A    between atoms: N_11  and  C_19 
REMARK    9  A    between atoms: C_12  and  C_13 
REMARK   10  A    between atoms: C_12  and  C_14 
ROOT
HETATM    1  C   UNK N   1      33.413  17.909   6.967  0.00  0.00     0.164 C 
ENDROOT
BRANCH   1   2
HETATM    2  O   UNK N   1      33.831  17.694   5.659  0.00  0.00    -0.371 OA
BRANCH   2   3
HETATM    3  C   UNK N   1      33.847  16.329   5.382  0.00  0.00     0.292 C 
BRANCH   3   4
HETATM    4  P   UNK N   1      32.985  16.204   3.751  0.00  0.00     0.260 P 
HETATM    5  O   UNK N   1      32.400  17.609   3.454  0.00  0.00    -0.652 OA
BRANCH   4   6
HETATM    6  O   UNK N   1      33.855  15.806   2.302  0.00  0.00    -0.328 OA
HETATM    7  H   UNK N   1      34.209  14.943   2.036  0.00  0.00     0.220 HD
ENDBRANCH   4   6
BRANCH   4   8
HETATM    8  O   UNK N   1      31.562  15.216   3.822  0.00  0.00    -0.328 OA
HETATM    9  H   UNK N   1      30.737  15.421   3.355  0.00  0.00     0.220 HD
ENDBRANCH   4   8
ENDBRANCH   3   4
ENDBRANCH   2   3
ENDBRANCH   1   2
BRANCH   1  10
HETATM   10  C   UNK N   1      32.408  16.793   7.253  0.00  0.00     0.167 C 
BRANCH  10  11
HETATM   11  N   UNK N   1      31.114  17.307   7.664  0.00  0.00    -0.307 N 
HETATM   12  C   UNK N   1      31.055  18.073   8.786  0.00  0.00     0.099 A 
HETATM   13  C   UNK N   1      29.843  18.604   9.211  0.00  0.00     0.065 A 
HETATM   14  C   UNK N   1      28.696  18.328   8.473  0.00  0.00     0.103 A 
HETATM   15  N   UNK N   1      28.769  17.545   7.365  0.00  0.00    -0.295 N 
HETATM   16  C   UNK N   1      29.969  17.030   6.952  0.00  0.00     0.328 A 
ATOM     17  HN  UNK N   1      27.923  17.340   6.834  1.00  0.00     0.172 HD
HETATM   18  O   UNK N   1      30.012  16.325   5.957  0.00  0.00    -0.246 OA
BRANCH  14  19
HETATM   19  N   UNK N   1      27.459  18.865   8.874  0.00  0.00    -0.385 N 
HETATM   20  H   UNK N   1      27.404  19.648   9.467  0.00  0.00     0.157 HD
HETATM   21  H   UNK N   1      26.628  18.445   8.555  0.00  0.00     0.157 HD
ENDBRANCH  14  19
ENDBRANCH  10  11
ENDBRANCH   1  10
BRANCH   1  22
HETATM   22  C   UNK N   1      34.616  17.822   7.915  0.00  0.00     0.197 C 
BRANCH  22  23
HETATM   23  O   UNK N   1      35.022  19.096   8.321  0.00  0.00    -0.398 OA
HETATM   24  H   UNK N   1      35.683  19.523   8.888  0.00  0.00     0.209 HD
ENDBRANCH  22  23
ENDBRANCH   1  22
TORSDOF 10
ENDMDL
MODEL 5
REMARK VINA RESULT:      -5.4     12.867     15.019
REMARK  10 active torsions:
REMARK  status: ('A' for Active; 'I' for Inactive)
REMARK    1  A    between atoms: P_1  and  O_4 
REMARK    2  A    between atoms: P_1  and  O_5 
REMARK    3  A    between atoms: P_1  and  C_15 
REMARK    4  A    between atoms: C_12  and  O_2 
REMARK    5  A    between atoms: O_2  and  C_15 
REMARK    6  A    between atoms: O_3  and  C_14 
REMARK    7  A    between atoms: N_8  and  C_13 
REMARK    8  A    between atoms: N_11  and  C_19 
REMARK    9  A    between atoms: C_12  and  C_13 
REMARK   10  A    between atoms: C_12  and  C_14 
ROOT
HETATM    1  C   UNK N   1      21.024  19.750   2.167  0.00  0.00     0.164 C 
ENDROOT
BRANCH   1   2
HETATM    2  O   UNK N   1      21.665  20.181   3.324  0.00  0.00    -0.371 OA
BRANCH   2   3
HETATM    3  C   UNK N   1      23.005  19.802   3.295  0.00  0.00     0.292 C 
BRANCH   3   4
HETATM    4  P   UNK N   1      23.087  18.398   4.496  0.00  0.00     0.260 P 
HETATM    5  O   UNK N   1      22.931  17.098   3.665  0.00  0.00    -0.652 OA
BRANCH   4   6
HETATM    6  O   UNK N   1      24.510  18.110   5.448  0.00  0.00    -0.328 OA
HETATM    7  H   UNK N   1      25.175  18.754   5.738  0.00  0.00     0.220 HD
ENDBRANCH   4   6
BRANCH   4   8
HETATM    8  O   UNK N   1      21.707  18.337   5.545  0.00  0.00    -0.328 OA
HETATM    9  H   UNK N   1      20.793  18.458   5.244  0.00  0.00     0.220 HD
ENDBRANCH   4   8
ENDBRANCH   3   4
ENDBRANCH   2   3
ENDBRANCH   1   2
BRANCH   1  10
HETATM   10  C   UNK N   1      19.765  19.032   2.653  0.00  0.00     0.167 C 
BRANCH  10  11
HETATM   11  N   UNK N   1      19.786  17.612   2.348  0.00  0.00    -0.307 N 
HETATM   12  C   UNK N   1      20.075  17.234   1.074  0.00  0.00     0.099 A 
HETATM   13  C   UNK N   1      20.127  15.887   0.736  0.00  0.00     0.065 A 
HETATM   14  C   UNK N   1      19.867  14.940   1.721  0.00  0.00     0.103 A 
HETATM   15  N   UNK N   1      19.559  15.335   2.984  0.00  0.00    -0.295 N 
HETATM   16  C   UNK N   1      19.516  16.664   3.309  0.00  0.00     0.328 A 
ATOM     17  HN  UNK N   1      19.360  14.635   3.699  1.00  0.00     0.172 HD
HETATM   18  O   UNK N   1      19.233  16.999   4.448  0.00  0.00    -0.246 OA
BRANCH  14  19
HETATM   19  N   UNK N   1      19.924  13.569   1.408  0.00  0.00    -0.385 N 
HETATM   20  H   UNK N   1      19.423  12.900   1.926  0.00  0.00     0.157 HD
HETATM   21  H   UNK N   1      20.480  13.273   0.651  0.00  0.00     0.157 HD
ENDBRANCH  14  19
ENDBRANCH  10  11
ENDBRANCH   1  10
BRANCH   1  22
HETATM   22  C   UNK N   1      20.666  20.958   1.294  0.00  0.00     0.197 C 
BRANCH  22  23
HETATM   23  O   UNK N   1      20.624  20.601  -0.057  0.00  0.00    -0.398 OA
HETATM   24  H   UNK N   1      20.513  21.003  -0.932  0.00  0.00     0.209 HD
ENDBRANCH  22  23
ENDBRANCH   1  22
TORSDOF 10
ENDMDL
MODEL 6
REMARK VINA RESULT:      -5.4      4.028      6.313
REMARK  10 active torsions:
REMARK  status: ('A' for Active; 'I' for Inactive)
REMARK    1  A    between atoms: P_1  and  O_4 
REMARK    2  A    between atoms: P_1  and  O_5 
REMARK    3  A    between atoms: P_1  and  C_15 
REMARK    4  A    between atoms: C_12  and  O_2 
REMARK    5  A    between atoms: O_2  and  C_15 
REMARK    6  A    between atoms: O_3  and  C_14 
REMARK    7  A    between atoms: N_8  and  C_13 
REMARK    8  A    between atoms: N_11  and  C_19 
REMARK    9  A    between atoms: C_12  and  C_13 
REMARK   10  A    between atoms: C_12  and  C_14 
ROOT
HETATM    1  C   UNK N   1      33.140  15.681   7.885  0.00  0.00     0.164 C 
ENDROOT
BRANCH   1   2
HETATM    2  O   UNK N   1      34.412  16.147   8.198  0.00  0.00    -0.371 OA
BRANCH   2   3
HETATM    3  C   UNK N   1      35.173  15.119   8.751  0.00  0.00     0.292 C 
BRANCH   3   4
HETATM    4  P   UNK N   1      35.473  15.684  10.487  0.00  0.00     0.260 P 
HETATM    5  O   UNK N   1      34.944  17.139  10.573  0.00  0.00    -0.652 OA
BRANCH   4   6
HETATM    6  O   UNK N   1      34.718  14.891  11.834  0.00  0.00    -0.328 OA
HETATM    7  H   UNK N   1      35.146  14.493  12.609  0.00  0.00     0.220 HD
ENDBRANCH   4   6
BRANCH   4   8
HETATM    8  O   UNK N   1      37.159  15.880  10.842  0.00  0.00    -0.328 OA
HETATM    9  H   UNK N   1      37.547  15.737  11.719  0.00  0.00     0.220 HD
ENDBRANCH   4   8
ENDBRANCH   3   4
ENDBRANCH   2   3
ENDBRANCH   1   2
BRANCH   1  10
HETATM   10  C   UNK N   1      32.508  16.785   7.037  0.00  0.00     0.167 C 
BRANCH  10  11
HETATM   11  N   UNK N   1      31.224  17.215   7.560  0.00  0.00    -0.307 N 
HETATM   12  C   UNK N   1      31.216  18.085   8.605  0.00  0.00     0.099 A 
HETATM   13  C   UNK N   1      30.013  18.541   9.130  0.00  0.00     0.065 A 
HETATM   14  C   UNK N   1      28.823  18.083   8.573  0.00  0.00     0.103 A 
HETATM   15  N   UNK N   1      28.849  17.198   7.542  0.00  0.00    -0.295 N 
HETATM   16  C   UNK N   1      30.039  16.758   7.029  0.00  0.00     0.328 A 
ATOM     17  HN  UNK N   1      27.972  16.859   7.145  1.00  0.00     0.172 HD
HETATM   18  O   UNK N   1      30.040  15.960   6.106  0.00  0.00    -0.246 OA
BRANCH  14  19
HETATM   19  N   UNK N   1      27.592  18.539   9.078  0.00  0.00    -0.385 N 
HETATM   20  H   UNK N   1      27.461  19.475   9.352  0.00  0.00     0.157 HD
HETATM   21  H   UNK N   1      26.842  17.906   9.159  0.00  0.00     0.157 HD
ENDBRANCH  14  19
ENDBRANCH  10  11
ENDBRANCH   1  10
BRANCH   1  22
HETATM   22  C   UNK N   1      33.251  14.373   7.090  0.00  0.00     0.197 C 
BRANCH  22  23
HETATM   23  O   UNK N   1      31.989  13.812   6.878  0.00  0.00    -0.398 OA
HETATM   24  H   UNK N   1      31.362  13.204   7.300  0.00  0.00     0.209 HD
ENDBRANCH  22  23
ENDBRANCH   1  22
TORSDOF 10
ENDMDL
MODEL 7
REMARK VINA RESULT:      -5.4      3.936      6.309
REMARK  10 active torsions:
REMARK  status: ('A' for Active; 'I' for Inactive)
REMARK    1  A    between atoms: P_1  and  O_4 
REMARK    2  A    between atoms: P_1  and  O_5 
REMARK    3  A    between atoms: P_1  and  C_15 
REMARK    4  A    between atoms: C_12  and  O_2 
REMARK    5  A    between atoms: O_2  and  C_15 
REMARK    6  A    between atoms: O_3  and  C_14 
REMARK    7  A    between atoms: N_8  and  C_13 
REMARK    8  A    between atoms: N_11  and  C_19 
REMARK    9  A    between atoms: C_12  and  C_13 
REMARK   10  A    between atoms: C_12  and  C_14 
ROOT
HETATM    1  C   UNK N   1      34.988  14.933  10.472  0.00  0.00     0.164 C 
ENDROOT
BRANCH   1   2
HETATM    2  O   UNK N   1      34.635  14.550  11.762  0.00  0.00    -0.371 OA
BRANCH   2   3
HETATM    3  C   UNK N   1      35.070  13.250  12.008  0.00  0.00     0.292 C 
BRANCH   3   4
HETATM    4  P   UNK N   1      35.978  13.389  13.613  0.00  0.00     0.260 P 
HETATM    5  O   UNK N   1      34.898  13.432  14.726  0.00  0.00    -0.652 OA
BRANCH   4   6
HETATM    6  O   UNK N   1      37.066  12.146  14.143  0.00  0.00    -0.328 OA
HETATM    7  H   UNK N   1      37.971  12.247  14.479  0.00  0.00     0.220 HD
ENDBRANCH   4   6
BRANCH   4   8
HETATM    8  O   UNK N   1      36.767  14.922  13.801  0.00  0.00    -0.328 OA
HETATM    9  H   UNK N   1      36.785  15.423  14.632  0.00  0.00     0.220 HD
ENDBRANCH   4   8
ENDBRANCH   3   4
ENDBRANCH   2   3
ENDBRANCH   1   2
BRANCH   1  10
HETATM   10  C   UNK N   1      34.509  16.379  10.340  0.00  0.00     0.167 C 
BRANCH  10  11
HETATM   11  N   UNK N   1      33.981  16.666   9.019  0.00  0.00    -0.307 N 
HETATM   12  C   UNK N   1      33.094  15.789   8.478  0.00  0.00     0.099 A 
HETATM   13  C   UNK N   1      32.545  16.029   7.224  0.00  0.00     0.065 A 
HETATM   14  C   UNK N   1      32.929  17.174   6.533  0.00  0.00     0.103 A 
HETATM   15  N   UNK N   1      33.832  18.030   7.079  0.00  0.00    -0.295 N 
HETATM   16  C   UNK N   1      34.364  17.787   8.317  0.00  0.00     0.328 A 
ATOM     17  HN  UNK N   1      34.117  18.862   6.562  1.00  0.00     0.172 HD
HETATM   18  O   UNK N   1      35.177  18.566   8.788  0.00  0.00    -0.246 OA
BRANCH  14  19
HETATM   19  N   UNK N   1      32.379  17.446   5.267  0.00  0.00    -0.385 N 
HETATM   20  H   UNK N   1      32.864  17.980   4.598  0.00  0.00     0.157 HD
HETATM   21  H   UNK N   1      31.487  17.094   5.045  0.00  0.00     0.157 HD
ENDBRANCH  14  19
ENDBRANCH  10  11
ENDBRANCH   1  10
BRANCH   1  22
HETATM   22  C   UNK N   1      36.509  14.840  10.304  0.00  0.00     0.197 C 
BRANCH  22  23
HETATM   23  O   UNK N   1      37.141  15.955  10.862  0.00  0.00    -0.398 OA
HETATM   24  H   UNK N   1      37.452  16.839  10.612  0.00  0.00     0.209 HD
ENDBRANCH  22  23
ENDBRANCH   1  22
TORSDOF 10
ENDMDL
MODEL 8
REMARK VINA RESULT:      -5.3      3.671      6.519
REMARK  10 active torsions:
REMARK  status: ('A' for Active; 'I' for Inactive)
REMARK    1  A    between atoms: P_1  and  O_4 
REMARK    2  A    between atoms: P_1  and  O_5 
REMARK    3  A    between atoms: P_1  and  C_15 
REMARK    4  A    between atoms: C_12  and  O_2 
REMARK    5  A    between atoms: O_2  and  C_15 
REMARK    6  A    between atoms: O_3  and  C_14 
REMARK    7  A    between atoms: N_8  and  C_13 
REMARK    8  A    between atoms: N_11  and  C_19 
REMARK    9  A    between atoms: C_12  and  C_13 
REMARK   10  A    between atoms: C_12  and  C_14 
ROOT
HETATM    1  C   UNK N   1      32.833  17.060   7.944  0.00  0.00     0.164 C 
ENDROOT
BRANCH   1   2
HETATM    2  O   UNK N   1      33.239  16.193   8.952  0.00  0.00    -0.371 OA
BRANCH   2   3
HETATM    3  C   UNK N   1      34.531  15.738   8.697  0.00  0.00     0.292 C 
BRANCH   3   4
HETATM    4  P   UNK N   1      35.355  15.813  10.350  0.00  0.00     0.260 P 
HETATM    5  O   UNK N   1      34.694  14.713  11.221  0.00  0.00    -0.652 OA
BRANCH   4   6
HETATM    6  O   UNK N   1      37.055  15.508  10.524  0.00  0.00    -0.328 OA
HETATM    7  H   UNK N   1      37.656  15.843  11.208  0.00  0.00     0.220 HD
ENDBRANCH   4   6
BRANCH   4   8
HETATM    8  O   UNK N   1      34.969  17.261  11.223  0.00  0.00    -0.328 OA
HETATM    9  H   UNK N   1      34.552  17.270  12.099  0.00  0.00     0.220 HD
ENDBRANCH   4   8
ENDBRANCH   3   4
ENDBRANCH   2   3
ENDBRANCH   1   2
BRANCH   1  10
HETATM   10  C   UNK N   1      31.783  17.962   8.593  0.00  0.00     0.167 C 
BRANCH  10  11
HETATM   11  N   UNK N   1      30.437  17.654   8.143  0.00  0.00    -0.307 N 
HETATM   12  C   UNK N   1      30.291  16.972   6.976  0.00  0.00     0.099 A 
HETATM   13  C   UNK N   1      29.025  16.637   6.511  0.00  0.00     0.065 A 
HETATM   14  C   UNK N   1      27.915  17.022   7.257  0.00  0.00     0.103 A 
HETATM   15  N   UNK N   1      28.078  17.721   8.411  0.00  0.00    -0.295 N 
HETATM   16  C   UNK N   1      29.330  18.043   8.863  0.00  0.00     0.328 A 
ATOM     17  HN  UNK N   1      27.259  18.009   8.947  1.00  0.00     0.172 HD
HETATM   18  O   UNK N   1      29.454  18.675   9.899  0.00  0.00    -0.246 OA
BRANCH  14  19
HETATM   19  N   UNK N   1      26.623  16.685   6.815  0.00  0.00    -0.385 N 
HETATM   20  H   UNK N   1      25.858  16.655   7.433  0.00  0.00     0.157 HD
HETATM   21  H   UNK N   1      26.481  16.473   5.865  0.00  0.00     0.157 HD
ENDBRANCH  14  19
ENDBRANCH  10  11
ENDBRANCH   1  10
BRANCH   1  22
HETATM   22  C   UNK N   1      34.033  17.879   7.453  0.00  0.00     0.197 C 
BRANCH  22  23
HETATM   23  O   UNK N   1      34.095  17.881   6.056  0.00  0.00    -0.398 OA
HETATM   24  H   UNK N   1      34.323  18.470   5.320  0.00  0.00     0.209 HD
ENDBRANCH  22  23
ENDBRANCH   1  22
TORSDOF 10
ENDMDL
MODEL 9
REMARK VINA RESULT:      -5.1     14.749     16.730
REMARK  10 active torsions:
REMARK  status: ('A' for Active; 'I' for Inactive)
REMARK    1  A    between atoms: P_1  and  O_4 
REMARK    2  A    between atoms: P_1  and  O_5 
REMARK    3  A    between atoms: P_1  and  C_15 
REMARK    4  A    between atoms: C_12  and  O_2 
REMARK    5  A    between atoms: O_2  and  C_15 
REMARK    6  A    between atoms: O_3  and  C_14 
REMARK    7  A    between atoms: N_8  and  C_13 
REMARK    8  A    between atoms: N_11  and  C_19 
REMARK    9  A    between atoms: C_12  and  C_13 
REMARK   10  A    between atoms: C_12  and  C_14 
ROOT
HETATM    1  C   UNK N   1      27.857  24.775  -4.558  0.00  0.00     0.164 C 
ENDROOT
BRANCH   1   2
HETATM    2  O   UNK N   1      27.785  26.139  -4.821  0.00  0.00    -0.371 OA
BRANCH   2   3
HETATM    3  C   UNK N   1      28.255  26.860  -3.725  0.00  0.00     0.292 C 
BRANCH   3   4
HETATM    4  P   UNK N   1      27.010  28.213  -3.526  0.00  0.00     0.260 P 
HETATM    5  O   UNK N   1      27.442  29.029  -2.280  0.00  0.00    -0.652 OA
BRANCH   4   6
HETATM    6  O   UNK N   1      26.789  29.420  -4.754  0.00  0.00    -0.328 OA
HETATM    7  H   UNK N   1      26.227  29.374  -5.543  0.00  0.00     0.220 HD
ENDBRANCH   4   6
BRANCH   4   8
HETATM    8  O   UNK N   1      25.449  27.618  -3.058  0.00  0.00    -0.328 OA
HETATM    9  H   UNK N   1      24.830  27.188  -3.667  0.00  0.00     0.220 HD
ENDBRANCH   4   8
ENDBRANCH   3   4
ENDBRANCH   2   3
ENDBRANCH   1   2
BRANCH   1  10
HETATM   10  C   UNK N   1      29.023  24.618  -3.582  0.00  0.00     0.167 C 
BRANCH  10  11
HETATM   11  N   UNK N   1      29.711  23.350  -3.745  0.00  0.00    -0.307 N 
HETATM   12  C   UNK N   1      29.672  22.751  -4.966  0.00  0.00     0.099 A 
HETATM   13  C   UNK N   1      30.330  21.546  -5.178  0.00  0.00     0.065 A 
HETATM   14  C   UNK N   1      31.018  20.963  -4.118  0.00  0.00     0.103 A 
HETATM   15  N   UNK N   1      31.030  21.564  -2.899  0.00  0.00    -0.295 N 
HETATM   16  C   UNK N   1      30.382  22.754  -2.701  0.00  0.00     0.328 A 
ATOM     17  HN  UNK N   1      31.528  21.126  -2.124  1.00  0.00     0.172 HD
HETATM   18  O   UNK N   1      30.401  23.275  -1.598  0.00  0.00    -0.246 OA
BRANCH  14  19
HETATM   19  N   UNK N   1      31.703  19.749  -4.310  0.00  0.00    -0.385 N 
HETATM   20  H   UNK N   1      31.724  19.301  -5.186  0.00  0.00     0.157 HD
HETATM   21  H   UNK N   1      32.172  19.337  -3.549  0.00  0.00     0.157 HD
ENDBRANCH  14  19
ENDBRANCH  10  11
ENDBRANCH   1  10
BRANCH   1  22
HETATM   22  C   UNK N   1      26.543  24.302  -3.925  0.00  0.00     0.197 C 
BRANCH  22  23
HETATM   23  O   UNK N   1      26.730  23.970  -2.580  0.00  0.00    -0.398 OA
HETATM   24  H   UNK N   1      26.538  23.254  -1.954  0.00  0.00     0.209 HD
ENDBRANCH  22  23
ENDBRANCH   1  22
TORSDOF 10
ENDMDL
