MODEL 1
REMARK VINA RESULT:      -7.2      0.000      0.000
REMARK  0 active torsions:
REMARK  status: ('A' for Active; 'I' for Inactive)
ROOT
HETATM    1  N   UNK N   1      36.459  12.907  14.435  0.00  0.00    -0.354 N 
HETATM    2  N   UNK N   1      36.726  11.240  12.164  0.00  0.00     0.088 N 
HETATM    3  N   UNK N   1      37.299  15.004  15.261  0.00  0.00    -0.352 N 
ATOM      4  HN  UNK N   1      37.752  15.115  14.354  1.00  0.00     0.166 HD
HETATM    5  C   UNK N   1      36.090  11.483  14.568  0.00  0.00     0.147 C 
HETATM    6  C   UNK N   1      36.842  10.658  13.493  0.00  0.00     0.301 C 
HETATM    7  C   UNK N   1      36.520  13.450  13.090  0.00  0.00     0.155 C 
HETATM    8  C   UNK N   1      37.349  12.554  12.194  0.00  0.00     0.291 C 
HETATM    9  C   UNK N   1      36.288  10.815  15.936  0.00  0.00    -0.027 A 
HETATM   10  C   UNK N   1      36.577  13.865  15.498  0.00  0.00     0.110 A 
HETATM   11  C   UNK N   1      35.719  11.348  17.102  0.00  0.00    -0.045 A 
HETATM   12  C   UNK N   1      34.983  12.622  17.059  0.00  0.00     0.081 C 
HETATM   13  C   UNK N   1      35.911  13.741  16.742  0.00  0.00    -0.010 A 
HETATM   14  C   UNK N   1      37.520  10.419  11.270  0.00  0.00     0.310 C 
HETATM   15  C   UNK N   1      36.984   9.589  16.037  0.00  0.00     0.010 A 
HETATM   16  C   UNK N   1      35.839  10.678  18.326  0.00  0.00     0.008 A 
HETATM   17  C   UNK N   1      36.048  14.756  17.694  0.00  0.00     0.012 A 
HETATM   18  C   UNK N   1      37.104   8.923  17.259  0.00  0.00     0.001 A 
HETATM   19  C   UNK N   1      36.526   9.466  18.405  0.00  0.00     0.001 A 
HETATM   20  C   UNK N   1      36.823  15.880  17.422  0.00  0.00     0.018 A 
HETATM   21  C   UNK N   1      37.439  15.992  16.181  0.00  0.00     0.089 A 
ENDROOT
TORSDOF 0
ENDMDL
MODEL 2
REMARK VINA RESULT:      -7.2     23.422     26.137
REMARK  0 active torsions:
REMARK  status: ('A' for Active; 'I' for Inactive)
ROOT
HETATM    1  N   UNK N   1      26.622  24.479  -6.134  0.00  0.00    -0.354 N 
HETATM    2  N   UNK N   1      26.429  26.841  -4.588  0.00  0.00     0.088 N 
HETATM    3  N   UNK N   1      25.179  22.921  -7.263  0.00  0.00    -0.352 N 
ATOM      4  HN  UNK N   1      24.411  23.550  -7.029  1.00  0.00     0.166 HD
HETATM    5  C   UNK N   1      27.763  24.840  -5.268  0.00  0.00     0.147 C 
HETATM    6  C   UNK N   1      27.261  25.744  -4.113  0.00  0.00     0.301 C 
HETATM    7  C   UNK N   1      25.685  25.537  -6.466  0.00  0.00     0.155 C 
HETATM    8  C   UNK N   1      25.248  26.269  -5.215  0.00  0.00     0.291 C 
HETATM    9  C   UNK N   1      28.603  23.699  -4.676  0.00  0.00    -0.027 A 
HETATM   10  C   UNK N   1      26.442  23.244  -6.843  0.00  0.00     0.110 A 
HETATM   11  C   UNK N   1      29.188  22.721  -5.491  0.00  0.00    -0.045 A 
HETATM   12  C   UNK N   1      28.937  22.709  -6.942  0.00  0.00     0.081 C 
HETATM   13  C   UNK N   1      27.509  22.389  -7.213  0.00  0.00    -0.010 A 
HETATM   14  C   UNK N   1      25.974  27.565  -3.416  0.00  0.00     0.310 C 
HETATM   15  C   UNK N   1      28.880  23.661  -3.291  0.00  0.00     0.010 A 
HETATM   16  C   UNK N   1      30.023  21.738  -4.943  0.00  0.00     0.008 A 
HETATM   17  C   UNK N   1      27.235  21.234  -7.950  0.00  0.00     0.012 A 
HETATM   18  C   UNK N   1      29.711  22.681  -2.745  0.00  0.00     0.001 A 
HETATM   19  C   UNK N   1      30.287  21.720  -3.574  0.00  0.00     0.001 A 
HETATM   20  C   UNK N   1      25.929  20.927  -8.324  0.00  0.00     0.018 A 
HETATM   21  C   UNK N   1      24.904  21.799  -7.975  0.00  0.00     0.089 A 
ENDROOT
TORSDOF 0
ENDMDL
MODEL 3
REMARK VINA RESULT:      -6.9     11.630     13.581
REMARK  0 active torsions:
REMARK  status: ('A' for Active; 'I' for Inactive)
ROOT
HETATM    1  N   UNK N   1      28.401  17.138   4.814  0.00  0.00    -0.354 N 
HETATM    2  N   UNK N   1      29.301  14.757   3.579  0.00  0.00     0.088 N 
HETATM    3  N   UNK N   1      27.501  19.281   4.195  0.00  0.00    -0.352 N 
ATOM      4  HN  UNK N   1      27.477  18.931   3.237  1.00  0.00     0.166 HD
HETATM    5  C   UNK N   1      29.295  16.249   5.584  0.00  0.00     0.147 C 
HETATM    6  C   UNK N   1      30.127  15.387   4.600  0.00  0.00     0.301 C 
HETATM    7  C   UNK N   1      27.709  16.556   3.679  0.00  0.00     0.155 C 
HETATM    8  C   UNK N   1      28.682  15.811   2.791  0.00  0.00     0.291 C 
HETATM    9  C   UNK N   1      30.244  16.894   6.604  0.00  0.00    -0.027 A 
HETATM   10  C   UNK N   1      27.990  18.464   5.180  0.00  0.00     0.110 A 
HETATM   11  C   UNK N   1      29.768  17.735   7.619  0.00  0.00    -0.045 A 
HETATM   12  C   UNK N   1      28.342  18.096   7.682  0.00  0.00     0.081 C 
HETATM   13  C   UNK N   1      27.974  18.941   6.514  0.00  0.00    -0.010 A 
HETATM   14  C   UNK N   1      30.198  14.040   2.692  0.00  0.00     0.310 C 
HETATM   15  C   UNK N   1      31.622  16.581   6.593  0.00  0.00     0.010 A 
HETATM   16  C   UNK N   1      30.637  18.245   8.592  0.00  0.00     0.008 A 
HETATM   17  C   UNK N   1      27.505  20.232   6.772  0.00  0.00     0.012 A 
HETATM   18  C   UNK N   1      32.488  17.091   7.563  0.00  0.00     0.001 A 
HETATM   19  C   UNK N   1      31.994  17.921   8.567  0.00  0.00     0.001 A 
HETATM   20  C   UNK N   1      27.051  21.041   5.734  0.00  0.00     0.018 A 
HETATM   21  C   UNK N   1      27.048  20.537   4.438  0.00  0.00     0.089 A 
ENDROOT
TORSDOF 0
ENDMDL
MODEL 4
REMARK VINA RESULT:      -6.8     14.785     15.735
REMARK  0 active torsions:
REMARK  status: ('A' for Active; 'I' for Inactive)
ROOT
HETATM    1  N   UNK N   1      22.892  14.399   7.072  0.00  0.00    -0.354 N 
HETATM    2  N   UNK N   1      25.297  13.714   5.748  0.00  0.00     0.088 N 
HETATM    3  N   UNK N   1      21.467  16.312   7.381  0.00  0.00    -0.352 N 
ATOM      4  HN  UNK N   1      22.066  16.795   6.712  1.00  0.00     0.166 HD
HETATM    5  C   UNK N   1      23.629  13.207   7.539  0.00  0.00     0.147 C 
HETATM    6  C   UNK N   1      25.122  13.344   7.146  0.00  0.00     0.301 C 
HETATM    7  C   UNK N   1      23.195  14.882   5.737  0.00  0.00     0.155 C 
HETATM    8  C   UNK N   1      24.691  15.021   5.551  0.00  0.00     0.291 C 
HETATM    9  C   UNK N   1      23.539  12.845   9.028  0.00  0.00    -0.027 A 
HETATM   10  C   UNK N   1      21.769  15.019   7.717  0.00  0.00     0.110 A 
HETATM   11  C   UNK N   1      22.303  12.659   9.664  0.00  0.00    -0.045 A 
HETATM   12  C   UNK N   1      21.046  12.894   8.935  0.00  0.00     0.081 C 
HETATM   13  C   UNK N   1      20.904  14.340   8.609  0.00  0.00    -0.010 A 
HETATM   14  C   UNK N   1      26.722  13.873   5.527  0.00  0.00     0.310 C 
HETATM   15  C   UNK N   1      24.713  12.604   9.776  0.00  0.00     0.010 A 
HETATM   16  C   UNK N   1      22.242  12.244  11.000  0.00  0.00     0.008 A 
HETATM   17  C   UNK N   1      19.805  15.018   9.145  0.00  0.00     0.012 A 
HETATM   18  C   UNK N   1      24.651  12.192  11.109  0.00  0.00     0.001 A 
HETATM   19  C   UNK N   1      23.412  12.007  11.721  0.00  0.00     0.001 A 
HETATM   20  C   UNK N   1      19.557  16.344   8.802  0.00  0.00     0.018 A 
HETATM   21  C   UNK N   1      20.404  16.978   7.900  0.00  0.00     0.089 A 
ENDROOT
TORSDOF 0
ENDMDL
MODEL 5
REMARK VINA RESULT:      -6.7      1.636      2.525
REMARK  0 active torsions:
REMARK  status: ('A' for Active; 'I' for Inactive)
ROOT
HETATM    1  N   UNK N   1      35.967  12.344  14.874  0.00  0.00    -0.354 N 
HETATM    2  N   UNK N   1      36.667  12.716  12.158  0.00  0.00     0.088 N 
HETATM    3  N   UNK N   1      35.631  13.656  16.862  0.00  0.00    -0.352 N 
ATOM      4  HN  UNK N   1      35.755  14.479  16.272  1.00  0.00     0.166 HD
HETATM    5  C   UNK N   1      36.494  11.185  14.125  0.00  0.00     0.147 C 
HETATM    6  C   UNK N   1      37.349  11.691  12.936  0.00  0.00     0.301 C 
HETATM    7  C   UNK N   1      35.447  13.453  14.095  0.00  0.00     0.155 C 
HETATM    8  C   UNK N   1      36.439  13.860  13.026  0.00  0.00     0.291 C 
HETATM    9  C   UNK N   1      37.297  10.133  14.903  0.00  0.00    -0.027 A 
HETATM   10  C   UNK N   1      35.735  12.416  16.289  0.00  0.00     0.110 A 
HETATM   11  C   UNK N   1      36.771   9.499  16.038  0.00  0.00    -0.045 A 
HETATM   12  C   UNK N   1      35.457   9.893  16.571  0.00  0.00     0.081 C 
HETATM   13  C   UNK N   1      35.514  11.281  17.107  0.00  0.00    -0.010 A 
HETATM   14  C   UNK N   1      37.591  13.149  11.126  0.00  0.00     0.310 C 
HETATM   15  C   UNK N   1      38.564   9.714  14.436  0.00  0.00     0.010 A 
HETATM   16  C   UNK N   1      37.484   8.481  16.683  0.00  0.00     0.008 A 
HETATM   17  C   UNK N   1      35.244  11.460  18.466  0.00  0.00     0.012 A 
HETATM   18  C   UNK N   1      39.274   8.699  15.081  0.00  0.00     0.001 A 
HETATM   19  C   UNK N   1      38.731   8.078  16.204  0.00  0.00     0.001 A 
HETATM   20  C   UNK N   1      35.184  12.739  19.013  0.00  0.00     0.018 A 
HETATM   21  C   UNK N   1      35.372  13.838  18.182  0.00  0.00     0.089 A 
ENDROOT
TORSDOF 0
ENDMDL
MODEL 6
REMARK VINA RESULT:      -6.5      8.891     11.742
REMARK  0 active torsions:
REMARK  status: ('A' for Active; 'I' for Inactive)
ROOT
HETATM    1  N   UNK N   1      31.417  16.616   7.854  0.00  0.00    -0.354 N 
HETATM    2  N   UNK N   1      28.901  17.838   7.424  0.00  0.00     0.088 N 
HETATM    3  N   UNK N   1      33.295  16.794   9.346  0.00  0.00    -0.352 N 
ATOM      4  HN  UNK N   1      32.743  17.474   9.869  1.00  0.00     0.166 HD
HETATM    5  C   UNK N   1      30.792  16.474   6.523  0.00  0.00     0.147 C 
HETATM    6  C   UNK N   1      29.802  17.645   6.296  0.00  0.00     0.301 C 
HETATM    7  C   UNK N   1      30.548  16.986   8.956  0.00  0.00     0.155 C 
HETATM    8  C   UNK N   1      29.705  18.188   8.585  0.00  0.00     0.291 C 
HETATM    9  C   UNK N   1      31.717  16.361   5.303  0.00  0.00    -0.027 A 
HETATM   10  C   UNK N   1      32.755  16.241   8.216  0.00  0.00     0.110 A 
HETATM   11  C   UNK N   1      32.720  15.385   5.231  0.00  0.00    -0.045 A 
HETATM   12  C   UNK N   1      32.973  14.489   6.371  0.00  0.00     0.081 C 
HETATM   13  C   UNK N   1      33.510  15.262   7.523  0.00  0.00    -0.010 A 
HETATM   14  C   UNK N   1      28.080  18.994   7.118  0.00  0.00     0.310 C 
HETATM   15  C   UNK N   1      31.518  17.194   4.178  0.00  0.00     0.010 A 
HETATM   16  C   UNK N   1      33.497  15.242   4.074  0.00  0.00     0.008 A 
HETATM   17  C   UNK N   1      34.785  14.929   7.987  0.00  0.00     0.012 A 
HETATM   18  C   UNK N   1      32.294  17.051   3.026  0.00  0.00     0.001 A 
HETATM   19  C   UNK N   1      33.283  16.070   2.972  0.00  0.00     0.001 A 
HETATM   20  C   UNK N   1      35.308  15.544   9.121  0.00  0.00     0.018 A 
HETATM   21  C   UNK N   1      34.534  16.478   9.801  0.00  0.00     0.089 A 
ENDROOT
TORSDOF 0
ENDMDL
MODEL 7
REMARK VINA RESULT:      -6.5      8.778     11.781
REMARK  0 active torsions:
REMARK  status: ('A' for Active; 'I' for Inactive)
ROOT
HETATM    1  N   UNK N   1      32.931  16.660   7.251  0.00  0.00    -0.354 N 
HETATM    2  N   UNK N   1      35.130  15.845   8.834  0.00  0.00     0.088 N 
HETATM    3  N   UNK N   1      30.538  16.848   7.419  0.00  0.00    -0.352 N 
ATOM      4  HN  UNK N   1      30.644  16.590   8.401  1.00  0.00     0.166 HD
HETATM    5  C   UNK N   1      34.185  16.292   6.564  0.00  0.00     0.147 C 
HETATM    6  C   UNK N   1      35.006  15.342   7.474  0.00  0.00     0.301 C 
HETATM    7  C   UNK N   1      33.023  16.991   8.661  0.00  0.00     0.155 C 
HETATM    8  C   UNK N   1      33.795  15.924   9.407  0.00  0.00     0.291 C 
HETATM    9  C   UNK N   1      34.081  15.671   5.163  0.00  0.00    -0.027 A 
HETATM   10  C   UNK N   1      31.659  16.914   6.635  0.00  0.00     0.110 A 
HETATM   11  C   UNK N   1      33.389  16.313   4.127  0.00  0.00    -0.045 A 
HETATM   12  C   UNK N   1      32.662  17.568   4.379  0.00  0.00     0.081 C 
HETATM   13  C   UNK N   1      31.508  17.320   5.286  0.00  0.00    -0.010 A 
HETATM   14  C   UNK N   1      35.854  14.843   9.593  0.00  0.00     0.310 C 
HETATM   15  C   UNK N   1      34.761  14.469   4.863  0.00  0.00     0.010 A 
HETATM   16  C   UNK N   1      33.378  15.774   2.834  0.00  0.00     0.008 A 
HETATM   17  C   UNK N   1      30.229  17.595   4.794  0.00  0.00     0.012 A 
HETATM   18  C   UNK N   1      34.749  13.933   3.574  0.00  0.00     0.001 A 
HETATM   19  C   UNK N   1      34.059  14.589   2.556  0.00  0.00     0.001 A 
HETATM   20  C   UNK N   1      29.114  17.479   5.620  0.00  0.00     0.018 A 
HETATM   21  C   UNK N   1      29.293  17.110   6.948  0.00  0.00     0.089 A 
ENDROOT
TORSDOF 0
ENDMDL
MODEL 8
REMARK VINA RESULT:      -6.4      1.872      2.203
REMARK  0 active torsions:
REMARK  status: ('A' for Active; 'I' for Inactive)
ROOT
HETATM    1  N   UNK N   1      35.383  13.090  13.075  0.00  0.00    -0.354 N 
HETATM    2  N   UNK N   1      34.896  12.221  10.427  0.00  0.00     0.088 N 
HETATM    3  N   UNK N   1      36.754  14.683  14.244  0.00  0.00    -0.352 N 
ATOM      4  HN  UNK N   1      37.045  15.020  13.326  1.00  0.00     0.166 HD
HETATM    5  C   UNK N   1      34.773  11.758  12.880  0.00  0.00     0.147 C 
HETATM    6  C   UNK N   1      35.138  11.232  11.468  0.00  0.00     0.301 C 
HETATM    7  C   UNK N   1      35.300  14.023  11.967  0.00  0.00     0.155 C 
HETATM    8  C   UNK N   1      35.759  13.363  10.683  0.00  0.00     0.291 C 
HETATM    9  C   UNK N   1      35.086  10.667  13.913  0.00  0.00    -0.027 A 
HETATM   10  C   UNK N   1      35.879  13.631  14.309  0.00  0.00     0.110 A 
HETATM   11  C   UNK N   1      34.856  10.865  15.282  0.00  0.00    -0.045 A 
HETATM   12  C   UNK N   1      34.388  12.170  15.779  0.00  0.00     0.081 C 
HETATM   13  C   UNK N   1      35.443  13.202  15.586  0.00  0.00    -0.010 A 
HETATM   14  C   UNK N   1      35.336  11.634   9.175  0.00  0.00     0.310 C 
HETATM   15  C   UNK N   1      35.535   9.394  13.493  0.00  0.00     0.010 A 
HETATM   16  C   UNK N   1      35.066   9.828  16.200  0.00  0.00     0.008 A 
HETATM   17  C   UNK N   1      35.948  13.830  16.727  0.00  0.00     0.012 A 
HETATM   18  C   UNK N   1      35.744   8.362  14.409  0.00  0.00     0.001 A 
HETATM   19  C   UNK N   1      35.505   8.578  15.765  0.00  0.00     0.001 A 
HETATM   20  C   UNK N   1      36.864  14.872  16.614  0.00  0.00     0.018 A 
HETATM   21  C   UNK N   1      37.252  15.296  15.348  0.00  0.00     0.089 A 
ENDROOT
TORSDOF 0
ENDMDL
MODEL 9
REMARK VINA RESULT:      -6.4      9.130     11.517
REMARK  0 active torsions:
REMARK  status: ('A' for Active; 'I' for Inactive)
ROOT
HETATM    1  N   UNK N   1      32.029  16.107   5.849  0.00  0.00    -0.354 N 
HETATM    2  N   UNK N   1      30.478  16.255   3.488  0.00  0.00     0.088 N 
HETATM    3  N   UNK N   1      33.518  14.575   6.955  0.00  0.00    -0.352 N 
ATOM      4  HN  UNK N   1      33.443  13.990   6.123  1.00  0.00     0.166 HD
HETATM    5  C   UNK N   1      30.911  17.072   5.810  0.00  0.00     0.147 C 
HETATM    6  C   UNK N   1      29.868  16.601   4.764  0.00  0.00     0.301 C 
HETATM    7  C   UNK N   1      32.526  15.619   4.576  0.00  0.00     0.155 C 
HETATM    8  C   UNK N   1      31.381  15.137   3.711  0.00  0.00     0.291 C 
HETATM    9  C   UNK N   1      30.188  17.386   7.127  0.00  0.00    -0.027 A 
HETATM   10  C   UNK N   1      32.808  15.745   7.000  0.00  0.00     0.110 A 
HETATM   11  C   UNK N   1      30.885  17.834   8.257  0.00  0.00    -0.045 A 
HETATM   12  C   UNK N   1      32.354  17.931   8.239  0.00  0.00     0.081 C 
HETATM   13  C   UNK N   1      32.957  16.575   8.139  0.00  0.00    -0.010 A 
HETATM   14  C   UNK N   1      29.414  15.771   2.628  0.00  0.00     0.310 C 
HETATM   15  C   UNK N   1      28.778  17.313   7.201  0.00  0.00     0.010 A 
HETATM   16  C   UNK N   1      30.198  18.199   9.423  0.00  0.00     0.008 A 
HETATM   17  C   UNK N   1      33.781  16.155   9.186  0.00  0.00     0.012 A 
HETATM   18  C   UNK N   1      28.095  17.676   8.364  0.00  0.00     0.001 A 
HETATM   19  C   UNK N   1      28.807  18.124   9.476  0.00  0.00     0.001 A 
HETATM   20  C   UNK N   1      34.456  14.940   9.112  0.00  0.00     0.018 A 
HETATM   21  C   UNK N   1      34.318  14.159   7.970  0.00  0.00     0.089 A 
ENDROOT
TORSDOF 0
ENDMDL
