MODEL 1
REMARK VINA RESULT:      -5.1      0.000      0.000
REMARK  8 active torsions:
REMARK  status: ('A' for Active; 'I' for Inactive)
REMARK    1  A    between atoms: O_1  and  C_9 
REMARK    2  A    between atoms: O_1  and  C_14 
REMARK    3  A    between atoms: O_2  and  C_10 
REMARK    4  A    between atoms: O_2  and  C_15 
REMARK       I    between atoms: N_5  and  C_14 
REMARK       I    between atoms: N_6  and  C_15 
REMARK    5  A    between atoms: C_7  and  C_8 
REMARK    6  A    between atoms: C_7  and  C_9 
REMARK    7  A    between atoms: C_7  and  C_10 
REMARK    8  A    between atoms: C_8  and  C_12 
ROOT
HETATM    1  C   UNK N   1      32.206  16.988   7.859  0.00  0.00     0.000 C 
HETATM    2  C   UNK N   1      32.779  18.367   8.133  0.00  0.00     0.019 C 
ENDROOT
BRANCH   1   3
HETATM    3  C   UNK N   1      31.968  16.879   6.342  0.00  0.00     0.013 C 
BRANCH   3   4
HETATM    4  C   UNK N   1      33.118  17.429   5.512  0.00  0.00    -0.004 C 
HETATM    5  C   UNK N   1      32.699  17.480   4.060  0.00  0.00     0.005 C 
ENDBRANCH   3   4
ENDBRANCH   1   3
BRANCH   1   6
HETATM    6  C   UNK N   1      30.901  16.827   8.651  0.00  0.00     0.192 C 
BRANCH   6   7
HETATM    7  O   UNK N   1      29.987  17.815   8.341  0.00  0.00    -0.303 OA
BRANCH   7   8
HETATM    8  C   UNK N   1      29.176  18.402   9.249  0.00  0.00     0.358 C 
HETATM    9  O   UNK N   1      29.658  18.856  10.275  0.00  0.00    -0.239 OA
HETATM   10  N   UNK N   1      27.847  18.499   9.036  0.00  0.00    -0.346 N 
HETATM   11  H   UNK N   1      27.422  17.972   8.323  0.00  0.00     0.161 HD
HETATM   12  H   UNK N   1      27.303  19.099   9.597  0.00  0.00     0.161 HD
ENDBRANCH   7   8
ENDBRANCH   6   7
ENDBRANCH   1   6
BRANCH   1  13
HETATM   13  C   UNK N   1      33.194  15.934   8.385  0.00  0.00     0.192 C 
BRANCH  13  14
HETATM   14  O   UNK N   1      34.391  16.492   8.790  0.00  0.00    -0.303 OA
BRANCH  14  15
HETATM   15  C   UNK N   1      34.819  16.515  10.072  0.00  0.00     0.358 C 
HETATM   16  O   UNK N   1      35.645  17.336  10.444  0.00  0.00    -0.239 OA
HETATM   17  N   UNK N   1      34.318  15.627  10.952  0.00  0.00    -0.346 N 
HETATM   18  H   UNK N   1      33.861  14.813  10.639  0.00  0.00     0.161 HD
HETATM   19  H   UNK N   1      34.408  15.794  11.917  0.00  0.00     0.161 HD
ENDBRANCH  14  15
ENDBRANCH  13  14
ENDBRANCH   1  13
TORSDOF 8
ENDMDL
MODEL 2
REMARK VINA RESULT:      -5.0      7.016      9.516
REMARK  8 active torsions:
REMARK  status: ('A' for Active; 'I' for Inactive)
REMARK    1  A    between atoms: O_1  and  C_9 
REMARK    2  A    between atoms: O_1  and  C_14 
REMARK    3  A    between atoms: O_2  and  C_10 
REMARK    4  A    between atoms: O_2  and  C_15 
REMARK       I    between atoms: N_5  and  C_14 
REMARK       I    between atoms: N_6  and  C_15 
REMARK    5  A    between atoms: C_7  and  C_8 
REMARK    6  A    between atoms: C_7  and  C_9 
REMARK    7  A    between atoms: C_7  and  C_10 
REMARK    8  A    between atoms: C_8  and  C_12 
ROOT
HETATM    1  C   UNK N   1      35.149  12.125  15.447  0.00  0.00     0.000 C 
HETATM    2  C   UNK N   1      36.119  11.129  16.056  0.00  0.00     0.019 C 
ENDROOT
BRANCH   1   3
HETATM    3  C   UNK N   1      33.957  11.327  14.887  0.00  0.00     0.013 C 
BRANCH   3   4
HETATM    4  C   UNK N   1      34.377  10.123  14.058  0.00  0.00    -0.004 C 
HETATM    5  C   UNK N   1      33.917  10.321  12.631  0.00  0.00     0.005 C 
ENDBRANCH   3   4
ENDBRANCH   1   3
BRANCH   1   6
HETATM    6  C   UNK N   1      35.873  12.912  14.346  0.00  0.00     0.192 C 
BRANCH   6   7
HETATM    7  O   UNK N   1      35.001  13.692  13.614  0.00  0.00    -0.303 OA
BRANCH   7   8
HETATM    8  C   UNK N   1      35.314  14.262  12.428  0.00  0.00     0.358 C 
HETATM    9  O   UNK N   1      34.419  14.547  11.649  0.00  0.00    -0.239 OA
HETATM   10  N   UNK N   1      36.595  14.525  12.099  0.00  0.00    -0.346 N 
HETATM   11  H   UNK N   1      37.330  14.128  12.619  0.00  0.00     0.161 HD
HETATM   12  H   UNK N   1      36.795  15.117  11.337  0.00  0.00     0.161 HD
ENDBRANCH   7   8
ENDBRANCH   6   7
ENDBRANCH   1   6
BRANCH   1  13
HETATM   13  C   UNK N   1      34.734  13.131  16.533  0.00  0.00     0.192 C 
BRANCH  13  14
HETATM   14  O   UNK N   1      35.003  12.670  17.807  0.00  0.00    -0.303 OA
BRANCH  14  15
HETATM   15  C   UNK N   1      35.197  13.473  18.876  0.00  0.00     0.358 C 
HETATM   16  O   UNK N   1      35.236  14.689  18.750  0.00  0.00    -0.239 OA
HETATM   17  N   UNK N   1      35.339  12.925  20.098  0.00  0.00    -0.346 N 
HETATM   18  H   UNK N   1      35.566  11.972  20.198  0.00  0.00     0.161 HD
HETATM   19  H   UNK N   1      35.213  13.482  20.899  0.00  0.00     0.161 HD
ENDBRANCH  14  15
ENDBRANCH  13  14
ENDBRANCH   1  13
TORSDOF 8
ENDMDL
MODEL 3
REMARK VINA RESULT:      -5.0      1.613      4.870
REMARK  8 active torsions:
REMARK  status: ('A' for Active; 'I' for Inactive)
REMARK    1  A    between atoms: O_1  and  C_9 
REMARK    2  A    between atoms: O_1  and  C_14 
REMARK    3  A    between atoms: O_2  and  C_10 
REMARK    4  A    between atoms: O_2  and  C_15 
REMARK       I    between atoms: N_5  and  C_14 
REMARK       I    between atoms: N_6  and  C_15 
REMARK    5  A    between atoms: C_7  and  C_8 
REMARK    6  A    between atoms: C_7  and  C_9 
REMARK    7  A    between atoms: C_7  and  C_10 
REMARK    8  A    between atoms: C_8  and  C_12 
ROOT
HETATM    1  C   UNK N   1      31.645  16.708   7.155  0.00  0.00     0.000 C 
HETATM    2  C   UNK N   1      31.959  15.459   7.959  0.00  0.00     0.019 C 
ENDROOT
BRANCH   1   3
HETATM    3  C   UNK N   1      32.223  16.506   5.742  0.00  0.00     0.013 C 
BRANCH   3   4
HETATM    4  C   UNK N   1      31.612  17.436   4.705  0.00  0.00    -0.004 C 
HETATM    5  C   UNK N   1      32.420  17.351   3.430  0.00  0.00     0.005 C 
ENDBRANCH   3   4
ENDBRANCH   1   3
BRANCH   1   6
HETATM    6  C   UNK N   1      32.274  17.919   7.858  0.00  0.00     0.192 C 
BRANCH   6   7
HETATM    7  O   UNK N   1      33.627  18.018   7.599  0.00  0.00    -0.303 OA
BRANCH   7   8
HETATM    8  C   UNK N   1      34.564  18.208   8.554  0.00  0.00     0.358 C 
HETATM    9  O   UNK N   1      35.325  19.158   8.463  0.00  0.00    -0.239 OA
HETATM   10  N   UNK N   1      34.667  17.369   9.605  0.00  0.00    -0.346 N 
HETATM   11  H   UNK N   1      34.204  16.501   9.591  0.00  0.00     0.161 HD
HETATM   12  H   UNK N   1      35.207  17.626  10.388  0.00  0.00     0.161 HD
ENDBRANCH   7   8
ENDBRANCH   6   7
ENDBRANCH   1   6
BRANCH   1  13
HETATM   13  C   UNK N   1      30.123  16.918   7.153  0.00  0.00     0.192 C 
BRANCH  13  14
HETATM   14  O   UNK N   1      29.729  17.914   8.025  0.00  0.00    -0.303 OA
BRANCH  14  15
HETATM   15  C   UNK N   1      28.534  18.543   7.964  0.00  0.00     0.358 C 
HETATM   16  O   UNK N   1      28.182  19.126   6.949  0.00  0.00    -0.239 OA
HETATM   17  N   UNK N   1      27.716  18.515   9.034  0.00  0.00    -0.346 N 
HETATM   18  H   UNK N   1      28.064  18.285   9.926  0.00  0.00     0.161 HD
HETATM   19  H   UNK N   1      26.762  18.726   8.923  0.00  0.00     0.161 HD
ENDBRANCH  14  15
ENDBRANCH  13  14
ENDBRANCH   1  13
TORSDOF 8
ENDMDL
MODEL 4
REMARK VINA RESULT:      -4.9      2.795      4.067
REMARK  8 active torsions:
REMARK  status: ('A' for Active; 'I' for Inactive)
REMARK    1  A    between atoms: O_1  and  C_9 
REMARK    2  A    between atoms: O_1  and  C_14 
REMARK    3  A    between atoms: O_2  and  C_10 
REMARK    4  A    between atoms: O_2  and  C_15 
REMARK       I    between atoms: N_5  and  C_14 
REMARK       I    between atoms: N_6  and  C_15 
REMARK    5  A    between atoms: C_7  and  C_8 
REMARK    6  A    between atoms: C_7  and  C_9 
REMARK    7  A    between atoms: C_7  and  C_10 
REMARK    8  A    between atoms: C_8  and  C_12 
ROOT
HETATM    1  C   UNK N   1      31.551  16.900   6.903  0.00  0.00     0.000 C 
HETATM    2  C   UNK N   1      32.079  17.298   5.537  0.00  0.00     0.019 C 
ENDROOT
BRANCH   1   3
HETATM    3  C   UNK N   1      30.025  17.099   6.886  0.00  0.00     0.013 C 
BRANCH   3   4
HETATM    4  C   UNK N   1      29.522  17.989   8.012  0.00  0.00    -0.004 C 
HETATM    5  C   UNK N   1      28.215  17.433   8.534  0.00  0.00     0.005 C 
ENDBRANCH   3   4
ENDBRANCH   1   3
BRANCH   1   6
HETATM    6  C   UNK N   1      32.226  17.774   7.969  0.00  0.00     0.192 C 
BRANCH   6   7
HETATM    7  O   UNK N   1      33.539  18.056   7.648  0.00  0.00    -0.303 OA
BRANCH   7   8
HETATM    8  C   UNK N   1      34.518  18.226   8.564  0.00  0.00     0.358 C 
HETATM    9  O   UNK N   1      35.304  19.151   8.432  0.00  0.00    -0.239 OA
HETATM   10  N   UNK N   1      34.636  17.395   9.620  0.00  0.00    -0.346 N 
HETATM   11  H   UNK N   1      34.145  16.543   9.635  0.00  0.00     0.161 HD
HETATM   12  H   UNK N   1      35.214  17.644  10.378  0.00  0.00     0.161 HD
ENDBRANCH   7   8
ENDBRANCH   6   7
ENDBRANCH   1   6
BRANCH   1  13
HETATM   13  C   UNK N   1      31.959  15.444   7.180  0.00  0.00     0.192 C 
BRANCH  13  14
HETATM   14  O   UNK N   1      32.049  15.170   8.531  0.00  0.00    -0.303 OA
BRANCH  14  15
HETATM   15  C   UNK N   1      32.862  14.229   9.059  0.00  0.00     0.358 C 
HETATM   16  O   UNK N   1      33.949  14.530   9.531  0.00  0.00    -0.239 OA
HETATM   17  N   UNK N   1      32.462  12.943   9.075  0.00  0.00    -0.346 N 
HETATM   18  H   UNK N   1      31.732  12.637   8.489  0.00  0.00     0.161 HD
HETATM   19  H   UNK N   1      32.903  12.303   9.677  0.00  0.00     0.161 HD
ENDBRANCH  14  15
ENDBRANCH  13  14
ENDBRANCH   1  13
TORSDOF 8
ENDMDL
MODEL 5
REMARK VINA RESULT:      -4.8      1.960      4.507
REMARK  8 active torsions:
REMARK  status: ('A' for Active; 'I' for Inactive)
REMARK    1  A    between atoms: O_1  and  C_9 
REMARK    2  A    between atoms: O_1  and  C_14 
REMARK    3  A    between atoms: O_2  and  C_10 
REMARK    4  A    between atoms: O_2  and  C_15 
REMARK       I    between atoms: N_5  and  C_14 
REMARK       I    between atoms: N_6  and  C_15 
REMARK    5  A    between atoms: C_7  and  C_8 
REMARK    6  A    between atoms: C_7  and  C_9 
REMARK    7  A    between atoms: C_7  and  C_10 
REMARK    8  A    between atoms: C_8  and  C_12 
ROOT
HETATM    1  C   UNK N   1      30.398  16.616   6.164  0.00  0.00     0.000 C 
HETATM    2  C   UNK N   1      29.896  15.291   5.621  0.00  0.00     0.019 C 
ENDROOT
BRANCH   1   3
HETATM    3  C   UNK N   1      30.730  17.514   4.957  0.00  0.00     0.013 C 
BRANCH   3   4
HETATM    4  C   UNK N   1      30.957  16.734   3.672  0.00  0.00    -0.004 C 
HETATM    5  C   UNK N   1      32.346  17.033   3.151  0.00  0.00     0.005 C 
ENDBRANCH   3   4
ENDBRANCH   1   3
BRANCH   1   6
HETATM    6  C   UNK N   1      31.635  16.357   7.036  0.00  0.00     0.192 C 
BRANCH   6   7
HETATM    7  O   UNK N   1      32.675  17.209   6.719  0.00  0.00    -0.303 OA
BRANCH   7   8
HETATM    8  C   UNK N   1      33.365  17.926   7.633  0.00  0.00     0.358 C 
HETATM    9  O   UNK N   1      34.490  18.315   7.361  0.00  0.00    -0.239 OA
HETATM   10  N   UNK N   1      32.830  18.223   8.835  0.00  0.00    -0.346 N 
HETATM   11  H   UNK N   1      32.020  17.757   9.143  0.00  0.00     0.161 HD
HETATM   12  H   UNK N   1      33.251  18.908   9.405  0.00  0.00     0.161 HD
ENDBRANCH   7   8
ENDBRANCH   6   7
ENDBRANCH   1   6
BRANCH   1  13
HETATM   13  C   UNK N   1      29.314  17.216   7.072  0.00  0.00     0.192 C 
BRANCH  13  14
HETATM   14  O   UNK N   1      29.845  17.999   8.079  0.00  0.00    -0.303 OA
BRANCH  14  15
HETATM   15  C   UNK N   1      29.145  18.428   9.152  0.00  0.00     0.358 C 
HETATM   16  O   UNK N   1      29.716  18.833  10.154  0.00  0.00    -0.239 OA
HETATM   17  N   UNK N   1      27.799  18.420   9.109  0.00  0.00    -0.346 N 
HETATM   18  H   UNK N   1      27.320  17.876   8.442  0.00  0.00     0.161 HD
HETATM   19  H   UNK N   1      27.288  18.963   9.751  0.00  0.00     0.161 HD
ENDBRANCH  14  15
ENDBRANCH  13  14
ENDBRANCH   1  13
TORSDOF 8
ENDMDL
MODEL 6
REMARK VINA RESULT:      -4.8      7.847     10.214
REMARK  8 active torsions:
REMARK  status: ('A' for Active; 'I' for Inactive)
REMARK    1  A    between atoms: O_1  and  C_9 
REMARK    2  A    between atoms: O_1  and  C_14 
REMARK    3  A    between atoms: O_2  and  C_10 
REMARK    4  A    between atoms: O_2  and  C_15 
REMARK       I    between atoms: N_5  and  C_14 
REMARK       I    between atoms: N_6  and  C_15 
REMARK    5  A    between atoms: C_7  and  C_8 
REMARK    6  A    between atoms: C_7  and  C_9 
REMARK    7  A    between atoms: C_7  and  C_10 
REMARK    8  A    between atoms: C_8  and  C_12 
ROOT
HETATM    1  C   UNK N   1      34.941  11.872  15.308  0.00  0.00     0.000 C 
HETATM    2  C   UNK N   1      33.910  10.760  15.250  0.00  0.00     0.019 C 
ENDROOT
BRANCH   1   3
HETATM    3  C   UNK N   1      36.273  11.245  15.759  0.00  0.00     0.013 C 
BRANCH   3   4
HETATM    4  C   UNK N   1      36.096   9.943  16.524  0.00  0.00    -0.004 C 
HETATM    5  C   UNK N   1      36.365  10.191  17.991  0.00  0.00     0.005 C 
ENDBRANCH   3   4
ENDBRANCH   1   3
BRANCH   1   6
HETATM    6  C   UNK N   1      34.457  12.946  16.293  0.00  0.00     0.192 C 
BRANCH   6   7
HETATM    7  O   UNK N   1      35.507  13.522  16.981  0.00  0.00    -0.303 OA
BRANCH   7   8
HETATM    8  C   UNK N   1      35.386  14.082  18.206  0.00  0.00     0.358 C 
HETATM    9  O   UNK N   1      35.123  13.372  19.163  0.00  0.00    -0.239 OA
HETATM   10  N   UNK N   1      35.559  15.407  18.385  0.00  0.00    -0.346 N 
HETATM   11  H   UNK N   1      35.574  16.013  17.610  0.00  0.00     0.161 HD
HETATM   12  H   UNK N   1      35.671  15.769  19.295  0.00  0.00     0.161 HD
ENDBRANCH   7   8
ENDBRANCH   6   7
ENDBRANCH   1   6
BRANCH   1  13
HETATM   13  C   UNK N   1      35.031  12.529  13.921  0.00  0.00     0.192 C 
BRANCH  13  14
HETATM   14  O   UNK N   1      36.258  13.126  13.702  0.00  0.00    -0.303 OA
BRANCH  14  15
HETATM   15  C   UNK N   1      36.461  14.462  13.713  0.00  0.00     0.358 C 
HETATM   16  O   UNK N   1      36.071  15.165  12.792  0.00  0.00    -0.239 OA
HETATM   17  N   UNK N   1      37.091  15.026  14.761  0.00  0.00    -0.346 N 
HETATM   18  H   UNK N   1      37.631  14.479  15.376  0.00  0.00     0.161 HD
HETATM   19  H   UNK N   1      37.012  15.995  14.913  0.00  0.00     0.161 HD
ENDBRANCH  14  15
ENDBRANCH  13  14
ENDBRANCH   1  13
TORSDOF 8
ENDMDL
MODEL 7
REMARK VINA RESULT:      -4.7      3.034      4.416
REMARK  8 active torsions:
REMARK  status: ('A' for Active; 'I' for Inactive)
REMARK    1  A    between atoms: O_1  and  C_9 
REMARK    2  A    between atoms: O_1  and  C_14 
REMARK    3  A    between atoms: O_2  and  C_10 
REMARK    4  A    between atoms: O_2  and  C_15 
REMARK       I    between atoms: N_5  and  C_14 
REMARK       I    between atoms: N_6  and  C_15 
REMARK    5  A    between atoms: C_7  and  C_8 
REMARK    6  A    between atoms: C_7  and  C_9 
REMARK    7  A    between atoms: C_7  and  C_10 
REMARK    8  A    between atoms: C_8  and  C_12 
ROOT
HETATM    1  C   UNK N   1      31.966  17.051   6.894  0.00  0.00     0.000 C 
HETATM    2  C   UNK N   1      32.209  15.582   7.190  0.00  0.00     0.019 C 
ENDROOT
BRANCH   1   3
HETATM    3  C   UNK N   1      31.129  17.624   8.052  0.00  0.00     0.013 C 
BRANCH   3   4
HETATM    4  C   UNK N   1      29.633  17.416   7.874  0.00  0.00    -0.004 C 
HETATM    5  C   UNK N   1      28.902  18.650   8.353  0.00  0.00     0.005 C 
ENDBRANCH   3   4
ENDBRANCH   1   3
BRANCH   1   6
HETATM    6  C   UNK N   1      31.233  17.170   5.551  0.00  0.00     0.192 C 
BRANCH   6   7
HETATM    7  O   UNK N   1      32.059  17.654   4.555  0.00  0.00    -0.303 OA
BRANCH   7   8
HETATM    8  C   UNK N   1      32.375  16.964   3.437  0.00  0.00     0.358 C 
HETATM    9  O   UNK N   1      33.327  16.199   3.458  0.00  0.00    -0.239 OA
HETATM   10  N   UNK N   1      31.654  17.102   2.306  0.00  0.00    -0.346 N 
HETATM   11  H   UNK N   1      31.020  17.848   2.213  0.00  0.00     0.161 HD
HETATM   12  H   UNK N   1      31.763  16.454   1.572  0.00  0.00     0.161 HD
ENDBRANCH   7   8
ENDBRANCH   6   7
ENDBRANCH   1   6
BRANCH   1  13
HETATM   13  C   UNK N   1      33.326  17.750   6.738  0.00  0.00     0.192 C 
BRANCH  13  14
HETATM   14  O   UNK N   1      34.275  17.253   7.609  0.00  0.00    -0.303 OA
BRANCH  14  15
HETATM   15  C   UNK N   1      34.759  17.936   8.671  0.00  0.00     0.358 C 
HETATM   16  O   UNK N   1      35.243  19.050   8.533  0.00  0.00    -0.239 OA
HETATM   17  N   UNK N   1      34.693  17.384   9.897  0.00  0.00    -0.346 N 
HETATM   18  H   UNK N   1      34.552  16.415  10.005  0.00  0.00     0.161 HD
HETATM   19  H   UNK N   1      34.787  17.954  10.693  0.00  0.00     0.161 HD
ENDBRANCH  14  15
ENDBRANCH  13  14
ENDBRANCH   1  13
TORSDOF 8
ENDMDL
MODEL 8
REMARK VINA RESULT:      -4.6     15.032     17.330
REMARK  8 active torsions:
REMARK  status: ('A' for Active; 'I' for Inactive)
REMARK    1  A    between atoms: O_1  and  C_9 
REMARK    2  A    between atoms: O_1  and  C_14 
REMARK    3  A    between atoms: O_2  and  C_10 
REMARK    4  A    between atoms: O_2  and  C_15 
REMARK       I    between atoms: N_5  and  C_14 
REMARK       I    between atoms: N_6  and  C_15 
REMARK    5  A    between atoms: C_7  and  C_8 
REMARK    6  A    between atoms: C_7  and  C_9 
REMARK    7  A    between atoms: C_7  and  C_10 
REMARK    8  A    between atoms: C_8  and  C_12 
ROOT
HETATM    1  C   UNK N   1      26.068  27.478  -4.882  0.00  0.00     0.000 C 
HETATM    2  C   UNK N   1      24.756  27.188  -5.589  0.00  0.00     0.019 C 
ENDROOT
BRANCH   1   3
HETATM    3  C   UNK N   1      27.180  27.466  -5.947  0.00  0.00     0.013 C 
BRANCH   3   4
HETATM    4  C   UNK N   1      27.678  28.855  -6.312  0.00  0.00    -0.004 C 
HETATM    5  C   UNK N   1      28.533  28.761  -7.557  0.00  0.00     0.005 C 
ENDBRANCH   3   4
ENDBRANCH   1   3
BRANCH   1   6
HETATM    6  C   UNK N   1      26.299  26.408  -3.807  0.00  0.00     0.192 C 
BRANCH   6   7
HETATM    7  O   UNK N   1      27.152  25.414  -4.245  0.00  0.00    -0.303 OA
BRANCH   7   8
HETATM    8  C   UNK N   1      27.529  24.358  -3.491  0.00  0.00     0.358 C 
HETATM    9  O   UNK N   1      26.733  23.875  -2.701  0.00  0.00    -0.239 OA
HETATM   10  N   UNK N   1      28.764  23.829  -3.602  0.00  0.00    -0.346 N 
HETATM   11  H   UNK N   1      29.471  24.320  -4.078  0.00  0.00     0.161 HD
HETATM   12  H   UNK N   1      28.959  22.948  -3.205  0.00  0.00     0.161 HD
ENDBRANCH   7   8
ENDBRANCH   6   7
ENDBRANCH   1   6
BRANCH   1  13
HETATM   13  C   UNK N   1      25.946  28.832  -4.163  0.00  0.00     0.192 C 
BRANCH  13  14
HETATM   14  O   UNK N   1      26.507  28.808  -2.901  0.00  0.00    -0.303 OA
BRANCH  14  15
HETATM   15  C   UNK N   1      27.477  29.654  -2.489  0.00  0.00     0.358 C 
HETATM   16  O   UNK N   1      27.949  30.487  -3.249  0.00  0.00    -0.239 OA
HETATM   17  N   UNK N   1      27.920  29.585  -1.219  0.00  0.00    -0.346 N 
HETATM   18  H   UNK N   1      27.753  28.783  -0.672  0.00  0.00     0.161 HD
HETATM   19  H   UNK N   1      28.414  30.343  -0.833  0.00  0.00     0.161 HD
ENDBRANCH  14  15
ENDBRANCH  13  14
ENDBRANCH   1  13
TORSDOF 8
ENDMDL
MODEL 9
REMARK VINA RESULT:      -4.6     14.796     17.312
REMARK  8 active torsions:
REMARK  status: ('A' for Active; 'I' for Inactive)
REMARK    1  A    between atoms: O_1  and  C_9 
REMARK    2  A    between atoms: O_1  and  C_14 
REMARK    3  A    between atoms: O_2  and  C_10 
REMARK    4  A    between atoms: O_2  and  C_15 
REMARK       I    between atoms: N_5  and  C_14 
REMARK       I    between atoms: N_6  and  C_15 
REMARK    5  A    between atoms: C_7  and  C_8 
REMARK    6  A    between atoms: C_7  and  C_9 
REMARK    7  A    between atoms: C_7  and  C_10 
REMARK    8  A    between atoms: C_8  and  C_12 
ROOT
HETATM    1  C   UNK N   1      26.254  26.670  -5.491  0.00  0.00     0.000 C 
HETATM    2  C   UNK N   1      26.749  27.042  -6.877  0.00  0.00     0.019 C 
ENDROOT
BRANCH   1   3
HETATM    3  C   UNK N   1      25.650  27.938  -4.859  0.00  0.00     0.013 C 
BRANCH   3   4
HETATM    4  C   UNK N   1      26.640  29.088  -4.755  0.00  0.00    -0.004 C 
HETATM    5  C   UNK N   1      26.562  29.683  -3.367  0.00  0.00     0.005 C 
ENDBRANCH   3   4
ENDBRANCH   1   3
BRANCH   1   6
HETATM    6  C   UNK N   1      27.436  26.135  -4.671  0.00  0.00     0.192 C 
BRANCH   6   7
HETATM    7  O   UNK N   1      27.015  25.373  -3.599  0.00  0.00    -0.303 OA
BRANCH   7   8
HETATM    8  C   UNK N   1      27.597  24.211  -3.226  0.00  0.00     0.358 C 
HETATM    9  O   UNK N   1      27.190  23.632  -2.231  0.00  0.00    -0.239 OA
HETATM   10  N   UNK N   1      28.614  23.682  -3.937  0.00  0.00    -0.346 N 
HETATM   11  H   UNK N   1      29.079  24.225  -4.612  0.00  0.00     0.161 HD
HETATM   12  H   UNK N   1      28.890  22.750  -3.779  0.00  0.00     0.161 HD
ENDBRANCH   7   8
ENDBRANCH   6   7
ENDBRANCH   1   6
BRANCH   1  13
HETATM   13  C   UNK N   1      25.235  25.528  -5.626  0.00  0.00     0.192 C 
BRANCH  13  14
HETATM   14  O   UNK N   1      25.499  24.713  -6.710  0.00  0.00    -0.303 OA
BRANCH  14  15
HETATM   15  C   UNK N   1      25.891  23.424  -6.608  0.00  0.00     0.358 C 
HETATM   16  O   UNK N   1      27.076  23.133  -6.521  0.00  0.00    -0.239 OA
HETATM   17  N   UNK N   1      24.962  22.449  -6.591  0.00  0.00    -0.346 N 
HETATM   18  H   UNK N   1      24.047  22.622  -6.910  0.00  0.00     0.161 HD
HETATM   19  H   UNK N   1      25.200  21.555  -6.256  0.00  0.00     0.161 HD
ENDBRANCH  14  15
ENDBRANCH  13  14
ENDBRANCH   1  13
TORSDOF 8
ENDMDL
