MODEL 1
REMARK VINA RESULT:      -2.6      0.000      0.000
REMARK  13 active torsions:
REMARK  status: ('A' for Active; 'I' for Inactive)
REMARK    1  A    between atoms: N_3  and  C_11 
REMARK    2  A    between atoms: N_3  and  C_12 
REMARK    3  A    between atoms: N_4  and  C_13 
REMARK    4  A    between atoms: N_4  and  C_15 
REMARK    5  A    between atoms: N_5  and  C_14 
REMARK    6  A    between atoms: N_5  and  C_16 
REMARK    7  A    between atoms: N_6  and  C_17 
REMARK    8  A    between atoms: N_7  and  C_18 
REMARK    9  A    between atoms: C_8  and  C_10 
REMARK   10  A    between atoms: C_11  and  C_13 
REMARK   11  A    between atoms: C_12  and  C_14 
REMARK   12  A    between atoms: C_15  and  C_17 
REMARK   13  A    between atoms: C_16  and  C_18 
ROOT
HETATM    1  O   UNK N   1      22.439  21.472   2.835  0.00  0.00    -0.380 OA
HETATM    2  C   UNK N   1      21.601  20.449   2.347  0.00  0.00     0.159 A 
HETATM    3  C   UNK N   1      22.900  20.153   2.995  0.00  0.00     0.201 A 
ENDROOT
BRANCH   2   4
HETATM    4  C   UNK N   1      20.480  20.229   3.340  0.00  0.00     0.148 C 
HETATM    5 Cl   UNK N   1      19.382  18.974   2.723  0.00  0.00    -0.128 Cl
ENDBRANCH   2   4
TORSDOF 13
ENDMDL
MODEL 2
REMARK VINA RESULT:      -2.5     14.652     15.313
REMARK  13 active torsions:
REMARK  status: ('A' for Active; 'I' for Inactive)
REMARK    1  A    between atoms: N_3  and  C_11 
REMARK    2  A    between atoms: N_3  and  C_12 
REMARK    3  A    between atoms: N_4  and  C_13 
REMARK    4  A    between atoms: N_4  and  C_15 
REMARK    5  A    between atoms: N_5  and  C_14 
REMARK    6  A    between atoms: N_5  and  C_16 
REMARK    7  A    between atoms: N_6  and  C_17 
REMARK    8  A    between atoms: N_7  and  C_18 
REMARK    9  A    between atoms: C_8  and  C_10 
REMARK   10  A    between atoms: C_11  and  C_13 
REMARK   11  A    between atoms: C_12  and  C_14 
REMARK   12  A    between atoms: C_15  and  C_17 
REMARK   13  A    between atoms: C_16  and  C_18 
ROOT
HETATM    1  O   UNK N   1      35.623  17.552  10.238  0.00  0.00    -0.380 OA
HETATM    2  C   UNK N   1      35.088  16.506   9.460  0.00  0.00     0.159 A 
HETATM    3  C   UNK N   1      35.152  16.427  10.938  0.00  0.00     0.201 A 
ENDROOT
BRANCH   2   4
HETATM    4  C   UNK N   1      33.687  16.888   9.034  0.00  0.00     0.148 C 
HETATM    5 Cl   UNK N   1      33.751  18.367   8.050  0.00  0.00    -0.128 Cl
ENDBRANCH   2   4
TORSDOF 13
ENDMDL
MODEL 3
REMARK VINA RESULT:      -2.5     11.700     11.891
REMARK  13 active torsions:
REMARK  status: ('A' for Active; 'I' for Inactive)
REMARK    1  A    between atoms: N_3  and  C_11 
REMARK    2  A    between atoms: N_3  and  C_12 
REMARK    3  A    between atoms: N_4  and  C_13 
REMARK    4  A    between atoms: N_4  and  C_15 
REMARK    5  A    between atoms: N_5  and  C_14 
REMARK    6  A    between atoms: N_5  and  C_16 
REMARK    7  A    between atoms: N_6  and  C_17 
REMARK    8  A    between atoms: N_7  and  C_18 
REMARK    9  A    between atoms: C_8  and  C_10 
REMARK   10  A    between atoms: C_11  and  C_13 
REMARK   11  A    between atoms: C_12  and  C_14 
REMARK   12  A    between atoms: C_15  and  C_17 
REMARK   13  A    between atoms: C_16  and  C_18 
ROOT
HETATM    1  O   UNK N   1      21.566  12.548  10.959  0.00  0.00    -0.380 OA
HETATM    2  C   UNK N   1      22.682  11.808  10.518  0.00  0.00     0.159 A 
HETATM    3  C   UNK N   1      22.332  13.122   9.929  0.00  0.00     0.201 A 
ENDROOT
BRANCH   2   4
HETATM    4  C   UNK N   1      23.804  11.985  11.518  0.00  0.00     0.148 C 
HETATM    5 Cl   UNK N   1      23.156  11.835  13.166  0.00  0.00    -0.128 Cl
ENDBRANCH   2   4
TORSDOF 13
ENDMDL
MODEL 4
REMARK VINA RESULT:      -2.5      2.514      2.962
REMARK  13 active torsions:
REMARK  status: ('A' for Active; 'I' for Inactive)
REMARK    1  A    between atoms: N_3  and  C_11 
REMARK    2  A    between atoms: N_3  and  C_12 
REMARK    3  A    between atoms: N_4  and  C_13 
REMARK    4  A    between atoms: N_4  and  C_15 
REMARK    5  A    between atoms: N_5  and  C_14 
REMARK    6  A    between atoms: N_5  and  C_16 
REMARK    7  A    between atoms: N_6  and  C_17 
REMARK    8  A    between atoms: N_7  and  C_18 
REMARK    9  A    between atoms: C_8  and  C_10 
REMARK   10  A    between atoms: C_11  and  C_13 
REMARK   11  A    between atoms: C_12  and  C_14 
REMARK   12  A    between atoms: C_15  and  C_17 
REMARK   13  A    between atoms: C_16  and  C_18 
ROOT
HETATM    1  O   UNK N   1      20.284  20.563   3.886  0.00  0.00    -0.380 OA
HETATM    2  C   UNK N   1      21.336  19.715   3.482  0.00  0.00     0.159 A 
HETATM    3  C   UNK N   1      19.975  19.601   2.908  0.00  0.00     0.201 A 
ENDROOT
BRANCH   2   4
HETATM    4  C   UNK N   1      22.226  20.474   2.523  0.00  0.00     0.148 C 
HETATM    5 Cl   UNK N   1      23.897  20.460   3.130  0.00  0.00    -0.128 Cl
ENDBRANCH   2   4
TORSDOF 13
ENDMDL
MODEL 5
REMARK VINA RESULT:      -2.5     12.406     12.987
REMARK  13 active torsions:
REMARK  status: ('A' for Active; 'I' for Inactive)
REMARK    1  A    between atoms: N_3  and  C_11 
REMARK    2  A    between atoms: N_3  and  C_12 
REMARK    3  A    between atoms: N_4  and  C_13 
REMARK    4  A    between atoms: N_4  and  C_15 
REMARK    5  A    between atoms: N_5  and  C_14 
REMARK    6  A    between atoms: N_5  and  C_16 
REMARK    7  A    between atoms: N_6  and  C_17 
REMARK    8  A    between atoms: N_7  and  C_18 
REMARK    9  A    between atoms: C_8  and  C_10 
REMARK   10  A    between atoms: C_11  and  C_13 
REMARK   11  A    between atoms: C_12  and  C_14 
REMARK   12  A    between atoms: C_15  and  C_17 
REMARK   13  A    between atoms: C_16  and  C_18 
ROOT
HETATM    1  O   UNK N   1      34.522  18.107   6.747  0.00  0.00    -0.380 OA
HETATM    2  C   UNK N   1      33.631  17.032   6.948  0.00  0.00     0.159 A 
HETATM    3  C   UNK N   1      33.741  18.147   7.916  0.00  0.00     0.201 A 
ENDROOT
BRANCH   2   4
HETATM    4  C   UNK N   1      32.416  17.241   6.070  0.00  0.00     0.148 C 
HETATM    5 Cl   UNK N   1      32.940  17.662   4.425  0.00  0.00    -0.128 Cl
ENDBRANCH   2   4
TORSDOF 13
ENDMDL
MODEL 6
REMARK VINA RESULT:      -2.4      9.916      9.980
REMARK  13 active torsions:
REMARK  status: ('A' for Active; 'I' for Inactive)
REMARK    1  A    between atoms: N_3  and  C_11 
REMARK    2  A    between atoms: N_3  and  C_12 
REMARK    3  A    between atoms: N_4  and  C_13 
REMARK    4  A    between atoms: N_4  and  C_15 
REMARK    5  A    between atoms: N_5  and  C_14 
REMARK    6  A    between atoms: N_5  and  C_16 
REMARK    7  A    between atoms: N_6  and  C_17 
REMARK    8  A    between atoms: N_7  and  C_18 
REMARK    9  A    between atoms: C_8  and  C_10 
REMARK   10  A    between atoms: C_11  and  C_13 
REMARK   11  A    between atoms: C_12  and  C_14 
REMARK   12  A    between atoms: C_15  and  C_17 
REMARK   13  A    between atoms: C_16  and  C_18 
ROOT
HETATM    1  O   UNK N   1      26.558  24.068  -2.879  0.00  0.00    -0.380 OA
HETATM    2  C   UNK N   1      26.576  25.162  -3.767  0.00  0.00     0.159 A 
HETATM    3  C   UNK N   1      27.728  24.240  -3.641  0.00  0.00     0.201 A 
ENDROOT
BRANCH   2   4
HETATM    4  C   UNK N   1      25.770  24.800  -4.996  0.00  0.00     0.148 C 
HETATM    5 Cl   UNK N   1      25.004  26.264  -5.653  0.00  0.00    -0.128 Cl
ENDBRANCH   2   4
TORSDOF 13
ENDMDL
MODEL 7
REMARK VINA RESULT:      -2.4     12.755     13.015
REMARK  13 active torsions:
REMARK  status: ('A' for Active; 'I' for Inactive)
REMARK    1  A    between atoms: N_3  and  C_11 
REMARK    2  A    between atoms: N_3  and  C_12 
REMARK    3  A    between atoms: N_4  and  C_13 
REMARK    4  A    between atoms: N_4  and  C_15 
REMARK    5  A    between atoms: N_5  and  C_14 
REMARK    6  A    between atoms: N_5  and  C_16 
REMARK    7  A    between atoms: N_6  and  C_17 
REMARK    8  A    between atoms: N_7  and  C_18 
REMARK    9  A    between atoms: C_8  and  C_10 
REMARK   10  A    between atoms: C_11  and  C_13 
REMARK   11  A    between atoms: C_12  and  C_14 
REMARK   12  A    between atoms: C_15  and  C_17 
REMARK   13  A    between atoms: C_16  and  C_18 
ROOT
HETATM    1  O   UNK N   1      34.467  17.943   6.531  0.00  0.00    -0.380 OA
HETATM    2  C   UNK N   1      33.140  17.596   6.856  0.00  0.00     0.159 A 
HETATM    3  C   UNK N   1      34.195  16.571   6.682  0.00  0.00     0.201 A 
ENDROOT
BRANCH   2   4
HETATM    4  C   UNK N   1      32.922  17.851   8.332  0.00  0.00     0.148 C 
HETATM    5 Cl   UNK N   1      31.185  18.062   8.644  0.00  0.00    -0.128 Cl
ENDBRANCH   2   4
TORSDOF 13
ENDMDL
MODEL 8
REMARK VINA RESULT:      -2.3     19.275     19.781
REMARK  13 active torsions:
REMARK  status: ('A' for Active; 'I' for Inactive)
REMARK    1  A    between atoms: N_3  and  C_11 
REMARK    2  A    between atoms: N_3  and  C_12 
REMARK    3  A    between atoms: N_4  and  C_13 
REMARK    4  A    between atoms: N_4  and  C_15 
REMARK    5  A    between atoms: N_5  and  C_14 
REMARK    6  A    between atoms: N_5  and  C_16 
REMARK    7  A    between atoms: N_6  and  C_17 
REMARK    8  A    between atoms: N_7  and  C_18 
REMARK    9  A    between atoms: C_8  and  C_10 
REMARK   10  A    between atoms: C_11  and  C_13 
REMARK   11  A    between atoms: C_12  and  C_14 
REMARK   12  A    between atoms: C_15  and  C_17 
REMARK   13  A    between atoms: C_16  and  C_18 
ROOT
HETATM    1  O   UNK N   1      34.957  13.634  13.641  0.00  0.00    -0.380 OA
HETATM    2  C   UNK N   1      36.142  13.129  14.215  0.00  0.00     0.159 A 
HETATM    3  C   UNK N   1      36.141  14.340  13.362  0.00  0.00     0.201 A 
ENDROOT
BRANCH   2   4
HETATM    4  C   UNK N   1      36.184  13.536  15.672  0.00  0.00     0.148 C 
HETATM    5 Cl   UNK N   1      34.642  13.114  16.448  0.00  0.00    -0.128 Cl
ENDBRANCH   2   4
TORSDOF 13
ENDMDL
MODEL 9
REMARK VINA RESULT:      -2.2     10.856     11.042
REMARK  13 active torsions:
REMARK  status: ('A' for Active; 'I' for Inactive)
REMARK    1  A    between atoms: N_3  and  C_11 
REMARK    2  A    between atoms: N_3  and  C_12 
REMARK    3  A    between atoms: N_4  and  C_13 
REMARK    4  A    between atoms: N_4  and  C_15 
REMARK    5  A    between atoms: N_5  and  C_14 
REMARK    6  A    between atoms: N_5  and  C_16 
REMARK    7  A    between atoms: N_6  and  C_17 
REMARK    8  A    between atoms: N_7  and  C_18 
REMARK    9  A    between atoms: C_8  and  C_10 
REMARK   10  A    between atoms: C_11  and  C_13 
REMARK   11  A    between atoms: C_12  and  C_14 
REMARK   12  A    between atoms: C_15  and  C_17 
REMARK   13  A    between atoms: C_16  and  C_18 
ROOT
HETATM    1  O   UNK N   1      23.521  13.284   9.419  0.00  0.00    -0.380 OA
HETATM    2  C   UNK N   1      23.680  12.013  10.007  0.00  0.00     0.159 A 
HETATM    3  C   UNK N   1      24.791  12.991   9.948  0.00  0.00     0.201 A 
ENDROOT
BRANCH   2   4
HETATM    4  C   UNK N   1      23.058  12.037  11.386  0.00  0.00     0.148 C 
HETATM    5 Cl   UNK N   1      21.293  12.188  11.236  0.00  0.00    -0.128 Cl
ENDBRANCH   2   4
TORSDOF 13
ENDMDL
