MODEL 1
REMARK VINA RESULT:      -6.4      0.000      0.000
REMARK  6 active torsions:
REMARK  status: ('A' for Active; 'I' for Inactive)
REMARK    1  A    between atoms: O_1  and  C_4 
REMARK    2  A    between atoms: N_2  and  C_11 
REMARK    3  A    between atoms: C_3  and  C_4 
REMARK    4  A    between atoms: C_4  and  C_7 
REMARK    5  A    between atoms: C_4  and  C_12 
REMARK    6  A    between atoms: C_7  and  C_11 
ROOT
HETATM    1  C   UNK N   1      35.726  12.432  14.902  0.00  0.00     0.090 C 
ENDROOT
BRANCH   1   2
HETATM    2  O   UNK N   1      34.503  12.743  14.302  0.00  0.00    -0.385 OA
HETATM    3  H   UNK N   1      34.267  13.210  13.485  0.00  0.00     0.211 HD
ENDBRANCH   1   2
BRANCH   1   4
HETATM    4  C   UNK N   1      35.531  11.080  15.658  0.00  0.00     0.025 C 
HETATM    5  C   UNK N   1      36.781  10.334  16.146  0.00  0.00     0.008 C 
HETATM    6  C   UNK N   1      37.382   9.453  15.041  0.00  0.00     0.000 C 
HETATM    7  C   UNK N   1      36.342   8.511  14.440  0.00  0.00     0.000 C 
HETATM    8  C   UNK N   1      35.176   9.312  13.884  0.00  0.00     0.000 C 
HETATM    9  C   UNK N   1      34.533  10.102  15.013  0.00  0.00     0.008 C 
ENDBRANCH   1   4
BRANCH   1  10
HETATM   10  C   UNK N   1      36.752  12.309  13.733  0.00  0.00     0.073 C 
BRANCH  10  11
HETATM   11  C   UNK N   1      36.309  12.556  12.276  0.00  0.00     0.276 C 
BRANCH  11  12
HETATM   12  N   UNK N   1      36.824  13.799  11.707  0.00  0.00     0.088 N 
HETATM   13  C   UNK N   1      35.930  14.926  12.013  0.00  0.00     0.272 C 
HETATM   14  C   UNK N   1      34.575  14.804  11.308  0.00  0.00     0.030 C 
HETATM   15  C   UNK N   1      34.794  14.712   9.806  0.00  0.00     0.003 C 
HETATM   16  C   UNK N   1      35.694  13.525   9.498  0.00  0.00     0.030 C 
HETATM   17  C   UNK N   1      37.018  13.662  10.256  0.00  0.00     0.272 C 
ENDBRANCH  11  12
ENDBRANCH  10  11
ENDBRANCH   1  10
BRANCH   1  18
HETATM   18  C   UNK N   1      35.972  13.562  15.903  0.00  0.00    -0.024 A 
HETATM   19  C   UNK N   1      35.314  13.642  17.139  0.00  0.00     0.010 A 
HETATM   20  C   UNK N   1      35.609  14.663  18.048  0.00  0.00     0.001 A 
HETATM   21  C   UNK N   1      36.580  15.615  17.734  0.00  0.00     0.000 A 
HETATM   22  C   UNK N   1      37.258  15.541  16.516  0.00  0.00     0.001 A 
HETATM   23  C   UNK N   1      36.964  14.518  15.611  0.00  0.00     0.010 A 
ENDBRANCH   1  18
TORSDOF 6
ENDMDL
MODEL 2
REMARK VINA RESULT:      -6.2     20.662     25.070
REMARK  6 active torsions:
REMARK  status: ('A' for Active; 'I' for Inactive)
REMARK    1  A    between atoms: O_1  and  C_4 
REMARK    2  A    between atoms: N_2  and  C_11 
REMARK    3  A    between atoms: C_3  and  C_4 
REMARK    4  A    between atoms: C_4  and  C_7 
REMARK    5  A    between atoms: C_4  and  C_12 
REMARK    6  A    between atoms: C_7  and  C_11 
ROOT
HETATM    1  C   UNK N   1      26.585  24.342  -5.858  0.00  0.00     0.090 C 
ENDROOT
BRANCH   1   2
HETATM    2  O   UNK N   1      25.954  24.104  -4.635  0.00  0.00    -0.385 OA
HETATM    3  H   UNK N   1      25.125  23.662  -4.393  0.00  0.00     0.211 HD
ENDBRANCH   1   2
BRANCH   1   4
HETATM    4  C   UNK N   1      25.873  25.571  -6.506  0.00  0.00     0.025 C 
HETATM    5  C   UNK N   1      26.679  26.451  -7.472  0.00  0.00     0.008 C 
HETATM    6  C   UNK N   1      27.495  27.515  -6.722  0.00  0.00     0.000 C 
HETATM    7  C   UNK N   1      26.621  28.337  -5.779  0.00  0.00     0.000 C 
HETATM    8  C   UNK N   1      25.927  27.422  -4.783  0.00  0.00     0.000 C 
HETATM    9  C   UNK N   1      25.047  26.439  -5.541  0.00  0.00     0.008 C 
ENDBRANCH   1   4
BRANCH   1  10
HETATM   10  C   UNK N   1      28.077  24.642  -5.514  0.00  0.00     0.073 C 
BRANCH  10  11
HETATM   11  C   UNK N   1      28.799  23.844  -4.409  0.00  0.00     0.276 C 
BRANCH  11  12
HETATM   12  N   UNK N   1      30.233  23.685  -4.640  0.00  0.00     0.088 N 
HETATM   13  C   UNK N   1      30.486  22.730  -5.729  0.00  0.00     0.272 C 
HETATM   14  C   UNK N   1      30.074  21.301  -5.360  0.00  0.00     0.030 C 
HETATM   15  C   UNK N   1      30.821  20.867  -4.109  0.00  0.00     0.003 C 
HETATM   16  C   UNK N   1      30.528  21.843  -2.980  0.00  0.00     0.030 C 
HETATM   17  C   UNK N   1      30.911  23.264  -3.405  0.00  0.00     0.272 C 
ENDBRANCH  11  12
ENDBRANCH  10  11
ENDBRANCH   1  10
BRANCH   1  18
HETATM   18  C   UNK N   1      26.320  23.085  -6.688  0.00  0.00    -0.024 A 
HETATM   19  C   UNK N   1      25.113  22.374  -6.632  0.00  0.00     0.010 A 
HETATM   20  C   UNK N   1      24.893  21.261  -7.448  0.00  0.00     0.001 A 
HETATM   21  C   UNK N   1      25.880  20.851  -8.347  0.00  0.00     0.000 A 
HETATM   22  C   UNK N   1      27.081  21.556  -8.431  0.00  0.00     0.001 A 
HETATM   23  C   UNK N   1      27.297  22.671  -7.615  0.00  0.00     0.010 A 
ENDBRANCH   1  18
TORSDOF 6
ENDMDL
MODEL 3
REMARK VINA RESULT:      -6.0      8.615     12.533
REMARK  6 active torsions:
REMARK  status: ('A' for Active; 'I' for Inactive)
REMARK    1  A    between atoms: O_1  and  C_4 
REMARK    2  A    between atoms: N_2  and  C_11 
REMARK    3  A    between atoms: C_3  and  C_4 
REMARK    4  A    between atoms: C_4  and  C_7 
REMARK    5  A    between atoms: C_4  and  C_12 
REMARK    6  A    between atoms: C_7  and  C_11 
ROOT
HETATM    1  C   UNK N   1      28.999  17.599   4.934  0.00  0.00     0.090 C 
ENDROOT
BRANCH   1   2
HETATM    2  O   UNK N   1      30.178  18.149   4.426  0.00  0.00    -0.385 OA
HETATM    3  H   UNK N   1      31.098  18.144   4.735  0.00  0.00     0.211 HD
ENDBRANCH   1   2
BRANCH   1   4
HETATM    4  C   UNK N   1      28.397  16.696   3.811  0.00  0.00     0.025 C 
HETATM    5  C   UNK N   1      27.395  15.606   4.215  0.00  0.00     0.008 C 
HETATM    6  C   UNK N   1      28.106  14.318   4.656  0.00  0.00     0.000 C 
HETATM    7  C   UNK N   1      29.099  13.833   3.604  0.00  0.00     0.000 C 
HETATM    8  C   UNK N   1      30.126  14.917   3.318  0.00  0.00     0.000 C 
HETATM    9  C   UNK N   1      29.410  16.151   2.790  0.00  0.00     0.008 C 
ENDBRANCH   1   4
BRANCH   1  10
HETATM   10  C   UNK N   1      29.423  16.773   6.187  0.00  0.00     0.073 C 
BRANCH  10  11
HETATM   11  C   UNK N   1      30.602  17.238   7.066  0.00  0.00     0.276 C 
BRANCH  11  12
HETATM   12  N   UNK N   1      31.630  16.217   7.261  0.00  0.00     0.088 N 
HETATM   13  C   UNK N   1      32.397  16.474   8.489  0.00  0.00     0.272 C 
HETATM   14  C   UNK N   1      33.244  17.746   8.392  0.00  0.00     0.030 C 
HETATM   15  C   UNK N   1      34.189  17.636   7.207  0.00  0.00     0.003 C 
HETATM   16  C   UNK N   1      33.384  17.402   5.938  0.00  0.00     0.030 C 
HETATM   17  C   UNK N   1      32.518  16.148   6.092  0.00  0.00     0.272 C 
ENDBRANCH  11  12
ENDBRANCH  10  11
ENDBRANCH   1  10
BRANCH   1  18
HETATM   18  C   UNK N   1      28.084  18.797   5.190  0.00  0.00    -0.024 A 
HETATM   19  C   UNK N   1      27.891  19.352   6.463  0.00  0.00     0.010 A 
HETATM   20  C   UNK N   1      27.088  20.482   6.643  0.00  0.00     0.001 A 
HETATM   21  C   UNK N   1      26.473  21.082   5.542  0.00  0.00     0.000 A 
HETATM   22  C   UNK N   1      26.668  20.555   4.265  0.00  0.00     0.001 A 
HETATM   23  C   UNK N   1      27.474  19.427   4.088  0.00  0.00     0.010 A 
ENDBRANCH   1  18
TORSDOF 6
ENDMDL
MODEL 4
REMARK VINA RESULT:      -5.8     21.217     24.219
REMARK  6 active torsions:
REMARK  status: ('A' for Active; 'I' for Inactive)
REMARK    1  A    between atoms: O_1  and  C_4 
REMARK    2  A    between atoms: N_2  and  C_11 
REMARK    3  A    between atoms: C_3  and  C_4 
REMARK    4  A    between atoms: C_4  and  C_7 
REMARK    5  A    between atoms: C_4  and  C_12 
REMARK    6  A    between atoms: C_7  and  C_11 
ROOT
HETATM    1  C   UNK N   1      27.998  24.573  -4.487  0.00  0.00     0.090 C 
ENDROOT
BRANCH   1   2
HETATM    2  O   UNK N   1      27.020  23.625  -4.178  0.00  0.00    -0.385 OA
HETATM    3  H   UNK N   1      26.083  23.540  -4.416  0.00  0.00     0.211 HD
ENDBRANCH   1   2
BRANCH   1   4
HETATM    4  C   UNK N   1      29.015  24.580  -3.302  0.00  0.00     0.025 C 
HETATM    5  C   UNK N   1      30.412  25.167  -3.548  0.00  0.00     0.008 C 
HETATM    6  C   UNK N   1      31.364  24.128  -4.158  0.00  0.00     0.000 C 
HETATM    7  C   UNK N   1      31.411  22.848  -3.327  0.00  0.00     0.000 C 
HETATM    8  C   UNK N   1      30.015  22.258  -3.202  0.00  0.00     0.000 C 
HETATM    9  C   UNK N   1      29.111  23.266  -2.508  0.00  0.00     0.008 C 
ENDBRANCH   1   4
BRANCH   1  10
HETATM   10  C   UNK N   1      28.650  24.089  -5.819  0.00  0.00     0.073 C 
BRANCH  10  11
HETATM   11  C   UNK N   1      28.086  22.862  -6.564  0.00  0.00     0.276 C 
BRANCH  11  12
HETATM   12  N   UNK N   1      27.309  23.203  -7.754  0.00  0.00     0.088 N 
HETATM   13  C   UNK N   1      25.893  23.405  -7.414  0.00  0.00     0.272 C 
HETATM   14  C   UNK N   1      25.209  22.111  -6.962  0.00  0.00     0.030 C 
HETATM   15  C   UNK N   1      25.333  21.065  -8.059  0.00  0.00     0.003 C 
HETATM   16  C   UNK N   1      26.802  20.840  -8.380  0.00  0.00     0.030 C 
HETATM   17  C   UNK N   1      27.458  22.164  -8.783  0.00  0.00     0.272 C 
ENDBRANCH  11  12
ENDBRANCH  10  11
ENDBRANCH   1  10
BRANCH   1  18
HETATM   18  C   UNK N   1      27.250  25.906  -4.544  0.00  0.00    -0.024 A 
HETATM   19  C   UNK N   1      27.118  26.657  -5.721  0.00  0.00     0.010 A 
HETATM   20  C   UNK N   1      26.380  27.844  -5.739  0.00  0.00     0.001 A 
HETATM   21  C   UNK N   1      25.750  28.290  -4.575  0.00  0.00     0.000 A 
HETATM   22  C   UNK N   1      25.855  27.547  -3.399  0.00  0.00     0.001 A 
HETATM   23  C   UNK N   1      26.592  26.359  -3.384  0.00  0.00     0.010 A 
ENDBRANCH   1  18
TORSDOF 6
ENDMDL
MODEL 5
REMARK VINA RESULT:      -5.8      9.104     12.670
REMARK  6 active torsions:
REMARK  status: ('A' for Active; 'I' for Inactive)
REMARK    1  A    between atoms: O_1  and  C_4 
REMARK    2  A    between atoms: N_2  and  C_11 
REMARK    3  A    between atoms: C_3  and  C_4 
REMARK    4  A    between atoms: C_4  and  C_7 
REMARK    5  A    between atoms: C_4  and  C_12 
REMARK    6  A    between atoms: C_7  and  C_11 
ROOT
HETATM    1  C   UNK N   1      28.761  17.150   4.612  0.00  0.00     0.090 C 
ENDROOT
BRANCH   1   2
HETATM    2  O   UNK N   1      29.469  17.522   3.466  0.00  0.00    -0.385 OA
HETATM    3  H   UNK N   1      29.985  17.019   2.816  0.00  0.00     0.211 HD
ENDBRANCH   1   2
BRANCH   1   4
HETATM    4  C   UNK N   1      27.545  16.293   4.138  0.00  0.00     0.025 C 
HETATM    5  C   UNK N   1      26.226  17.014   3.827  0.00  0.00     0.008 C 
HETATM    6  C   UNK N   1      25.385  17.227   5.094  0.00  0.00     0.000 C 
HETATM    7  C   UNK N   1      25.168  15.922   5.854  0.00  0.00     0.000 C 
HETATM    8  C   UNK N   1      26.508  15.305   6.223  0.00  0.00     0.000 C 
HETATM    9  C   UNK N   1      27.286  15.012   4.949  0.00  0.00     0.008 C 
ENDBRANCH   1   4
BRANCH   1  10
HETATM   10  C   UNK N   1      29.761  16.323   5.478  0.00  0.00     0.073 C 
BRANCH  10  11
HETATM   11  C   UNK N   1      31.232  16.768   5.611  0.00  0.00     0.276 C 
BRANCH  11  12
HETATM   12  N   UNK N   1      31.980  16.030   6.626  0.00  0.00     0.088 N 
HETATM   13  C   UNK N   1      31.529  16.395   7.977  0.00  0.00     0.272 C 
HETATM   14  C   UNK N   1      31.874  17.844   8.336  0.00  0.00     0.030 C 
HETATM   15  C   UNK N   1      33.375  18.050   8.219  0.00  0.00     0.003 C 
HETATM   16  C   UNK N   1      33.826  17.700   6.810  0.00  0.00     0.030 C 
HETATM   17  C   UNK N   1      33.424  16.261   6.474  0.00  0.00     0.272 C 
ENDBRANCH  11  12
ENDBRANCH  10  11
ENDBRANCH   1  10
BRANCH   1  18
HETATM   18  C   UNK N   1      28.271  18.468   5.215  0.00  0.00    -0.024 A 
HETATM   19  C   UNK N   1      27.866  19.561   4.435  0.00  0.00     0.010 A 
HETATM   20  C   UNK N   1      27.374  20.727   5.028  0.00  0.00     0.001 A 
HETATM   21  C   UNK N   1      27.267  20.809   6.417  0.00  0.00     0.000 A 
HETATM   22  C   UNK N   1      27.647  19.726   7.210  0.00  0.00     0.001 A 
HETATM   23  C   UNK N   1      28.137  18.560   6.614  0.00  0.00     0.010 A 
ENDBRANCH   1  18
TORSDOF 6
ENDMDL
MODEL 6
REMARK VINA RESULT:      -5.7     21.422     24.636
REMARK  6 active torsions:
REMARK  status: ('A' for Active; 'I' for Inactive)
REMARK    1  A    between atoms: O_1  and  C_4 
REMARK    2  A    between atoms: N_2  and  C_11 
REMARK    3  A    between atoms: C_3  and  C_4 
REMARK    4  A    between atoms: C_4  and  C_7 
REMARK    5  A    between atoms: C_4  and  C_12 
REMARK    6  A    between atoms: C_7  and  C_11 
ROOT
HETATM    1  C   UNK N   1      28.182  23.675  -5.960  0.00  0.00     0.090 C 
ENDROOT
BRANCH   1   2
HETATM    2  O   UNK N   1      28.377  24.791  -6.776  0.00  0.00    -0.385 OA
HETATM    3  H   UNK N   1      28.520  24.896  -7.730  0.00  0.00     0.211 HD
ENDBRANCH   1   2
BRANCH   1   4
HETATM    4  C   UNK N   1      29.594  23.082  -5.655  0.00  0.00     0.025 C 
HETATM    5  C   UNK N   1      29.701  21.959  -4.614  0.00  0.00     0.008 C 
HETATM    6  C   UNK N   1      29.797  22.517  -3.186  0.00  0.00     0.000 C 
HETATM    7  C   UNK N   1      30.922  23.540  -3.054  0.00  0.00     0.000 C 
HETATM    8  C   UNK N   1      30.709  24.678  -4.040  0.00  0.00     0.000 C 
HETATM    9  C   UNK N   1      30.714  24.117  -5.454  0.00  0.00     0.008 C 
ENDBRANCH   1   4
BRANCH   1  10
HETATM   10  C   UNK N   1      27.479  24.209  -4.674  0.00  0.00     0.073 C 
BRANCH  10  11
HETATM   11  C   UNK N   1      26.791  25.588  -4.676  0.00  0.00     0.276 C 
BRANCH  11  12
HETATM   12  N   UNK N   1      27.387  26.546  -3.747  0.00  0.00     0.088 N 
HETATM   13  C   UNK N   1      26.349  27.346  -3.080  0.00  0.00     0.272 C 
HETATM   14  C   UNK N   1      25.617  28.277  -4.051  0.00  0.00     0.030 C 
HETATM   15  C   UNK N   1      26.623  29.196  -4.726  0.00  0.00     0.003 C 
HETATM   16  C   UNK N   1      27.674  28.359  -5.439  0.00  0.00     0.030 C 
HETATM   17  C   UNK N   1      28.350  27.411  -4.443  0.00  0.00     0.272 C 
ENDBRANCH  11  12
ENDBRANCH  10  11
ENDBRANCH   1  10
BRANCH   1  18
HETATM   18  C   UNK N   1      27.377  22.697  -6.816  0.00  0.00    -0.024 A 
HETATM   19  C   UNK N   1      27.975  21.755  -7.667  0.00  0.00     0.010 A 
HETATM   20  C   UNK N   1      27.201  20.844  -8.391  0.00  0.00     0.001 A 
HETATM   21  C   UNK N   1      25.811  20.855  -8.263  0.00  0.00     0.000 A 
HETATM   22  C   UNK N   1      25.199  21.772  -7.408  0.00  0.00     0.001 A 
HETATM   23  C   UNK N   1      25.975  22.680  -6.683  0.00  0.00     0.010 A 
ENDBRANCH   1  18
TORSDOF 6
ENDMDL
MODEL 7
REMARK VINA RESULT:      -5.7     20.771     24.571
REMARK  6 active torsions:
REMARK  status: ('A' for Active; 'I' for Inactive)
REMARK    1  A    between atoms: O_1  and  C_4 
REMARK    2  A    between atoms: N_2  and  C_11 
REMARK    3  A    between atoms: C_3  and  C_4 
REMARK    4  A    between atoms: C_4  and  C_7 
REMARK    5  A    between atoms: C_4  and  C_12 
REMARK    6  A    between atoms: C_7  and  C_11 
ROOT
HETATM    1  C   UNK N   1      27.980  24.362  -4.316  0.00  0.00     0.090 C 
ENDROOT
BRANCH   1   2
HETATM    2  O   UNK N   1      27.586  23.822  -3.089  0.00  0.00    -0.385 OA
HETATM    3  H   UNK N   1      28.052  23.678  -2.250  0.00  0.00     0.211 HD
ENDBRANCH   1   2
BRANCH   1   4
HETATM    4  C   UNK N   1      29.529  24.189  -4.413  0.00  0.00     0.025 C 
HETATM    5  C   UNK N   1      30.079  23.031  -5.256  0.00  0.00     0.008 C 
HETATM    6  C   UNK N   1      30.138  21.723  -4.452  0.00  0.00     0.000 C 
HETATM    7  C   UNK N   1      30.900  21.899  -3.142  0.00  0.00     0.000 C 
HETATM    8  C   UNK N   1      30.249  22.990  -2.305  0.00  0.00     0.000 C 
HETATM    9  C   UNK N   1      30.289  24.299  -3.080  0.00  0.00     0.008 C 
ENDBRANCH   1   4
BRANCH   1  10
HETATM   10  C   UNK N   1      27.228  23.534  -5.404  0.00  0.00     0.073 C 
BRANCH  10  11
HETATM   11  C   UNK N   1      27.130  24.055  -6.852  0.00  0.00     0.276 C 
BRANCH  11  12
HETATM   12  N   UNK N   1      25.795  24.517  -7.222  0.00  0.00     0.088 N 
HETATM   13  C   UNK N   1      25.372  23.929  -8.501  0.00  0.00     0.272 C 
HETATM   14  C   UNK N   1      26.208  24.434  -9.681  0.00  0.00     0.030 C 
HETATM   15  C   UNK N   1      26.115  25.949  -9.755  0.00  0.00     0.003 C 
HETATM   16  C   UNK N   1      26.585  26.549  -8.439  0.00  0.00     0.030 C 
HETATM   17  C   UNK N   1      25.754  25.985  -7.281  0.00  0.00     0.272 C 
ENDBRANCH  11  12
ENDBRANCH  10  11
ENDBRANCH   1  10
BRANCH   1  18
HETATM   18  C   UNK N   1      27.623  25.846  -4.226  0.00  0.00    -0.024 A 
HETATM   19  C   UNK N   1      28.396  26.855  -4.820  0.00  0.00     0.010 A 
HETATM   20  C   UNK N   1      28.003  28.195  -4.758  0.00  0.00     0.001 A 
HETATM   21  C   UNK N   1      26.818  28.543  -4.108  0.00  0.00     0.000 A 
HETATM   22  C   UNK N   1      26.026  27.552  -3.527  0.00  0.00     0.001 A 
HETATM   23  C   UNK N   1      26.420  26.213  -3.593  0.00  0.00     0.010 A 
ENDBRANCH   1  18
TORSDOF 6
ENDMDL
MODEL 8
REMARK VINA RESULT:      -5.6      8.891     13.495
REMARK  6 active torsions:
REMARK  status: ('A' for Active; 'I' for Inactive)
REMARK    1  A    between atoms: O_1  and  C_4 
REMARK    2  A    between atoms: N_2  and  C_11 
REMARK    3  A    between atoms: C_3  and  C_4 
REMARK    4  A    between atoms: C_4  and  C_7 
REMARK    5  A    between atoms: C_4  and  C_12 
REMARK    6  A    between atoms: C_7  and  C_11 
ROOT
HETATM    1  C   UNK N   1      27.838  17.488   5.838  0.00  0.00     0.090 C 
ENDROOT
BRANCH   1   2
HETATM    2  O   UNK N   1      26.526  17.498   6.317  0.00  0.00    -0.385 OA
HETATM    3  H   UNK N   1      25.670  17.675   5.895  0.00  0.00     0.211 HD
ENDBRANCH   1   2
BRANCH   1   4
HETATM    4  C   UNK N   1      28.216  18.967   5.512  0.00  0.00     0.025 C 
HETATM    5  C   UNK N   1      27.910  20.043   6.562  0.00  0.00     0.008 C 
HETATM    6  C   UNK N   1      26.464  20.549   6.451  0.00  0.00     0.000 C 
HETATM    7  C   UNK N   1      26.135  21.012   5.034  0.00  0.00     0.000 C 
HETATM    8  C   UNK N   1      26.361  19.874   4.050  0.00  0.00     0.000 C 
HETATM    9  C   UNK N   1      27.822  19.453   4.106  0.00  0.00     0.008 C 
ENDBRANCH   1   4
BRANCH   1  10
HETATM   10  C   UNK N   1      28.705  16.902   6.995  0.00  0.00     0.073 C 
BRANCH  10  11
HETATM   11  C   UNK N   1      30.124  17.445   7.260  0.00  0.00     0.276 C 
BRANCH  11  12
HETATM   12  N   UNK N   1      31.125  16.401   7.468  0.00  0.00     0.088 N 
HETATM   13  C   UNK N   1      32.095  16.803   8.498  0.00  0.00     0.272 C 
HETATM   14  C   UNK N   1      32.968  17.979   8.050  0.00  0.00     0.030 C 
HETATM   15  C   UNK N   1      33.698  17.608   6.770  0.00  0.00     0.003 C 
HETATM   16  C   UNK N   1      32.685  17.224   5.702  0.00  0.00     0.030 C 
HETATM   17  C   UNK N   1      31.804  16.077   6.206  0.00  0.00     0.272 C 
ENDBRANCH  11  12
ENDBRANCH  10  11
ENDBRANCH   1  10
BRANCH   1  18
HETATM   18  C   UNK N   1      27.781  16.665   4.550  0.00  0.00    -0.024 A 
HETATM   19  C   UNK N   1      26.576  16.262   3.955  0.00  0.00     0.010 A 
HETATM   20  C   UNK N   1      26.569  15.557   2.748  0.00  0.00     0.001 A 
HETATM   21  C   UNK N   1      27.774  15.255   2.111  0.00  0.00     0.000 A 
HETATM   22  C   UNK N   1      28.982  15.662   2.679  0.00  0.00     0.001 A 
HETATM   23  C   UNK N   1      28.986  16.370   3.884  0.00  0.00     0.010 A 
ENDBRANCH   1  18
TORSDOF 6
ENDMDL
MODEL 9
REMARK VINA RESULT:      -5.6      2.234      6.457
REMARK  6 active torsions:
REMARK  status: ('A' for Active; 'I' for Inactive)
REMARK    1  A    between atoms: O_1  and  C_4 
REMARK    2  A    between atoms: N_2  and  C_11 
REMARK    3  A    between atoms: C_3  and  C_4 
REMARK    4  A    between atoms: C_4  and  C_7 
REMARK    5  A    between atoms: C_4  and  C_12 
REMARK    6  A    between atoms: C_7  and  C_11 
ROOT
HETATM    1  C   UNK N   1      35.726  14.870  10.520  0.00  0.00     0.090 C 
ENDROOT
BRANCH   1   2
HETATM    2  O   UNK N   1      36.618  15.803  11.055  0.00  0.00    -0.385 OA
HETATM    3  H   UNK N   1      36.895  16.009  11.961  0.00  0.00     0.211 HD
ENDBRANCH   1   2
BRANCH   1   4
HETATM    4  C   UNK N   1      36.517  14.040   9.460  0.00  0.00     0.025 C 
HETATM    5  C   UNK N   1      36.076  12.595   9.192  0.00  0.00     0.008 C 
HETATM    6  C   UNK N   1      36.702  11.616  10.198  0.00  0.00     0.000 C 
HETATM    7  C   UNK N   1      38.220  11.759  10.255  0.00  0.00     0.000 C 
HETATM    8  C   UNK N   1      38.595  13.186  10.622  0.00  0.00     0.000 C 
HETATM    9  C   UNK N   1      38.050  14.130   9.561  0.00  0.00     0.008 C 
ENDBRANCH   1   4
BRANCH   1  10
HETATM   10  C   UNK N   1      35.260  13.993  11.723  0.00  0.00     0.073 C 
BRANCH  10  11
HETATM   11  C   UNK N   1      35.892  14.180  13.117  0.00  0.00     0.276 C 
BRANCH  11  12
HETATM   12  N   UNK N   1      36.451  12.953  13.680  0.00  0.00     0.088 N 
HETATM   13  C   UNK N   1      35.427  11.901  13.765  0.00  0.00     0.272 C 
HETATM   14  C   UNK N   1      34.332  12.234  14.784  0.00  0.00     0.030 C 
HETATM   15  C   UNK N   1      34.962  12.452  16.149  0.00  0.00     0.003 C 
HETATM   16  C   UNK N   1      35.997  13.563  16.058  0.00  0.00     0.030 C 
HETATM   17  C   UNK N   1      37.047  13.212  14.998  0.00  0.00     0.272 C 
ENDBRANCH  11  12
ENDBRANCH  10  11
ENDBRANCH   1  10
BRANCH   1  18
HETATM   18  C   UNK N   1      34.647  15.706   9.832  0.00  0.00    -0.024 A 
HETATM   19  C   UNK N   1      34.896  16.974   9.286  0.00  0.00     0.010 A 
HETATM   20  C   UNK N   1      33.892  17.681   8.618  0.00  0.00     0.001 A 
HETATM   21  C   UNK N   1      32.621  17.119   8.476  0.00  0.00     0.000 A 
HETATM   22  C   UNK N   1      32.359  15.852   8.997  0.00  0.00     0.001 A 
HETATM   23  C   UNK N   1      33.366  15.146   9.662  0.00  0.00     0.010 A 
ENDBRANCH   1  18
TORSDOF 6
ENDMDL
