REMARK  1 active torsions:
REMARK  status: ('A' for Active; 'I' for Inactive)
REMARK    1  A    between atoms: C_7  and  C_17 
ROOT
HETATM    1  O   UNK N   1      -0.095  -3.927   0.546  0.00  0.00    -0.293 OA
HETATM    2  C   UNK N   1       6.761   0.949   0.097  0.00  0.00    -0.029 C 
HETATM    3  C   UNK N   1       6.836  -0.515  -0.323  0.00  0.00     0.002 C 
HETATM    4  C   UNK N   1       5.618  -1.309   0.168  0.00  0.00     0.018 C 
HETATM    5  C   UNK N   1       4.314  -0.657  -0.379  0.00  0.00     0.006 C 
HETATM    6  C   UNK N   1       8.112   1.414  -0.434  0.00  0.00     0.063 C 
HETATM    7  C   UNK N   1       5.529   1.590  -0.548  0.00  0.00     0.011 C 
HETATM    8  C   UNK N   1       8.208  -0.954   0.174  0.00  0.00     0.007 C 
HETATM    9  C   UNK N   1       4.259   0.858  -0.072  0.00  0.00     0.007 C 
HETATM   10  C   UNK N   1       3.085  -1.417   0.201  0.00  0.00    -0.012 C 
HETATM   11  C   UNK N   1       9.080   0.302   0.004  0.00  0.00     0.013 C 
HETATM   12  C   UNK N   1       6.694   1.132   1.626  0.00  0.00     0.016 C 
HETATM   13  C   UNK N   1       5.679  -2.746  -0.291  0.00  0.00    -0.021 C 
HETATM   14  C   UNK N   1       3.241  -2.919  -0.035  0.00  0.00    -0.046 C 
HETATM   15  C   UNK N   1       1.782  -0.945  -0.464  0.00  0.00     0.022 C 
HETATM   16  C   UNK N   1       2.975  -1.174   1.711  0.00  0.00     0.021 C 
HETATM   17  C   UNK N   1       4.571  -3.502  -0.332  0.00  0.00     0.004 C 
HETATM   18  C   UNK N   1       0.557  -1.703   0.083  0.00  0.00     0.084 C 
HETATM   19  C   UNK N   1       2.178  -3.732   0.049  0.00  0.00     0.058 C 
HETATM   20  C   UNK N   1       0.822  -3.180   0.254  0.00  0.00     0.149 C 
ENDROOT
BRANCH   6  21
HETATM   21  C   UNK N   1       8.520   2.823  -0.082  0.00  0.00     0.128 C 
HETATM   22  O   UNK N   1       7.823   3.758  -0.441  0.00  0.00    -0.298 OA
HETATM   23  C   UNK N   1       9.782   3.102   0.669  0.00  0.00     0.091 C 
ENDBRANCH   6  21
TORSDOF 1
