MODEL 1
REMARK VINA RESULT:      -7.9      0.000      0.000
REMARK  1 active torsions:
REMARK  status: ('A' for Active; 'I' for Inactive)
REMARK    1  A    between atoms: C_7  and  C_17 
ROOT
HETATM    1  O   UNK N   1      35.119  19.527  -4.272  0.00  0.00    -0.293 OA
HETATM    2  C   UNK N   1      28.117  24.188  -4.757  0.00  0.00    -0.029 C 
HETATM    3  C   UNK N   1      28.225  22.886  -5.545  0.00  0.00     0.002 C 
HETATM    4  C   UNK N   1      29.674  22.386  -5.618  0.00  0.00     0.018 C 
HETATM    5  C   UNK N   1      30.232  22.192  -4.177  0.00  0.00     0.006 C 
HETATM    6  C   UNK N   1      26.630  24.458  -4.955  0.00  0.00     0.063 C 
HETATM    7  C   UNK N   1      28.568  23.936  -3.316  0.00  0.00     0.011 C 
HETATM    8  C   UNK N   1      27.527  23.212  -6.860  0.00  0.00     0.007 C 
HETATM    9  C   UNK N   1      30.033  23.458  -3.311  0.00  0.00     0.007 C 
HETATM   10  C   UNK N   1      31.729  21.773  -4.266  0.00  0.00    -0.012 C 
HETATM   11  C   UNK N   1      26.403  24.179  -6.450  0.00  0.00     0.013 C 
HETATM   12  C   UNK N   1      28.955  25.329  -5.366  0.00  0.00     0.016 C 
HETATM   13  C   UNK N   1      29.764  21.074  -6.360  0.00  0.00    -0.021 C 
HETATM   14  C   UNK N   1      31.884  20.586  -5.217  0.00  0.00    -0.046 C 
HETATM   15  C   UNK N   1      32.272  21.372  -2.885  0.00  0.00     0.022 C 
HETATM   16  C   UNK N   1      32.575  22.934  -4.802  0.00  0.00     0.021 C 
HETATM   17  C   UNK N   1      30.825  20.267  -6.204  0.00  0.00     0.004 C 
HETATM   18  C   UNK N   1      33.747  20.933  -2.958  0.00  0.00     0.084 C 
HETATM   19  C   UNK N   1      32.992  19.833  -5.186  0.00  0.00     0.058 C 
HETATM   20  C   UNK N   1      34.030  20.062  -4.158  0.00  0.00     0.149 C 
ENDROOT
BRANCH   6  21
HETATM   21  C   UNK N   1      26.117  25.781  -4.443  0.00  0.00     0.128 C 
HETATM   22  O   UNK N   1      26.194  26.035  -3.252  0.00  0.00    -0.298 OA
HETATM   23  C   UNK N   1      25.483  26.776  -5.361  0.00  0.00     0.091 C 
ENDBRANCH   6  21
TORSDOF 1
ENDMDL
MODEL 2
REMARK VINA RESULT:      -7.6      1.897      2.871
REMARK  1 active torsions:
REMARK  status: ('A' for Active; 'I' for Inactive)
REMARK    1  A    between atoms: C_7  and  C_17 
ROOT
HETATM    1  O   UNK N   1      31.857  19.179  -7.703  0.00  0.00    -0.293 OA
HETATM    2  C   UNK N   1      27.086  25.484  -4.792  0.00  0.00    -0.029 C 
HETATM    3  C   UNK N   1      26.534  24.534  -5.849  0.00  0.00     0.002 C 
HETATM    4  C   UNK N   1      27.648  23.705  -6.504  0.00  0.00     0.018 C 
HETATM    5  C   UNK N   1      28.417  22.907  -5.410  0.00  0.00     0.006 C 
HETATM    6  C   UNK N   1      25.793  26.203  -4.426  0.00  0.00     0.063 C 
HETATM    7  C   UNK N   1      27.737  24.663  -3.676  0.00  0.00     0.011 C 
HETATM    8  C   UNK N   1      25.716  25.449  -6.753  0.00  0.00     0.007 C 
HETATM    9  C   UNK N   1      28.892  23.825  -4.259  0.00  0.00     0.007 C 
HETATM   10  C   UNK N   1      29.599  22.144  -6.076  0.00  0.00    -0.012 C 
HETATM   11  C   UNK N   1      25.142  26.500  -5.788  0.00  0.00     0.013 C 
HETATM   12  C   UNK N   1      28.113  26.483  -5.361  0.00  0.00     0.016 C 
HETATM   13  C   UNK N   1      27.087  22.736  -7.516  0.00  0.00    -0.021 C 
HETATM   14  C   UNK N   1      29.093  21.337  -7.271  0.00  0.00    -0.046 C 
HETATM   15  C   UNK N   1      30.265  21.183  -5.078  0.00  0.00     0.022 C 
HETATM   16  C   UNK N   1      30.657  23.135  -6.575  0.00  0.00     0.021 C 
HETATM   17  C   UNK N   1      27.793  21.662  -7.904  0.00  0.00     0.004 C 
HETATM   18  C   UNK N   1      31.425  20.402  -5.727  0.00  0.00     0.084 C 
HETATM   19  C   UNK N   1      29.832  20.340  -7.778  0.00  0.00     0.058 C 
HETATM   20  C   UNK N   1      31.090  19.926  -7.121  0.00  0.00     0.149 C 
ENDROOT
BRANCH   6  21
HETATM   21  C   UNK N   1      25.923  27.375  -3.485  0.00  0.00     0.128 C 
HETATM   22  O   UNK N   1      25.960  27.178  -2.282  0.00  0.00    -0.298 OA
HETATM   23  C   UNK N   1      25.971  28.780  -3.995  0.00  0.00     0.091 C 
ENDBRANCH   6  21
TORSDOF 1
ENDMDL
MODEL 3
REMARK VINA RESULT:      -7.5      1.422      6.892
REMARK  1 active torsions:
REMARK  status: ('A' for Active; 'I' for Inactive)
REMARK    1  A    between atoms: C_7  and  C_17 
ROOT
HETATM    1  O   UNK N   1      24.198  27.330  -5.605  0.00  0.00    -0.293 OA
HETATM    2  C   UNK N   1      30.865  22.404  -4.099  0.00  0.00    -0.029 C 
HETATM    3  C   UNK N   1      30.147  22.328  -5.442  0.00  0.00     0.002 C 
HETATM    4  C   UNK N   1      28.774  23.011  -5.391  0.00  0.00     0.018 C 
HETATM    5  C   UNK N   1      28.945  24.496  -4.953  0.00  0.00     0.006 C 
HETATM    6  C   UNK N   1      32.098  21.578  -4.446  0.00  0.00     0.063 C 
HETATM    7  C   UNK N   1      31.118  23.874  -3.751  0.00  0.00     0.011 C 
HETATM    8  C   UNK N   1      30.181  20.842  -5.776  0.00  0.00     0.007 C 
HETATM    9  C   UNK N   1      29.772  24.618  -3.651  0.00  0.00     0.007 C 
HETATM   10  C   UNK N   1      27.538  25.150  -4.817  0.00  0.00    -0.012 C 
HETATM   11  C   UNK N   1      31.526  20.366  -5.201  0.00  0.00     0.013 C 
HETATM   12  C   UNK N   1      30.075  21.734  -2.957  0.00  0.00     0.016 C 
HETATM   13  C   UNK N   1      28.091  22.971  -6.736  0.00  0.00    -0.021 C 
HETATM   14  C   UNK N   1      26.725  24.908  -6.088  0.00  0.00    -0.046 C 
HETATM   15  C   UNK N   1      27.655  26.665  -4.585  0.00  0.00     0.022 C 
HETATM   16  C   UNK N   1      26.780  24.535  -3.634  0.00  0.00     0.021 C 
HETATM   17  C   UNK N   1      27.101  23.828  -7.030  0.00  0.00     0.004 C 
HETATM   18  C   UNK N   1      26.271  27.331  -4.470  0.00  0.00     0.084 C 
HETATM   19  C   UNK N   1      25.644  25.656  -6.353  0.00  0.00     0.058 C 
HETATM   20  C   UNK N   1      25.288  26.799  -5.486  0.00  0.00     0.149 C 
ENDROOT
BRANCH   6  21
HETATM   21  C   UNK N   1      33.036  21.265  -3.306  0.00  0.00     0.128 C 
HETATM   22  O   UNK N   1      32.662  21.432  -2.157  0.00  0.00    -0.298 OA
HETATM   23  C   UNK N   1      34.430  20.786  -3.556  0.00  0.00     0.091 C 
ENDBRANCH   6  21
TORSDOF 1
ENDMDL
MODEL 4
REMARK VINA RESULT:      -7.3      4.183      7.320
REMARK  1 active torsions:
REMARK  status: ('A' for Active; 'I' for Inactive)
REMARK    1  A    between atoms: C_7  and  C_17 
ROOT
HETATM    1  O   UNK N   1      26.222  28.897  -2.939  0.00  0.00    -0.293 OA
HETATM    2  C   UNK N   1      26.832  22.745  -8.663  0.00  0.00    -0.029 C 
HETATM    3  C   UNK N   1      27.239  22.486  -7.216  0.00  0.00     0.002 C 
HETATM    4  C   UNK N   1      27.404  23.794  -6.430  0.00  0.00     0.018 C 
HETATM    5  C   UNK N   1      26.076  24.605  -6.480  0.00  0.00     0.006 C 
HETATM    6  C   UNK N   1      26.853  21.309  -9.173  0.00  0.00     0.063 C 
HETATM    7  C   UNK N   1      25.469  23.444  -8.680  0.00  0.00     0.011 C 
HETATM    8  C   UNK N   1      28.462  21.587  -7.350  0.00  0.00     0.007 C 
HETATM    9  C   UNK N   1      25.570  24.787  -7.930  0.00  0.00     0.007 C 
HETATM   10  C   UNK N   1      26.286  25.968  -5.758  0.00  0.00    -0.012 C 
HETATM   11  C   UNK N   1      28.157  20.735  -8.594  0.00  0.00     0.013 C 
HETATM   12  C   UNK N   1      27.858  23.602  -9.430  0.00  0.00     0.016 C 
HETATM   13  C   UNK N   1      27.762  23.525  -4.988  0.00  0.00    -0.021 C 
HETATM   14  C   UNK N   1      26.887  25.737  -4.371  0.00  0.00    -0.046 C 
HETATM   15  C   UNK N   1      24.955  26.719  -5.600  0.00  0.00     0.022 C 
HETATM   16  C   UNK N   1      27.250  26.850  -6.560  0.00  0.00     0.021 C 
HETATM   17  C   UNK N   1      27.564  24.459  -4.045  0.00  0.00     0.004 C 
HETATM   18  C   UNK N   1      25.141  28.062  -4.867  0.00  0.00     0.084 C 
HETATM   19  C   UNK N   1      26.829  26.699  -3.439  0.00  0.00     0.058 C 
HETATM   20  C   UNK N   1      26.086  27.951  -3.694  0.00  0.00     0.149 C 
ENDROOT
BRANCH   6  21
HETATM   21  C   UNK N   1      26.649  21.123 -10.656  0.00  0.00     0.128 C 
HETATM   22  O   UNK N   1      25.539  21.289 -11.135  0.00  0.00    -0.298 OA
HETATM   23  C   UNK N   1      27.772  20.703 -11.548  0.00  0.00     0.091 C 
ENDBRANCH   6  21
TORSDOF 1
ENDMDL
MODEL 5
REMARK VINA RESULT:      -7.1     13.016     16.756
REMARK  1 active torsions:
REMARK  status: ('A' for Active; 'I' for Inactive)
REMARK    1  A    between atoms: C_7  and  C_17 
ROOT
HETATM    1  O   UNK N   1      32.505  17.011   2.440  0.00  0.00    -0.293 OA
HETATM    2  C   UNK N   1      34.915  14.254  10.028  0.00  0.00    -0.029 C 
HETATM    3  C   UNK N   1      34.537  15.719   9.831  0.00  0.00     0.002 C 
HETATM    4  C   UNK N   1      34.487  16.097   8.345  0.00  0.00     0.018 C 
HETATM    5  C   UNK N   1      33.474  15.175   7.605  0.00  0.00     0.006 C 
HETATM    6  C   UNK N   1      34.976  14.231  11.550  0.00  0.00     0.063 C 
HETATM    7  C   UNK N   1      33.840  13.372   9.385  0.00  0.00     0.011 C 
HETATM    8  C   UNK N   1      35.535  16.461  10.712  0.00  0.00     0.007 C 
HETATM    9  C   UNK N   1      33.756  13.679   7.877  0.00  0.00     0.007 C 
HETATM   10  C   UNK N   1      33.501  15.509   6.084  0.00  0.00    -0.012 C 
HETATM   11  C   UNK N   1      35.748  15.513  11.905  0.00  0.00     0.013 C 
HETATM   12  C   UNK N   1      36.292  13.904   9.430  0.00  0.00     0.016 C 
HETATM   13  C   UNK N   1      34.069  17.536   8.159  0.00  0.00    -0.021 C 
HETATM   14  C   UNK N   1      33.324  17.013   5.876  0.00  0.00    -0.046 C 
HETATM   15  C   UNK N   1      32.377  14.771   5.338  0.00  0.00     0.022 C 
HETATM   16  C   UNK N   1      34.844  15.091   5.473  0.00  0.00     0.021 C 
HETATM   17  C   UNK N   1      33.576  17.962   6.986  0.00  0.00     0.004 C 
HETATM   18  C   UNK N   1      32.376  15.107   3.835  0.00  0.00     0.084 C 
HETATM   19  C   UNK N   1      32.963  17.493   4.678  0.00  0.00     0.058 C 
HETATM   20  C   UNK N   1      32.616  16.575   3.572  0.00  0.00     0.149 C 
ENDROOT
BRANCH   6  21
HETATM   21  C   UNK N   1      35.484  12.957  12.180  0.00  0.00     0.128 C 
HETATM   22  O   UNK N   1      34.787  11.956  12.157  0.00  0.00    -0.298 OA
HETATM   23  C   UNK N   1      36.812  12.904  12.864  0.00  0.00     0.091 C 
ENDBRANCH   6  21
TORSDOF 1
ENDMDL
MODEL 6
REMARK VINA RESULT:      -7.0     21.905     25.204
REMARK  1 active torsions:
REMARK  status: ('A' for Active; 'I' for Inactive)
REMARK    1  A    between atoms: C_7  and  C_17 
ROOT
HETATM    1  O   UNK N   1      34.790   9.799  22.043  0.00  0.00    -0.293 OA
HETATM    2  C   UNK N   1      36.376  11.300  13.906  0.00  0.00    -0.029 C 
HETATM    3  C   UNK N   1      36.125  12.461  14.863  0.00  0.00     0.002 C 
HETATM    4  C   UNK N   1      35.505  11.985  16.183  0.00  0.00     0.018 C 
HETATM    5  C   UNK N   1      36.437  10.930  16.848  0.00  0.00     0.006 C 
HETATM    6  C   UNK N   1      36.876  12.092  12.704  0.00  0.00     0.063 C 
HETATM    7  C   UNK N   1      37.383  10.338  14.544  0.00  0.00     0.011 C 
HETATM    8  C   UNK N   1      35.319  13.443  14.021  0.00  0.00     0.007 C 
HETATM    9  C   UNK N   1      36.809   9.794  15.866  0.00  0.00     0.007 C 
HETATM   10  C   UNK N   1      35.753  10.389  18.138  0.00  0.00    -0.012 C 
HETATM   11  C   UNK N   1      35.890  13.268  12.603  0.00  0.00     0.013 C 
HETATM   12  C   UNK N   1      35.089  10.532  13.545  0.00  0.00     0.016 C 
HETATM   13  C   UNK N   1      35.302  13.135  17.140  0.00  0.00    -0.021 C 
HETATM   14  C   UNK N   1      35.311  11.555  19.022  0.00  0.00    -0.046 C 
HETATM   15  C   UNK N   1      36.715   9.498  18.939  0.00  0.00     0.022 C 
HETATM   16  C   UNK N   1      34.514   9.562  17.774  0.00  0.00     0.021 C 
HETATM   17  C   UNK N   1      35.162  12.917  18.457  0.00  0.00     0.004 C 
HETATM   18  C   UNK N   1      36.061   8.972  20.231  0.00  0.00     0.084 C 
HETATM   19  C   UNK N   1      35.028  11.353  20.317  0.00  0.00     0.058 C 
HETATM   20  C   UNK N   1      35.250  10.031  20.940  0.00  0.00     0.149 C 
ENDROOT
BRANCH   6  21
HETATM   21  C   UNK N   1      37.103  11.308  11.435  0.00  0.00     0.128 C 
HETATM   22  O   UNK N   1      38.045  10.535  11.366  0.00  0.00    -0.298 OA
HETATM   23  C   UNK N   1      36.218  11.485  10.244  0.00  0.00     0.091 C 
ENDBRANCH   6  21
TORSDOF 1
ENDMDL
MODEL 7
REMARK VINA RESULT:      -7.0      4.299      6.988
REMARK  1 active torsions:
REMARK  status: ('A' for Active; 'I' for Inactive)
REMARK    1  A    between atoms: C_7  and  C_17 
ROOT
HETATM    1  O   UNK N   1      28.420  30.998  -2.715  0.00  0.00    -0.293 OA
HETATM    2  C   UNK N   1      26.421  23.957  -6.887  0.00  0.00    -0.029 C 
HETATM    3  C   UNK N   1      27.635  23.979  -5.964  0.00  0.00     0.002 C 
HETATM    4  C   UNK N   1      28.040  25.413  -5.595  0.00  0.00     0.018 C 
HETATM    5  C   UNK N   1      26.838  26.139  -4.923  0.00  0.00     0.006 C 
HETATM    6  C   UNK N   1      26.345  22.455  -7.137  0.00  0.00     0.063 C 
HETATM    7  C   UNK N   1      25.227  24.577  -6.155  0.00  0.00     0.011 C 
HETATM    8  C   UNK N   1      28.658  23.129  -6.707  0.00  0.00     0.007 C 
HETATM    9  C   UNK N   1      25.554  26.035  -5.780  0.00  0.00     0.007 C 
HETATM   10  C   UNK N   1      27.233  27.618  -4.638  0.00  0.00    -0.012 C 
HETATM   11  C   UNK N   1      27.806  22.054  -7.405  0.00  0.00     0.013 C 
HETATM   12  C   UNK N   1      26.659  24.709  -8.211  0.00  0.00     0.016 C 
HETATM   13  C   UNK N   1      29.214  25.424  -4.646  0.00  0.00    -0.021 C 
HETATM   14  C   UNK N   1      28.561  27.667  -3.883  0.00  0.00    -0.046 C 
HETATM   15  C   UNK N   1      26.159  28.322  -3.794  0.00  0.00     0.022 C 
HETATM   16  C   UNK N   1      27.397  28.386  -5.955  0.00  0.00     0.021 C 
HETATM   17  C   UNK N   1      29.477  26.501  -3.890  0.00  0.00     0.004 C 
HETATM   18  C   UNK N   1      26.545  29.781  -3.484  0.00  0.00     0.084 C 
HETATM   19  C   UNK N   1      28.926  28.777  -3.225  0.00  0.00     0.058 C 
HETATM   20  C   UNK N   1      28.003  29.927  -3.119  0.00  0.00     0.149 C 
ENDROOT
BRANCH   6  21
HETATM   21  C   UNK N   1      25.335  21.997  -8.159  0.00  0.00     0.128 C 
HETATM   22  O   UNK N   1      24.146  22.175  -7.951  0.00  0.00    -0.298 OA
HETATM   23  C   UNK N   1      25.759  21.296  -9.410  0.00  0.00     0.091 C 
ENDBRANCH   6  21
TORSDOF 1
ENDMDL
MODEL 8
REMARK VINA RESULT:      -7.0      1.807      7.115
REMARK  1 active torsions:
REMARK  status: ('A' for Active; 'I' for Inactive)
REMARK    1  A    between atoms: C_7  and  C_17 
ROOT
HETATM    1  O   UNK N   1      25.190  27.997  -4.268  0.00  0.00    -0.293 OA
HETATM    2  C   UNK N   1      29.840  21.435  -6.776  0.00  0.00    -0.029 C 
HETATM    3  C   UNK N   1      29.687  21.739  -5.290  0.00  0.00     0.002 C 
HETATM    4  C   UNK N   1      29.127  23.148  -5.054  0.00  0.00     0.018 C 
HETATM    5  C   UNK N   1      27.757  23.294  -5.778  0.00  0.00     0.006 C 
HETATM    6  C   UNK N   1      30.488  20.059  -6.668  0.00  0.00     0.063 C 
HETATM    7  C   UNK N   1      28.460  21.476  -7.438  0.00  0.00     0.011 C 
HETATM    8  C   UNK N   1      31.067  21.426  -4.723  0.00  0.00     0.007 C 
HETATM    9  C   UNK N   1      27.848  22.880  -7.266  0.00  0.00     0.007 C 
HETATM   10  C   UNK N   1      27.246  24.755  -5.607  0.00  0.00    -0.012 C 
HETATM   11  C   UNK N   1      31.555  20.243  -5.575  0.00  0.00     0.013 C 
HETATM   12  C   UNK N   1      30.784  22.417  -7.496  0.00  0.00     0.016 C 
HETATM   13  C   UNK N   1      28.937  23.423  -3.582  0.00  0.00    -0.021 C 
HETATM   14  C   UNK N   1      27.276  25.149  -4.131  0.00  0.00    -0.046 C 
HETATM   15  C   UNK N   1      25.806  24.899  -6.127  0.00  0.00     0.022 C 
HETATM   16  C   UNK N   1      28.142  25.725  -6.385  0.00  0.00     0.021 C 
HETATM   17  C   UNK N   1      28.110  24.394  -3.165  0.00  0.00     0.004 C 
HETATM   18  C   UNK N   1      25.277  26.334  -5.945  0.00  0.00     0.084 C 
HETATM   19  C   UNK N   1      26.567  26.201  -3.695  0.00  0.00     0.058 C 
HETATM   20  C   UNK N   1      25.655  26.923  -4.607  0.00  0.00     0.149 C 
ENDROOT
BRANCH   6  21
HETATM   21  C   UNK N   1      30.963  19.440  -7.959  0.00  0.00     0.128 C 
HETATM   22  O   UNK N   1      32.125  19.581  -8.302  0.00  0.00    -0.298 OA
HETATM   23  C   UNK N   1      30.029  18.684  -8.848  0.00  0.00     0.091 C 
ENDBRANCH   6  21
TORSDOF 1
ENDMDL
MODEL 9
REMARK VINA RESULT:      -6.9     22.128     25.491
REMARK  1 active torsions:
REMARK  status: ('A' for Active; 'I' for Inactive)
REMARK    1  A    between atoms: C_7  and  C_17 
ROOT
HETATM    1  O   UNK N   1      37.770  13.050  10.797  0.00  0.00    -0.293 OA
HETATM    2  C   UNK N   1      35.380   9.829  18.206  0.00  0.00    -0.029 C 
HETATM    3  C   UNK N   1      35.132  11.302  17.897  0.00  0.00     0.002 C 
HETATM    4  C   UNK N   1      35.948  11.773  16.686  0.00  0.00     0.018 C 
HETATM    5  C   UNK N   1      35.598  10.896  15.447  0.00  0.00     0.006 C 
HETATM    6  C   UNK N   1      34.538   9.711  19.471  0.00  0.00     0.063 C 
HETATM    7  C   UNK N   1      34.922   8.986  17.013  0.00  0.00     0.011 C 
HETATM    8  C   UNK N   1      35.393  11.990  19.231  0.00  0.00     0.007 C 
HETATM    9  C   UNK N   1      35.727   9.387  15.760  0.00  0.00     0.007 C 
HETATM   10  C   UNK N   1      36.499  11.325  14.252  0.00  0.00    -0.012 C 
HETATM   11  C   UNK N   1      34.904  10.970  20.274  0.00  0.00     0.013 C 
HETATM   12  C   UNK N   1      36.859   9.522  18.515  0.00  0.00     0.016 C 
HETATM   13  C   UNK N   1      35.661  13.219  16.360  0.00  0.00    -0.021 C 
HETATM   14  C   UNK N   1      36.418  12.838  14.054  0.00  0.00    -0.046 C 
HETATM   15  C   UNK N   1      36.056  10.632  12.953  0.00  0.00     0.022 C 
HETATM   16  C   UNK N   1      37.960  10.951  14.527  0.00  0.00     0.021 C 
HETATM   17  C   UNK N   1      35.933  13.717  15.144  0.00  0.00     0.004 C 
HETATM   18  C   UNK N   1      36.924  11.062  11.754  0.00  0.00     0.084 C 
HETATM   19  C   UNK N   1      36.809  13.392  12.897  0.00  0.00     0.058 C 
HETATM   20  C   UNK N   1      37.214  12.544  11.755  0.00  0.00     0.149 C 
ENDROOT
BRANCH   6  21
HETATM   21  C   UNK N   1      34.630   8.402  20.215  0.00  0.00     0.128 C 
HETATM   22  O   UNK N   1      34.088   7.410  19.756  0.00  0.00    -0.298 OA
HETATM   23  C   UNK N   1      35.345   8.301  21.524  0.00  0.00     0.091 C 
ENDBRANCH   6  21
TORSDOF 1
ENDMDL
