MODEL 1
REMARK VINA RESULT:      -5.2      0.000      0.000
REMARK  4 active torsions:
REMARK  status: ('A' for Active; 'I' for Inactive)
REMARK    1  A    between atoms: O_1  and  C_4 
REMARK    2  A    between atoms: O_1  and  C_5 
REMARK    3  A    between atoms: N_2  and  C_3 
REMARK    4  A    between atoms: C_3  and  C_4 
ROOT
HETATM    1  C   UNK N   1      34.784  12.233  15.744  0.00  0.00     0.080 A 
HETATM    2  C   UNK N   1      34.500  10.882  15.382  0.00  0.00    -0.028 A 
HETATM    3  C   UNK N   1      35.145  12.510  17.080  0.00  0.00    -0.028 A 
HETATM    4  C   UNK N   1      34.606   9.869  16.339  0.00  0.00     0.009 A 
HETATM    5  C   UNK N   1      35.248  11.479  18.016  0.00  0.00     0.009 A 
HETATM    6  C   UNK N   1      34.986  10.162  17.647  0.00  0.00     0.001 A 
HETATM    7  C   UNK N   1      34.067  10.477  14.012  0.00  0.00     0.051 C 
HETATM    8  C   UNK N   1      35.443  13.904  17.514  0.00  0.00     0.051 C 
ENDROOT
BRANCH   1   9
HETATM    9  O   UNK N   1      34.733  13.275  14.866  0.00  0.00    -0.348 OA
BRANCH   9  10
HETATM   10  C   UNK N   1      35.819  13.803  14.201  0.00  0.00     0.199 C 
BRANCH  10  11
HETATM   11  C   UNK N   1      35.860  13.351  12.755  0.00  0.00     0.094 C 
HETATM   12  C   UNK N   1      34.926  14.203  11.918  0.00  0.00     0.034 C 
BRANCH  11  13
HETATM   13  N   UNK N   1      37.214  13.504  12.257  0.00  0.00    -0.424 N 
HETATM   14  H   UNK N   1      37.394  13.828  11.306  0.00  0.00     0.150 HD
HETATM   15  H   UNK N   1      38.001  13.283  12.867  0.00  0.00     0.150 HD
ENDBRANCH  11  13
ENDBRANCH  10  11
ENDBRANCH   9  10
ENDBRANCH   1   9
TORSDOF 4
ENDMDL
MODEL 2
REMARK VINA RESULT:      -5.2      0.121      2.410
REMARK  4 active torsions:
REMARK  status: ('A' for Active; 'I' for Inactive)
REMARK    1  A    between atoms: O_1  and  C_4 
REMARK    2  A    between atoms: O_1  and  C_5 
REMARK    3  A    between atoms: N_2  and  C_3 
REMARK    4  A    between atoms: C_3  and  C_4 
ROOT
HETATM    1  C   UNK N   1      34.799  12.214  15.818  0.00  0.00     0.080 A 
HETATM    2  C   UNK N   1      35.157  12.545  17.159  0.00  0.00    -0.028 A 
HETATM    3  C   UNK N   1      34.569  10.859  15.498  0.00  0.00    -0.028 A 
HETATM    4  C   UNK N   1      35.248  11.537  18.123  0.00  0.00     0.009 A 
HETATM    5  C   UNK N   1      34.663   9.871  16.481  0.00  0.00     0.009 A 
HETATM    6  C   UNK N   1      34.995  10.208  17.790  0.00  0.00     0.001 A 
HETATM    7  C   UNK N   1      35.465  13.937  17.602  0.00  0.00     0.051 C 
HETATM    8  C   UNK N   1      34.202  10.456  14.111  0.00  0.00     0.051 C 
ENDROOT
BRANCH   1   9
HETATM    9  O   UNK N   1      34.659  13.138  14.825  0.00  0.00    -0.348 OA
BRANCH   9  10
HETATM   10  C   UNK N   1      35.700  13.784  14.192  0.00  0.00     0.199 C 
BRANCH  10  11
HETATM   11  C   UNK N   1      35.810  13.367  12.739  0.00  0.00     0.094 C 
HETATM   12  C   UNK N   1      34.963  14.277  11.871  0.00  0.00     0.034 C 
BRANCH  11  13
HETATM   13  N   UNK N   1      37.197  13.477  12.326  0.00  0.00    -0.424 N 
HETATM   14  H   UNK N   1      37.648  12.739  11.785  0.00  0.00     0.150 HD
HETATM   15  H   UNK N   1      37.731  14.308  12.581  0.00  0.00     0.150 HD
ENDBRANCH  11  13
ENDBRANCH  10  11
ENDBRANCH   9  10
ENDBRANCH   1   9
TORSDOF 4
ENDMDL
MODEL 3
REMARK VINA RESULT:      -5.0      9.677     11.170
REMARK  4 active torsions:
REMARK  status: ('A' for Active; 'I' for Inactive)
REMARK    1  A    between atoms: O_1  and  C_4 
REMARK    2  A    between atoms: O_1  and  C_5 
REMARK    3  A    between atoms: N_2  and  C_3 
REMARK    4  A    between atoms: C_3  and  C_4 
ROOT
HETATM    1  C   UNK N   1      31.709  17.306   7.172  0.00  0.00     0.080 A 
HETATM    2  C   UNK N   1      33.093  17.621   7.024  0.00  0.00    -0.028 A 
HETATM    3  C   UNK N   1      30.978  16.929   6.026  0.00  0.00    -0.028 A 
HETATM    4  C   UNK N   1      33.695  17.530   5.766  0.00  0.00     0.009 A 
HETATM    5  C   UNK N   1      31.604  16.841   4.781  0.00  0.00     0.009 A 
HETATM    6  C   UNK N   1      32.959  17.134   4.651  0.00  0.00     0.001 A 
HETATM    7  C   UNK N   1      33.953  18.073   8.157  0.00  0.00     0.051 C 
HETATM    8  C   UNK N   1      29.528  16.597   6.123  0.00  0.00     0.051 C 
ENDROOT
BRANCH   1   9
HETATM    9  O   UNK N   1      31.052  17.340   8.367  0.00  0.00    -0.348 OA
BRANCH   9  10
HETATM   10  C   UNK N   1      30.531  18.475   8.952  0.00  0.00     0.199 C 
BRANCH  10  11
HETATM   11  C   UNK N   1      29.396  18.141   9.899  0.00  0.00     0.094 C 
HETATM   12  C   UNK N   1      28.094  18.032   9.131  0.00  0.00     0.034 C 
BRANCH  11  13
HETATM   13  N   UNK N   1      29.679  16.867  10.534  0.00  0.00    -0.424 N 
HETATM   14  H   UNK N   1      28.948  16.165  10.658  0.00  0.00     0.150 HD
HETATM   15  H   UNK N   1      30.624  16.669  10.862  0.00  0.00     0.150 HD
ENDBRANCH  11  13
ENDBRANCH  10  11
ENDBRANCH   9  10
ENDBRANCH   1   9
TORSDOF 4
ENDMDL
MODEL 4
REMARK VINA RESULT:      -5.0      1.692      2.725
REMARK  4 active torsions:
REMARK  status: ('A' for Active; 'I' for Inactive)
REMARK    1  A    between atoms: O_1  and  C_4 
REMARK    2  A    between atoms: O_1  and  C_5 
REMARK    3  A    between atoms: N_2  and  C_3 
REMARK    4  A    between atoms: C_3  and  C_4 
ROOT
HETATM    1  C   UNK N   1      36.270  13.882  15.675  0.00  0.00     0.080 A 
HETATM    2  C   UNK N   1      35.385  12.897  16.208  0.00  0.00    -0.028 A 
HETATM    3  C   UNK N   1      36.655  14.958  16.503  0.00  0.00    -0.028 A 
HETATM    4  C   UNK N   1      34.942  13.002  17.530  0.00  0.00     0.009 A 
HETATM    5  C   UNK N   1      36.201  15.038  17.821  0.00  0.00     0.009 A 
HETATM    6  C   UNK N   1      35.353  14.061  18.336  0.00  0.00     0.001 A 
HETATM    7  C   UNK N   1      34.878  11.740  15.413  0.00  0.00     0.051 C 
HETATM    8  C   UNK N   1      37.569  16.020  15.994  0.00  0.00     0.051 C 
ENDROOT
BRANCH   1   9
HETATM    9  O   UNK N   1      36.772  13.838  14.408  0.00  0.00    -0.348 OA
BRANCH   9  10
HETATM   10  C   UNK N   1      36.195  14.433  13.307  0.00  0.00     0.199 C 
BRANCH  10  11
HETATM   11  C   UNK N   1      36.096  13.469  12.142  0.00  0.00     0.094 C 
HETATM   12  C   UNK N   1      37.015  12.284  12.369  0.00  0.00     0.034 C 
BRANCH  11  13
HETATM   13  N   UNK N   1      34.728  12.993  12.045  0.00  0.00    -0.424 N 
HETATM   14  H   UNK N   1      34.175  12.803  12.881  0.00  0.00     0.150 HD
HETATM   15  H   UNK N   1      34.313  12.847  11.125  0.00  0.00     0.150 HD
ENDBRANCH  11  13
ENDBRANCH  10  11
ENDBRANCH   9  10
ENDBRANCH   1   9
TORSDOF 4
ENDMDL
MODEL 5
REMARK VINA RESULT:      -5.0      9.924     11.853
REMARK  4 active torsions:
REMARK  status: ('A' for Active; 'I' for Inactive)
REMARK    1  A    between atoms: O_1  and  C_4 
REMARK    2  A    between atoms: O_1  and  C_5 
REMARK    3  A    between atoms: N_2  and  C_3 
REMARK    4  A    between atoms: C_3  and  C_4 
ROOT
HETATM    1  C   UNK N   1      31.078  17.126   6.104  0.00  0.00     0.080 A 
HETATM    2  C   UNK N   1      30.811  17.099   4.701  0.00  0.00    -0.028 A 
HETATM    3  C   UNK N   1      32.410  17.301   6.532  0.00  0.00    -0.028 A 
HETATM    4  C   UNK N   1      31.859  17.267   3.792  0.00  0.00     0.009 A 
HETATM    5  C   UNK N   1      33.439  17.472   5.603  0.00  0.00     0.009 A 
HETATM    6  C   UNK N   1      33.165  17.461   4.237  0.00  0.00     0.001 A 
HETATM    7  C   UNK N   1      29.449  16.878   4.134  0.00  0.00     0.051 C 
HETATM    8  C   UNK N   1      32.746  17.329   7.984  0.00  0.00     0.051 C 
ENDROOT
BRANCH   1   9
HETATM    9  O   UNK N   1      30.110  17.000   7.057  0.00  0.00    -0.348 OA
BRANCH   9  10
HETATM   10  C   UNK N   1      29.210  17.984   7.405  0.00  0.00     0.199 C 
BRANCH  10  11
HETATM   11  C   UNK N   1      28.833  17.898   8.871  0.00  0.00     0.094 C 
HETATM   12  C   UNK N   1      29.827  18.676   9.710  0.00  0.00     0.034 C 
BRANCH  11  13
HETATM   13  N   UNK N   1      27.512  18.475   9.047  0.00  0.00    -0.424 N 
HETATM   14  H   UNK N   1      27.316  19.120   9.813  0.00  0.00     0.150 HD
HETATM   15  H   UNK N   1      26.768  18.230   8.395  0.00  0.00     0.150 HD
ENDBRANCH  11  13
ENDBRANCH  10  11
ENDBRANCH   9  10
ENDBRANCH   1   9
TORSDOF 4
ENDMDL
MODEL 6
REMARK VINA RESULT:      -4.9      1.584      3.360
REMARK  4 active torsions:
REMARK  status: ('A' for Active; 'I' for Inactive)
REMARK    1  A    between atoms: O_1  and  C_4 
REMARK    2  A    between atoms: O_1  and  C_5 
REMARK    3  A    between atoms: N_2  and  C_3 
REMARK    4  A    between atoms: C_3  and  C_4 
ROOT
HETATM    1  C   UNK N   1      36.358  13.861  15.690  0.00  0.00     0.080 A 
HETATM    2  C   UNK N   1      36.678  14.971  16.528  0.00  0.00    -0.028 A 
HETATM    3  C   UNK N   1      35.524  12.847  16.207  0.00  0.00    -0.028 A 
HETATM    4  C   UNK N   1      36.148  15.043  17.820  0.00  0.00     0.009 A 
HETATM    5  C   UNK N   1      35.004  12.944  17.499  0.00  0.00     0.009 A 
HETATM    6  C   UNK N   1      35.309  14.041  18.302  0.00  0.00     0.001 A 
HETATM    7  C   UNK N   1      37.584  16.080  16.104  0.00  0.00     0.051 C 
HETATM    8  C   UNK N   1      35.165  11.661  15.378  0.00  0.00     0.051 C 
ENDROOT
BRANCH   1   9
HETATM    9  O   UNK N   1      36.808  13.729  14.410  0.00  0.00    -0.348 OA
BRANCH   9  10
HETATM   10  C   UNK N   1      36.237  14.324  13.305  0.00  0.00     0.199 C 
BRANCH  10  11
HETATM   11  C   UNK N   1      36.474  13.508  12.050  0.00  0.00     0.094 C 
HETATM   12  C   UNK N   1      35.151  13.027  11.486  0.00  0.00     0.034 C 
BRANCH  11  13
HETATM   13  N   UNK N   1      37.130  14.347  11.065  0.00  0.00    -0.424 N 
HETATM   14  H   UNK N   1      37.167  14.077  10.081  0.00  0.00     0.150 HD
HETATM   15  H   UNK N   1      37.563  15.222  11.360  0.00  0.00     0.150 HD
ENDBRANCH  11  13
ENDBRANCH  10  11
ENDBRANCH   9  10
ENDBRANCH   1   9
TORSDOF 4
ENDMDL
MODEL 7
REMARK VINA RESULT:      -4.9      8.485     10.431
REMARK  4 active torsions:
REMARK  status: ('A' for Active; 'I' for Inactive)
REMARK    1  A    between atoms: O_1  and  C_4 
REMARK    2  A    between atoms: O_1  and  C_5 
REMARK    3  A    between atoms: N_2  and  C_3 
REMARK    4  A    between atoms: C_3  and  C_4 
ROOT
HETATM    1  C   UNK N   1      30.710  17.607   7.723  0.00  0.00     0.080 A 
HETATM    2  C   UNK N   1      30.518  17.059   6.418  0.00  0.00    -0.028 A 
HETATM    3  C   UNK N   1      29.576  18.024   8.450  0.00  0.00    -0.028 A 
HETATM    4  C   UNK N   1      29.226  16.928   5.903  0.00  0.00     0.009 A 
HETATM    5  C   UNK N   1      28.294  17.878   7.914  0.00  0.00     0.009 A 
HETATM    6  C   UNK N   1      28.118  17.326   6.648  0.00  0.00     0.001 A 
HETATM    7  C   UNK N   1      31.646  16.625   5.542  0.00  0.00     0.051 C 
HETATM    8  C   UNK N   1      29.719  18.611   9.813  0.00  0.00     0.051 C 
ENDROOT
BRANCH   1   9
HETATM    9  O   UNK N   1      31.933  17.742   8.311  0.00  0.00    -0.348 OA
BRANCH   9  10
HETATM   10  C   UNK N   1      32.691  16.704   8.809  0.00  0.00     0.199 C 
BRANCH  10  11
HETATM   11  C   UNK N   1      34.169  17.035   8.787  0.00  0.00     0.094 C 
HETATM   12  C   UNK N   1      34.391  18.380   8.124  0.00  0.00     0.034 C 
BRANCH  11  13
HETATM   13  N   UNK N   1      34.654  17.096  10.153  0.00  0.00    -0.424 N 
HETATM   14  H   UNK N   1      35.375  17.764  10.429  0.00  0.00     0.150 HD
HETATM   15  H   UNK N   1      34.269  16.460  10.851  0.00  0.00     0.150 HD
ENDBRANCH  11  13
ENDBRANCH  10  11
ENDBRANCH   9  10
ENDBRANCH   1   9
TORSDOF 4
ENDMDL
MODEL 8
REMARK VINA RESULT:      -4.9     16.838     18.850
REMARK  4 active torsions:
REMARK  status: ('A' for Active; 'I' for Inactive)
REMARK    1  A    between atoms: O_1  and  C_4 
REMARK    2  A    between atoms: O_1  and  C_5 
REMARK    3  A    between atoms: N_2  and  C_3 
REMARK    4  A    between atoms: C_3  and  C_4 
ROOT
HETATM    1  C   UNK N   1      42.810  22.808   2.545  0.00  0.00     0.080 A 
HETATM    2  C   UNK N   1      43.229  21.668   3.297  0.00  0.00    -0.028 A 
HETATM    3  C   UNK N   1      41.528  22.793   1.959  0.00  0.00    -0.028 A 
HETATM    4  C   UNK N   1      42.362  20.583   3.453  0.00  0.00     0.009 A 
HETATM    5  C   UNK N   1      40.679  21.698   2.134  0.00  0.00     0.009 A 
HETATM    6  C   UNK N   1      41.091  20.599   2.884  0.00  0.00     0.001 A 
HETATM    7  C   UNK N   1      44.578  21.555   3.925  0.00  0.00     0.051 C 
HETATM    8  C   UNK N   1      41.044  23.952   1.157  0.00  0.00     0.051 C 
ENDROOT
BRANCH   1   9
HETATM    9  O   UNK N   1      43.582  23.919   2.369  0.00  0.00    -0.348 OA
BRANCH   9  10
HETATM   10  C   UNK N   1      44.631  24.021   1.481  0.00  0.00     0.199 C 
BRANCH  10  11
HETATM   11  C   UNK N   1      45.783  24.811   2.071  0.00  0.00     0.094 C 
HETATM   12  C   UNK N   1      46.755  25.207   0.978  0.00  0.00     0.034 C 
BRANCH  11  13
HETATM   13  N   UNK N   1      45.255  26.011   2.693  0.00  0.00    -0.424 N 
HETATM   14  H   UNK N   1      44.448  25.972   3.316  0.00  0.00     0.150 HD
HETATM   15  H   UNK N   1      45.698  26.910   2.503  0.00  0.00     0.150 HD
ENDBRANCH  11  13
ENDBRANCH  10  11
ENDBRANCH   9  10
ENDBRANCH   1   9
TORSDOF 4
ENDMDL
MODEL 9
REMARK VINA RESULT:      -4.7     16.816     18.840
REMARK  4 active torsions:
REMARK  status: ('A' for Active; 'I' for Inactive)
REMARK    1  A    between atoms: O_1  and  C_4 
REMARK    2  A    between atoms: O_1  and  C_5 
REMARK    3  A    between atoms: N_2  and  C_3 
REMARK    4  A    between atoms: C_3  and  C_4 
ROOT
HETATM    1  C   UNK N   1      42.806  22.807   2.512  0.00  0.00     0.080 A 
HETATM    2  C   UNK N   1      41.501  22.812   1.935  0.00  0.00    -0.028 A 
HETATM    3  C   UNK N   1      43.192  21.697   3.294  0.00  0.00    -0.028 A 
HETATM    4  C   UNK N   1      40.649  21.722   2.135  0.00  0.00     0.009 A 
HETATM    5  C   UNK N   1      42.324  20.618   3.474  0.00  0.00     0.009 A 
HETATM    6  C   UNK N   1      41.059  20.627   2.892  0.00  0.00     0.001 A 
HETATM    7  C   UNK N   1      40.970  23.949   1.127  0.00  0.00     0.051 C 
HETATM    8  C   UNK N   1      44.541  21.644   3.927  0.00  0.00     0.051 C 
ENDROOT
BRANCH   1   9
HETATM    9  O   UNK N   1      43.709  23.814   2.343  0.00  0.00    -0.348 OA
BRANCH   9  10
HETATM   10  C   UNK N   1      44.505  23.985   1.230  0.00  0.00     0.199 C 
BRANCH  10  11
HETATM   11  C   UNK N   1      45.415  25.189   1.377  0.00  0.00     0.094 C 
HETATM   12  C   UNK N   1      45.001  26.275   0.404  0.00  0.00     0.034 C 
BRANCH  11  13
HETATM   13  N   UNK N   1      45.299  25.698   2.732  0.00  0.00    -0.424 N 
HETATM   14  H   UNK N   1      44.397  25.728   3.209  0.00  0.00     0.150 HD
HETATM   15  H   UNK N   1      46.133  26.031   3.215  0.00  0.00     0.150 HD
ENDBRANCH  11  13
ENDBRANCH  10  11
ENDBRANCH   9  10
ENDBRANCH   1   9
TORSDOF 4
ENDMDL
