MODEL 1
REMARK VINA RESULT:      -6.5      0.000      0.000
REMARK  3 active torsions:
REMARK  status: ('A' for Active; 'I' for Inactive)
REMARK    1  A    between atoms: N_5  and  C_9 
REMARK    2  A    between atoms: N_6  and  C_10 
REMARK    3  A    between atoms: C_9  and  C_10 
ROOT
HETATM    1  C   UNK N   1      31.927  17.099   5.877  0.00  0.00     0.248 C 
HETATM    2  C   UNK N   1      32.587  15.932   5.142  0.00  0.00     0.045 C 
ENDROOT
BRANCH   1   3
HETATM    3  N   UNK N   1      32.545  17.290   7.197  0.00  0.00     0.112 N 
HETATM    4  C   UNK N   1      32.849  15.985   7.804  0.00  0.00     0.376 C 
HETATM    5  C   UNK N   1      33.534  16.182   9.127  0.00  0.00     0.252 C 
HETATM    6  O   UNK N   1      33.382  15.364  10.019  0.00  0.00    -0.271 OA
HETATM    7  N   UNK N   1      34.332  17.259   9.324  0.00  0.00    -0.295 N 
HETATM    8  C   UNK N   1      34.506  18.183   8.345  0.00  0.00     0.252 C 
HETATM    9  H   UNK N   1      34.792  17.374  10.187  0.00  0.00     0.171 HD
HETATM   10  O   UNK N   1      35.239  19.139   8.534  0.00  0.00    -0.271 OA
HETATM   11  C   UNK N   1      33.807  18.023   7.023  0.00  0.00     0.376 C 
ENDBRANCH   1   3
BRANCH   1  12
HETATM   12  C   UNK N   1      30.425  16.815   6.040  0.00  0.00     0.308 C 
BRANCH  12  13
HETATM   13  N   UNK N   1      29.768  17.758   6.936  0.00  0.00     0.108 N 
HETATM   14  C   UNK N   1      28.705  18.420   6.182  0.00  0.00     0.375 C 
HETATM   15  C   UNK N   1      27.928  19.311   7.093  0.00  0.00     0.252 C 
HETATM   16  O   UNK N   1      27.526  20.394   6.700  0.00  0.00    -0.271 OA
HETATM   17  N   UNK N   1      27.639  18.892   8.347  0.00  0.00    -0.295 N 
HETATM   18  C   UNK N   1      28.159  17.732   8.822  0.00  0.00     0.252 C 
HETATM   19  H   UNK N   1      27.045  19.431   8.918  0.00  0.00     0.171 HD
HETATM   20  O   UNK N   1      27.802  17.312   9.912  0.00  0.00    -0.271 OA
HETATM   21  C   UNK N   1      29.177  16.953   8.017  0.00  0.00     0.375 C 
ENDBRANCH  12  13
ENDBRANCH   1  12
TORSDOF 3
ENDMDL
MODEL 2
REMARK VINA RESULT:      -6.3      1.417      2.730
REMARK  3 active torsions:
REMARK  status: ('A' for Active; 'I' for Inactive)
REMARK    1  A    between atoms: N_5  and  C_9 
REMARK    2  A    between atoms: N_6  and  C_10 
REMARK    3  A    between atoms: C_9  and  C_10 
ROOT
HETATM    1  C   UNK N   1      32.332  16.150   6.390  0.00  0.00     0.248 C 
HETATM    2  C   UNK N   1      31.660  14.828   6.757  0.00  0.00     0.045 C 
ENDROOT
BRANCH   1   3
HETATM    3  N   UNK N   1      33.424  16.450   7.326  0.00  0.00     0.112 N 
HETATM    4  C   UNK N   1      33.551  17.905   7.501  0.00  0.00     0.376 C 
HETATM    5  C   UNK N   1      34.628  18.209   8.504  0.00  0.00     0.252 C 
HETATM    6  O   UNK N   1      35.277  19.238   8.408  0.00  0.00    -0.271 OA
HETATM    7  N   UNK N   1      34.869  17.348   9.523  0.00  0.00    -0.295 N 
HETATM    8  C   UNK N   1      34.162  16.197   9.640  0.00  0.00     0.252 C 
HETATM    9  H   UNK N   1      35.564  17.562  10.186  0.00  0.00     0.171 HD
HETATM   10  O   UNK N   1      34.382  15.440  10.571  0.00  0.00    -0.271 OA
HETATM   11  C   UNK N   1      33.100  15.856   8.631  0.00  0.00     0.376 C 
ENDBRANCH   1   3
BRANCH   1  12
HETATM   12  C   UNK N   1      31.289  17.279   6.426  0.00  0.00     0.308 C 
BRANCH  12  13
HETATM   13  N   UNK N   1      29.981  16.822   6.879  0.00  0.00     0.108 N 
HETATM   14  C   UNK N   1      29.578  17.669   8.001  0.00  0.00     0.375 C 
HETATM   15  C   UNK N   1      28.192  17.313   8.421  0.00  0.00     0.252 C 
HETATM   16  O   UNK N   1      27.890  17.305   9.604  0.00  0.00    -0.271 OA
HETATM   17  N   UNK N   1      27.260  17.036   7.480  0.00  0.00    -0.295 N 
HETATM   18  C   UNK N   1      27.608  16.952   6.171  0.00  0.00     0.252 C 
HETATM   19  H   UNK N   1      26.323  16.896   7.746  0.00  0.00     0.171 HD
HETATM   20  O   UNK N   1      26.740  16.812   5.323  0.00  0.00    -0.271 OA
HETATM   21  C   UNK N   1      29.060  17.030   5.750  0.00  0.00     0.375 C 
ENDBRANCH  12  13
ENDBRANCH   1  12
TORSDOF 3
ENDMDL
MODEL 3
REMARK VINA RESULT:      -6.2      0.571      5.894
REMARK  3 active torsions:
REMARK  status: ('A' for Active; 'I' for Inactive)
REMARK    1  A    between atoms: N_5  and  C_9 
REMARK    2  A    between atoms: N_6  and  C_10 
REMARK    3  A    between atoms: C_9  and  C_10 
ROOT
HETATM    1  C   UNK N   1      30.515  16.526   5.797  0.00  0.00     0.248 C 
HETATM    2  C   UNK N   1      30.068  16.495   4.336  0.00  0.00     0.045 C 
ENDROOT
BRANCH   1   3
HETATM    3  N   UNK N   1      29.754  17.535   6.547  0.00  0.00     0.112 N 
HETATM    4  C   UNK N   1      28.789  18.200   5.658  0.00  0.00     0.376 C 
HETATM    5  C   UNK N   1      27.970  19.190   6.438  0.00  0.00     0.252 C 
HETATM    6  O   UNK N   1      27.547  20.195   5.892  0.00  0.00    -0.271 OA
HETATM    7  N   UNK N   1      27.689  18.958   7.743  0.00  0.00    -0.295 N 
HETATM    8  C   UNK N   1      28.158  17.849   8.368  0.00  0.00     0.252 C 
HETATM    9  H   UNK N   1      27.138  19.602   8.245  0.00  0.00     0.171 HD
HETATM   10  O   UNK N   1      27.885  17.649   9.540  0.00  0.00    -0.271 OA
HETATM   11  C   UNK N   1      29.006  16.859   7.616  0.00  0.00     0.376 C 
ENDBRANCH   1   3
BRANCH   1  12
HETATM   12  C   UNK N   1      32.016  16.849   5.864  0.00  0.00     0.308 C 
BRANCH  12  13
HETATM   13  N   UNK N   1      32.471  17.130   7.220  0.00  0.00     0.108 N 
HETATM   14  C   UNK N   1      32.917  15.869   7.809  0.00  0.00     0.375 C 
HETATM   15  C   UNK N   1      33.502  16.128   9.158  0.00  0.00     0.252 C 
HETATM   16  O   UNK N   1      33.308  15.345  10.074  0.00  0.00    -0.271 OA
HETATM   17  N   UNK N   1      34.282  17.217   9.347  0.00  0.00    -0.295 N 
HETATM   18  C   UNK N   1      34.427  18.139   8.362  0.00  0.00     0.252 C 
HETATM   19  H   UNK N   1      34.749  17.342  10.205  0.00  0.00     0.171 HD
HETATM   20  O   UNK N   1      35.219  19.058   8.507  0.00  0.00    -0.271 OA
HETATM   21  C   UNK N   1      33.618  18.043   7.086  0.00  0.00     0.375 C 
ENDBRANCH  12  13
ENDBRANCH   1  12
TORSDOF 3
ENDMDL
MODEL 4
REMARK VINA RESULT:      -6.0      3.562      5.802
REMARK  3 active torsions:
REMARK  status: ('A' for Active; 'I' for Inactive)
REMARK    1  A    between atoms: N_5  and  C_9 
REMARK    2  A    between atoms: N_6  and  C_10 
REMARK    3  A    between atoms: C_9  and  C_10 
ROOT
HETATM    1  C   UNK N   1      34.338  13.438   9.224  0.00  0.00     0.248 C 
HETATM    2  C   UNK N   1      33.334  12.296   9.070  0.00  0.00     0.045 C 
ENDROOT
BRANCH   1   3
HETATM    3  N   UNK N   1      35.256  13.168  10.340  0.00  0.00     0.112 N 
HETATM    4  C   UNK N   1      36.633  13.513   9.953  0.00  0.00     0.376 C 
HETATM    5  C   UNK N   1      37.562  13.294  11.113  0.00  0.00     0.252 C 
HETATM    6  O   UNK N   1      38.722  12.971  10.913  0.00  0.00    -0.271 OA
HETATM    7  N   UNK N   1      37.116  13.468  12.382  0.00  0.00    -0.295 N 
HETATM    8  C   UNK N   1      35.828  13.818  12.623  0.00  0.00     0.252 C 
HETATM    9  H   UNK N   1      37.735  13.339  13.137  0.00  0.00     0.171 HD
HETATM   10  O   UNK N   1      35.448  13.985  13.770  0.00  0.00    -0.271 OA
HETATM   11  C   UNK N   1      34.871  14.014  11.479  0.00  0.00     0.376 C 
ENDBRANCH   1   3
BRANCH   1  12
HETATM   12  C   UNK N   1      33.581  14.752   9.477  0.00  0.00     0.308 C 
BRANCH  12  13
HETATM   13  N   UNK N   1      33.815  15.745   8.437  0.00  0.00     0.108 N 
HETATM   14  C   UNK N   1      32.512  16.174   7.931  0.00  0.00     0.375 C 
HETATM   15  C   UNK N   1      32.699  17.278   6.945  0.00  0.00     0.252 C 
HETATM   16  O   UNK N   1      31.999  17.336   5.947  0.00  0.00    -0.271 OA
HETATM   17  N   UNK N   1      33.623  18.236   7.185  0.00  0.00    -0.295 N 
HETATM   18  C   UNK N   1      34.466  18.129   8.243  0.00  0.00     0.252 C 
HETATM   19  H   UNK N   1      33.684  19.017   6.589  0.00  0.00     0.171 HD
HETATM   20  O   UNK N   1      35.220  19.053   8.511  0.00  0.00    -0.271 OA
HETATM   21  C   UNK N   1      34.485  16.878   9.095  0.00  0.00     0.375 C 
ENDBRANCH  12  13
ENDBRANCH   1  12
TORSDOF 3
ENDMDL
MODEL 5
REMARK VINA RESULT:      -6.0      3.858      7.519
REMARK  3 active torsions:
REMARK  status: ('A' for Active; 'I' for Inactive)
REMARK    1  A    between atoms: N_5  and  C_9 
REMARK    2  A    between atoms: N_6  and  C_10 
REMARK    3  A    between atoms: C_9  and  C_10 
ROOT
HETATM    1  C   UNK N   1      33.955  14.596   9.656  0.00  0.00     0.248 C 
HETATM    2  C   UNK N   1      34.167  13.810   8.362  0.00  0.00     0.045 C 
ENDROOT
BRANCH   1   3
HETATM    3  N   UNK N   1      33.593  15.989   9.359  0.00  0.00     0.112 N 
HETATM    4  C   UNK N   1      34.739  16.688   8.758  0.00  0.00     0.376 C 
HETATM    5  C   UNK N   1      34.351  18.096   8.400  0.00  0.00     0.252 C 
HETATM    6  O   UNK N   1      35.186  18.984   8.427  0.00  0.00    -0.271 OA
HETATM    7  N   UNK N   1      33.077  18.374   8.031  0.00  0.00    -0.295 N 
HETATM    8  C   UNK N   1      32.133  17.400   8.003  0.00  0.00     0.252 C 
HETATM    9  H   UNK N   1      32.832  19.295   7.781  0.00  0.00     0.171 HD
HETATM   10  O   UNK N   1      30.994  17.666   7.655  0.00  0.00    -0.271 OA
HETATM   11  C   UNK N   1      32.491  15.990   8.387  0.00  0.00     0.376 C 
ENDBRANCH   1   3
BRANCH   1  12
HETATM   12  C   UNK N   1      35.245  14.559  10.492  0.00  0.00     0.308 C 
BRANCH  12  13
HETATM   13  N   UNK N   1      35.001  14.216  11.887  0.00  0.00     0.108 N 
HETATM   14  C   UNK N   1      35.007  12.758  11.994  0.00  0.00     0.375 C 
HETATM   15  C   UNK N   1      34.878  12.362  13.427  0.00  0.00     0.252 C 
HETATM   16  O   UNK N   1      34.204  11.394  13.740  0.00  0.00    -0.271 OA
HETATM   17  N   UNK N   1      35.546  13.061  14.373  0.00  0.00    -0.295 N 
HETATM   18  C   UNK N   1      36.222  14.191  14.045  0.00  0.00     0.252 C 
HETATM   19  H   UNK N   1      35.543  12.747  15.306  0.00  0.00     0.171 HD
HETATM   20  O   UNK N   1      36.909  14.750  14.887  0.00  0.00    -0.271 OA
HETATM   21  C   UNK N   1      36.132  14.769  12.649  0.00  0.00     0.375 C 
ENDBRANCH  12  13
ENDBRANCH   1  12
TORSDOF 3
ENDMDL
MODEL 6
REMARK VINA RESULT:      -5.9     12.949     15.506
REMARK  3 active torsions:
REMARK  status: ('A' for Active; 'I' for Inactive)
REMARK    1  A    between atoms: N_5  and  C_9 
REMARK    2  A    between atoms: N_6  and  C_10 
REMARK    3  A    between atoms: C_9  and  C_10 
ROOT
HETATM    1  C   UNK N   1      27.507  24.249  -4.922  0.00  0.00     0.248 C 
HETATM    2  C   UNK N   1      26.288  23.684  -5.650  0.00  0.00     0.045 C 
ENDROOT
BRANCH   1   3
HETATM    3  N   UNK N   1      27.403  25.710  -4.799  0.00  0.00     0.112 N 
HETATM    4  C   UNK N   1      27.263  26.317  -6.131  0.00  0.00     0.376 C 
HETATM    5  C   UNK N   1      27.096  27.805  -6.001  0.00  0.00     0.252 C 
HETATM    6  O   UNK N   1      27.509  28.544  -6.879  0.00  0.00    -0.271 OA
HETATM    7  N   UNK N   1      26.474  28.326  -4.915  0.00  0.00    -0.295 N 
HETATM    8  C   UNK N   1      26.017  27.520  -3.924  0.00  0.00     0.252 C 
HETATM    9  H   UNK N   1      26.353  29.300  -4.843  0.00  0.00     0.171 HD
HETATM   10  O   UNK N   1      25.447  28.004  -2.960  0.00  0.00    -0.271 OA
HETATM   11  C   UNK N   1      26.199  26.029  -4.018  0.00  0.00     0.376 C 
ENDBRANCH   1   3
BRANCH   1  12
HETATM   12  C   UNK N   1      28.780  23.881  -5.701  0.00  0.00     0.308 C 
BRANCH  12  13
HETATM   13  N   UNK N   1      29.823  23.328  -4.845  0.00  0.00     0.108 N 
HETATM   14  C   UNK N   1      29.307  23.301  -3.477  0.00  0.00     0.375 C 
HETATM   15  C   UNK N   1      30.298  22.632  -2.584  0.00  0.00     0.252 C 
HETATM   16  O   UNK N   1      30.485  23.048  -1.452  0.00  0.00    -0.271 OA
HETATM   17  N   UNK N   1      30.960  21.538  -3.025  0.00  0.00    -0.295 N 
HETATM   18  C   UNK N   1      30.828  21.125  -4.311  0.00  0.00     0.252 C 
HETATM   19  H   UNK N   1      31.541  21.037  -2.408  0.00  0.00     0.171 HD
HETATM   20  O   UNK N   1      31.343  20.076  -4.664  0.00  0.00    -0.271 OA
HETATM   21  C   UNK N   1      30.050  21.951  -5.313  0.00  0.00     0.375 C 
ENDBRANCH  12  13
ENDBRANCH   1  12
TORSDOF 3
ENDMDL
MODEL 7
REMARK VINA RESULT:      -5.9      1.407      2.295
REMARK  3 active torsions:
REMARK  status: ('A' for Active; 'I' for Inactive)
REMARK    1  A    between atoms: N_5  and  C_9 
REMARK    2  A    between atoms: N_6  and  C_10 
REMARK    3  A    between atoms: C_9  and  C_10 
ROOT
HETATM    1  C   UNK N   1      32.166  17.200   7.262  0.00  0.00     0.248 C 
HETATM    2  C   UNK N   1      33.157  17.561   6.156  0.00  0.00     0.045 C 
ENDROOT
BRANCH   1   3
HETATM    3  N   UNK N   1      32.871  16.632   8.419  0.00  0.00     0.112 N 
HETATM    4  C   UNK N   1      33.204  15.222   8.162  0.00  0.00     0.376 C 
HETATM    5  C   UNK N   1      33.977  14.658   9.321  0.00  0.00     0.252 C 
HETATM    6  O   UNK N   1      33.878  13.475   9.603  0.00  0.00    -0.271 OA
HETATM    7  N   UNK N   1      34.795  15.461  10.045  0.00  0.00    -0.295 N 
HETATM    8  C   UNK N   1      34.911  16.780   9.751  0.00  0.00     0.252 C 
HETATM    9  H   UNK N   1      35.312  15.082  10.793  0.00  0.00     0.171 HD
HETATM   10  O   UNK N   1      35.663  17.485  10.404  0.00  0.00    -0.271 OA
HETATM   11  C   UNK N   1      34.124  17.373   8.615  0.00  0.00     0.376 C 
ENDBRANCH   1   3
BRANCH   1  12
HETATM   12  C   UNK N   1      31.147  16.183   6.720  0.00  0.00     0.308 C 
BRANCH  12  13
HETATM   13  N   UNK N   1      29.768  16.615   6.907  0.00  0.00     0.108 N 
HETATM   14  C   UNK N   1      29.678  17.261   8.215  0.00  0.00     0.375 C 
HETATM   15  C   UNK N   1      28.308  17.825   8.399  0.00  0.00     0.252 C 
HETATM   16  O   UNK N   1      27.762  17.771   9.489  0.00  0.00    -0.271 OA
HETATM   17  N   UNK N   1      27.692  18.431   7.358  0.00  0.00    -0.295 N 
HETATM   18  C   UNK N   1      28.252  18.414   6.122  0.00  0.00     0.252 C 
HETATM   19  H   UNK N   1      26.832  18.889   7.498  0.00  0.00     0.171 HD
HETATM   20  O   UNK N   1      27.740  19.057   5.218  0.00  0.00    -0.271 OA
HETATM   21  C   UNK N   1      29.502  17.605   5.850  0.00  0.00     0.375 C 
ENDBRANCH  12  13
ENDBRANCH   1  12
TORSDOF 3
ENDMDL
MODEL 8
REMARK VINA RESULT:      -5.9     13.002     15.479
REMARK  3 active torsions:
REMARK  status: ('A' for Active; 'I' for Inactive)
REMARK    1  A    between atoms: N_5  and  C_9 
REMARK    2  A    between atoms: N_6  and  C_10 
REMARK    3  A    between atoms: C_9  and  C_10 
ROOT
HETATM    1  C   UNK N   1      26.943  24.102  -5.139  0.00  0.00     0.248 C 
HETATM    2  C   UNK N   1      26.116  23.282  -6.129  0.00  0.00     0.045 C 
ENDROOT
BRANCH   1   3
HETATM    3  N   UNK N   1      26.506  25.505  -5.141  0.00  0.00     0.112 N 
HETATM    4  C   UNK N   1      26.458  26.019  -3.764  0.00  0.00     0.376 C 
HETATM    5  C   UNK N   1      26.069  27.471  -3.771  0.00  0.00     0.252 C 
HETATM    6  O   UNK N   1      25.445  27.939  -2.834  0.00  0.00    -0.271 OA
HETATM    7  N   UNK N   1      26.424  28.263  -4.812  0.00  0.00    -0.295 N 
HETATM    8  C   UNK N   1      27.112  27.757  -5.867  0.00  0.00     0.252 C 
HETATM    9  H   UNK N   1      26.181  29.217  -4.804  0.00  0.00     0.171 HD
HETATM   10  O   UNK N   1      27.435  28.487  -6.789  0.00  0.00    -0.271 OA
HETATM   11  C   UNK N   1      27.486  26.300  -5.896  0.00  0.00     0.376 C 
ENDBRANCH   1   3
BRANCH   1  12
HETATM   12  C   UNK N   1      28.429  24.018  -5.524  0.00  0.00     0.308 C 
BRANCH  12  13
HETATM   13  N   UNK N   1      29.160  23.035  -4.734  0.00  0.00     0.108 N 
HETATM   14  C   UNK N   1      30.486  22.884  -5.330  0.00  0.00     0.375 C 
HETATM   15  C   UNK N   1      31.313  21.974  -4.484  0.00  0.00     0.252 C 
HETATM   16  O   UNK N   1      32.074  21.174  -5.003  0.00  0.00    -0.271 OA
HETATM   17  N   UNK N   1      31.240  22.069  -3.137  0.00  0.00    -0.295 N 
HETATM   18  C   UNK N   1      30.330  22.890  -2.553  0.00  0.00     0.252 C 
HETATM   19  H   UNK N   1      31.852  21.541  -2.575  0.00  0.00     0.171 HD
HETATM   20  O   UNK N   1      30.349  23.048  -1.342  0.00  0.00    -0.271 OA
HETATM   21  C   UNK N   1      29.290  23.609  -3.385  0.00  0.00     0.375 C 
ENDBRANCH  12  13
ENDBRANCH   1  12
TORSDOF 3
ENDMDL
MODEL 9
REMARK VINA RESULT:      -5.8      3.923      7.715
REMARK  3 active torsions:
REMARK  status: ('A' for Active; 'I' for Inactive)
REMARK    1  A    between atoms: N_5  and  C_9 
REMARK    2  A    between atoms: N_6  and  C_10 
REMARK    3  A    between atoms: C_9  and  C_10 
ROOT
HETATM    1  C   UNK N   1      34.309  14.537   9.229  0.00  0.00     0.248 C 
HETATM    2  C   UNK N   1      34.389  13.364   8.252  0.00  0.00     0.045 C 
ENDROOT
BRANCH   1   3
HETATM    3  N   UNK N   1      33.935  15.770   8.522  0.00  0.00     0.112 N 
HETATM    4  C   UNK N   1      32.504  16.047   8.718  0.00  0.00     0.376 C 
HETATM    5  C   UNK N   1      32.135  17.339   8.045  0.00  0.00     0.252 C 
HETATM    6  O   UNK N   1      31.012  17.493   7.595  0.00  0.00    -0.271 OA
HETATM    7  N   UNK N   1      33.045  18.339   7.952  0.00  0.00    -0.295 N 
HETATM    8  C   UNK N   1      34.301  18.183   8.440  0.00  0.00     0.252 C 
HETATM    9  H   UNK N   1      32.792  19.190   7.525  0.00  0.00     0.171 HD
HETATM   10  O   UNK N   1      35.104  19.098   8.360  0.00  0.00    -0.271 OA
HETATM   11  C   UNK N   1      34.703  16.887   9.090  0.00  0.00     0.376 C 
ENDBRANCH   1   3
BRANCH   1  12
HETATM   12  C   UNK N   1      35.671  14.721   9.916  0.00  0.00     0.308 C 
BRANCH  12  13
HETATM   13  N   UNK N   1      35.842  13.850  11.071  0.00  0.00     0.108 N 
HETATM   14  C   UNK N   1      37.081  13.098  10.882  0.00  0.00     0.375 C 
HETATM   15  C   UNK N   1      37.357  12.277  12.097  0.00  0.00     0.252 C 
HETATM   16  O   UNK N   1      37.822  11.154  11.989  0.00  0.00    -0.271 OA
HETATM   17  N   UNK N   1      37.125  12.803  13.322  0.00  0.00    -0.295 N 
HETATM   18  C   UNK N   1      36.524  14.013  13.450  0.00  0.00     0.252 C 
HETATM   19  H   UNK N   1      37.396  12.305  14.127  0.00  0.00     0.171 HD
HETATM   20  O   UNK N   1      36.421  14.523  14.555  0.00  0.00    -0.271 OA
HETATM   21  C   UNK N   1      35.978  14.737  12.237  0.00  0.00     0.375 C 
ENDBRANCH  12  13
ENDBRANCH   1  12
TORSDOF 3
ENDMDL
