REMARK  11 active torsions:
REMARK  status: ('A' for Active; 'I' for Inactive)
REMARK    1  A    between atoms: O_2  and  C_15 
REMARK    2  A    between atoms: O_2  and  C_24 
REMARK    3  A    between atoms: O_3  and  C_16 
REMARK    4  A    between atoms: O_3  and  C_25 
REMARK    5  A    between atoms: O_4  and  C_18 
REMARK    6  A    between atoms: N_8  and  C_26 
REMARK    7  A    between atoms: C_9  and  C_14 
REMARK    8  A    between atoms: C_10  and  C_16 
REMARK    9  A    between atoms: C_11  and  C_18 
REMARK   10  A    between atoms: C_12  and  C_15 
REMARK   11  A    between atoms: C_24  and  C_26 
ROOT
HETATM    1  N   UNK N   1       5.647  -1.229  -1.227  0.00  0.00    -0.360 N 
HETATM    2  C   UNK N   1       5.639   1.123   0.388  0.00  0.00     0.102 C 
HETATM    3  C   UNK N   1       4.360   0.284   0.132  0.00  0.00     0.055 C 
HETATM    4  C   UNK N   1       6.934   0.346   0.056  0.00  0.00     0.052 C 
HETATM    5  C   UNK N   1       4.417  -0.813  -0.673  0.00  0.00     0.046 C 
HETATM    6  C   UNK N   1       6.884  -0.756  -0.742  0.00  0.00     0.018 C 
HETATM    7  C   UNK N   1       8.070  -1.636  -0.989  0.00  0.00     0.069 C 
HETATM    8  H   UNK N   1       5.641  -1.868  -1.975  0.00  0.00     0.165 HD
ENDROOT
BRANCH   2   9
HETATM    9  C   UNK N   1       5.484   2.562  -0.230  0.00  0.00    -0.023 A 
HETATM   10  C   UNK N   1       6.415   3.651  -0.106  0.00  0.00     0.041 A 
HETATM   11 Cl   UNK N   1       7.962   3.597   0.696  0.00  0.00    -0.084 Cl
HETATM   12  C   UNK N   1       6.102   4.908  -0.641  0.00  0.00     0.024 A 
HETATM   13  C   UNK N   1       4.898   5.140  -1.292  0.00  0.00     0.002 A 
HETATM   14  C   UNK N   1       3.989   4.106  -1.438  0.00  0.00     0.001 A 
HETATM   15  C   UNK N   1       4.283   2.845  -0.924  0.00  0.00     0.010 A 
ENDBRANCH   2   9
BRANCH   3  16
HETATM   16  C   UNK N   1       3.064   0.765   0.724  0.00  0.00     0.292 C 
HETATM   17  O   UNK N   1       3.072   1.669   1.544  0.00  0.00    -0.259 OA
BRANCH  16  18
HETATM   18  O   UNK N   1       1.881   0.269   0.273  0.00  0.00    -0.318 OA
BRANCH  18  19
HETATM   19  C   UNK N   1       0.659   0.772   0.649  0.00  0.00     0.174 C 
HETATM   20  C   UNK N   1      -0.383   0.337  -0.362  0.00  0.00     0.034 C 
ENDBRANCH  18  19
ENDBRANCH  16  18
ENDBRANCH   3  16
BRANCH   4  21
HETATM   21  C   UNK N   1       8.191   0.686   0.800  0.00  0.00     0.291 C 
HETATM   22  O   UNK N   1       8.088   1.075   1.952  0.00  0.00    -0.260 OA
BRANCH  21  23
HETATM   23  O   UNK N   1       9.439   0.574   0.270  0.00  0.00    -0.323 OA
HETATM   24  C   UNK N   1       9.711   0.675  -1.076  0.00  0.00     0.213 C 
ENDBRANCH  21  23
ENDBRANCH   4  21
BRANCH   5  25
HETATM   25  C   UNK N   1       3.225  -1.676  -0.970  0.00  0.00     0.225 C 
BRANCH  25  26
HETATM   26  O   UNK N   1       2.830  -2.339   0.197  0.00  0.00    -0.384 OA
BRANCH  26  27
HETATM   27  C   UNK N   1       1.657  -3.013  -0.144  0.00  0.00     0.187 C 
BRANCH  27  28
HETATM   28  C   UNK N   1       1.849  -4.502   0.066  0.00  0.00     0.137 C 
BRANCH  28  29
HETATM   29  N   UNK N   1       0.639  -5.205  -0.319  0.00  0.00    -0.428 N 
HETATM   30  H   UNK N   1      -0.213  -4.715  -0.590  0.00  0.00     0.149 HD
HETATM   31  H   UNK N   1       0.642  -6.225  -0.319  0.00  0.00     0.149 HD
ENDBRANCH  28  29
ENDBRANCH  27  28
ENDBRANCH  26  27
ENDBRANCH  25  26
ENDBRANCH   5  25
TORSDOF 11
