MODEL 1
REMARK VINA RESULT:      -6.1      0.000      0.000
REMARK  11 active torsions:
REMARK  status: ('A' for Active; 'I' for Inactive)
REMARK    1  A    between atoms: O_2  and  C_15 
REMARK    2  A    between atoms: O_2  and  C_24 
REMARK    3  A    between atoms: O_3  and  C_16 
REMARK    4  A    between atoms: O_3  and  C_25 
REMARK    5  A    between atoms: O_4  and  C_18 
REMARK    6  A    between atoms: N_8  and  C_26 
REMARK    7  A    between atoms: C_9  and  C_14 
REMARK    8  A    between atoms: C_10  and  C_16 
REMARK    9  A    between atoms: C_11  and  C_18 
REMARK   10  A    between atoms: C_12  and  C_15 
REMARK   11  A    between atoms: C_24  and  C_26 
ROOT
HETATM    1  N   UNK N   1      32.029  17.647   9.051  0.00  0.00    -0.360 N 
HETATM    2  C   UNK N   1      30.829  16.174   6.922  0.00  0.00     0.102 C 
HETATM    3  C   UNK N   1      32.085  15.669   7.680  0.00  0.00     0.055 C 
HETATM    4  C   UNK N   1      30.078  17.283   7.693  0.00  0.00     0.052 C 
HETATM    5  C   UNK N   1      32.633  16.430   8.668  0.00  0.00     0.046 C 
HETATM    6  C   UNK N   1      30.707  17.974   8.683  0.00  0.00     0.018 C 
HETATM    7  C   UNK N   1      30.002  18.959   9.563  0.00  0.00     0.069 C 
HETATM    8  H   UNK N   1      32.546  18.287   9.590  0.00  0.00     0.165 HD
ENDROOT
BRANCH   2   9
HETATM    9  C   UNK N   1      31.175  16.453   5.413  0.00  0.00    -0.023 A 
HETATM   10  C   UNK N   1      30.587  15.811   4.268  0.00  0.00     0.041 A 
HETATM   11 Cl   UNK N   1      29.303  14.632   4.294  0.00  0.00    -0.084 Cl
HETATM   12  C   UNK N   1      31.057  16.102   2.980  0.00  0.00     0.024 A 
HETATM   13  C   UNK N   1      32.095  17.000   2.772  0.00  0.00     0.002 A 
HETATM   14  C   UNK N   1      32.671  17.643   3.855  0.00  0.00     0.001 A 
HETATM   15  C   UNK N   1      32.212  17.378   5.144  0.00  0.00     0.010 A 
ENDBRANCH   2   9
BRANCH   3  16
HETATM   16  C   UNK N   1      32.713  14.377   7.235  0.00  0.00     0.292 C 
HETATM   17  O   UNK N   1      32.289  13.318   7.670  0.00  0.00    -0.259 OA
BRANCH  16  18
HETATM   18  O   UNK N   1      33.676  14.380   6.276  0.00  0.00    -0.318 OA
BRANCH  18  19
HETATM   19  C   UNK N   1      33.569  13.683   5.097  0.00  0.00     0.174 C 
HETATM   20  C   UNK N   1      34.435  14.354   4.050  0.00  0.00     0.034 C 
ENDBRANCH  18  19
ENDBRANCH  16  18
ENDBRANCH   3  16
BRANCH   4  21
HETATM   21  C   UNK N   1      28.599  17.428   7.491  0.00  0.00     0.291 C 
HETATM   22  O   UNK N   1      27.855  16.827   8.249  0.00  0.00    -0.260 OA
BRANCH  21  23
HETATM   23  O   UNK N   1      28.039  18.200   6.521  0.00  0.00    -0.323 OA
HETATM   24  C   UNK N   1      27.742  19.535   6.681  0.00  0.00     0.213 C 
ENDBRANCH  21  23
ENDBRANCH   4  21
BRANCH   5  25
HETATM   25  C   UNK N   1      33.847  16.013   9.447  0.00  0.00     0.225 C 
BRANCH  25  26
HETATM   26  O   UNK N   1      34.520  17.152   9.902  0.00  0.00    -0.384 OA
BRANCH  26  27
HETATM   27  C   UNK N   1      35.618  16.668  10.615  0.00  0.00     0.187 C 
BRANCH  27  28
HETATM   28  C   UNK N   1      35.190  15.487  11.464  0.00  0.00     0.137 C 
BRANCH  28  29
HETATM   29  N   UNK N   1      36.259  15.137  12.380  0.00  0.00    -0.428 N 
HETATM   30  H   UNK N   1      36.978  14.453  12.143  0.00  0.00     0.149 HD
HETATM   31  H   UNK N   1      36.294  15.591  13.293  0.00  0.00     0.149 HD
ENDBRANCH  28  29
ENDBRANCH  27  28
ENDBRANCH  26  27
ENDBRANCH  25  26
ENDBRANCH   5  25
TORSDOF 11
ENDMDL
MODEL 2
REMARK VINA RESULT:      -5.8      9.142     11.954
REMARK  11 active torsions:
REMARK  status: ('A' for Active; 'I' for Inactive)
REMARK    1  A    between atoms: O_2  and  C_15 
REMARK    2  A    between atoms: O_2  and  C_24 
REMARK    3  A    between atoms: O_3  and  C_16 
REMARK    4  A    between atoms: O_3  and  C_25 
REMARK    5  A    between atoms: O_4  and  C_18 
REMARK    6  A    between atoms: N_8  and  C_26 
REMARK    7  A    between atoms: C_9  and  C_14 
REMARK    8  A    between atoms: C_10  and  C_16 
REMARK    9  A    between atoms: C_11  and  C_18 
REMARK   10  A    between atoms: C_12  and  C_15 
REMARK   11  A    between atoms: C_24  and  C_26 
ROOT
HETATM    1  N   UNK N   1      20.512  14.150   9.529  0.00  0.00    -0.360 N 
HETATM    2  C   UNK N   1      22.331  13.563   7.411  0.00  0.00     0.102 C 
HETATM    3  C   UNK N   1      21.637  14.943   7.554  0.00  0.00     0.055 C 
HETATM    4  C   UNK N   1      22.276  12.733   8.714  0.00  0.00     0.052 C 
HETATM    5  C   UNK N   1      20.754  15.156   8.569  0.00  0.00     0.046 C 
HETATM    6  C   UNK N   1      21.370  13.041   9.682  0.00  0.00     0.018 C 
HETATM    7  C   UNK N   1      21.354  12.375  11.023  0.00  0.00     0.069 C 
HETATM    8  H   UNK N   1      19.720  14.224  10.108  0.00  0.00     0.165 HD
ENDROOT
BRANCH   2   9
HETATM    9  C   UNK N   1      21.870  12.852   6.084  0.00  0.00    -0.023 A 
HETATM   10  C   UNK N   1      22.588  12.816   4.839  0.00  0.00     0.041 A 
HETATM   11 Cl   UNK N   1      24.168  13.490   4.542  0.00  0.00    -0.084 Cl
HETATM   12  C   UNK N   1      22.012  12.215   3.712  0.00  0.00     0.024 A 
HETATM   13  C   UNK N   1      20.745  11.649   3.760  0.00  0.00     0.002 A 
HETATM   14  C   UNK N   1      20.037  11.657   4.949  0.00  0.00     0.001 A 
HETATM   15  C   UNK N   1      20.594  12.240   6.085  0.00  0.00     0.010 A 
ENDBRANCH   2   9
BRANCH   3  16
HETATM   16  C   UNK N   1      21.905  15.986   6.505  0.00  0.00     0.292 C 
HETATM   17  O   UNK N   1      23.053  16.322   6.265  0.00  0.00    -0.259 OA
BRANCH  16  18
HETATM   18  O   UNK N   1      20.883  16.477   5.753  0.00  0.00    -0.318 OA
BRANCH  18  19
HETATM   19  C   UNK N   1      20.284  15.770   4.739  0.00  0.00     0.174 C 
HETATM   20  C   UNK N   1      18.840  15.502   5.114  0.00  0.00     0.034 C 
ENDBRANCH  18  19
ENDBRANCH  16  18
ENDBRANCH   3  16
BRANCH   4  21
HETATM   21  C   UNK N   1      23.371  11.745   8.988  0.00  0.00     0.291 C 
HETATM   22  O   UNK N   1      23.319  10.662   8.428  0.00  0.00    -0.260 OA
BRANCH  21  23
HETATM   23  O   UNK N   1      24.423  11.990   9.814  0.00  0.00    -0.323 OA
HETATM   24  C   UNK N   1      25.116  13.180   9.839  0.00  0.00     0.213 C 
ENDBRANCH  21  23
ENDBRANCH   4  21
BRANCH   5  25
HETATM   25  C   UNK N   1      20.041  16.462   8.775  0.00  0.00     0.225 C 
BRANCH  25  26
HETATM   26  O   UNK N   1      18.680  16.218   8.990  0.00  0.00    -0.384 OA
BRANCH  26  27
HETATM   27  C   UNK N   1      18.146  17.447   9.378  0.00  0.00     0.187 C 
BRANCH  27  28
HETATM   28  C   UNK N   1      19.263  18.459   9.537  0.00  0.00     0.137 C 
BRANCH  28  29
HETATM   29  N   UNK N   1      18.874  19.461  10.512  0.00  0.00    -0.428 N 
HETATM   30  H   UNK N   1      18.701  19.231  11.490  0.00  0.00     0.149 HD
HETATM   31  H   UNK N   1      18.771  20.429  10.208  0.00  0.00     0.149 HD
ENDBRANCH  28  29
ENDBRANCH  27  28
ENDBRANCH  26  27
ENDBRANCH  25  26
ENDBRANCH   5  25
TORSDOF 11
ENDMDL
MODEL 3
REMARK VINA RESULT:      -5.7      2.593      5.328
REMARK  11 active torsions:
REMARK  status: ('A' for Active; 'I' for Inactive)
REMARK    1  A    between atoms: O_2  and  C_15 
REMARK    2  A    between atoms: O_2  and  C_24 
REMARK    3  A    between atoms: O_3  and  C_16 
REMARK    4  A    between atoms: O_3  and  C_25 
REMARK    5  A    between atoms: O_4  and  C_18 
REMARK    6  A    between atoms: N_8  and  C_26 
REMARK    7  A    between atoms: C_9  and  C_14 
REMARK    8  A    between atoms: C_10  and  C_16 
REMARK    9  A    between atoms: C_11  and  C_18 
REMARK   10  A    between atoms: C_12  and  C_15 
REMARK   11  A    between atoms: C_24  and  C_26 
ROOT
HETATM    1  N   UNK N   1      35.222  14.478   8.948  0.00  0.00    -0.360 N 
HETATM    2  C   UNK N   1      34.880  16.110   6.633  0.00  0.00     0.102 C 
HETATM    3  C   UNK N   1      34.713  16.662   8.073  0.00  0.00     0.055 C 
HETATM    4  C   UNK N   1      35.642  14.765   6.597  0.00  0.00     0.052 C 
HETATM    5  C   UNK N   1      34.858  15.829   9.140  0.00  0.00     0.046 C 
HETATM    6  C   UNK N   1      35.753  14.013   7.727  0.00  0.00     0.018 C 
HETATM    7  C   UNK N   1      36.593  12.776   7.801  0.00  0.00     0.069 C 
HETATM    8  H   UNK N   1      35.100  13.842   9.688  0.00  0.00     0.165 HD
ENDROOT
BRANCH   2   9
HETATM    9  C   UNK N   1      33.513  16.184   5.855  0.00  0.00    -0.023 A 
HETATM   10  C   UNK N   1      32.412  15.267   5.972  0.00  0.00     0.041 A 
HETATM   11 Cl   UNK N   1      32.315  13.907   7.058  0.00  0.00    -0.084 Cl
HETATM   12  C   UNK N   1      31.287  15.412   5.149  0.00  0.00     0.024 A 
HETATM   13  C   UNK N   1      31.203  16.426   4.205  0.00  0.00     0.002 A 
HETATM   14  C   UNK N   1      32.243  17.331   4.081  0.00  0.00     0.001 A 
HETATM   15  C   UNK N   1      33.367  17.214   4.895  0.00  0.00     0.010 A 
ENDBRANCH   2   9
BRANCH   3  16
HETATM   16  C   UNK N   1      34.310  18.101   8.240  0.00  0.00     0.292 C 
HETATM   17  O   UNK N   1      35.168  18.957   8.381  0.00  0.00    -0.259 OA
BRANCH  16  18
HETATM   18  O   UNK N   1      33.003  18.461   8.132  0.00  0.00    -0.318 OA
BRANCH  18  19
HETATM   19  C   UNK N   1      31.976  17.767   8.724  0.00  0.00     0.174 C 
HETATM   20  C   UNK N   1      30.740  17.884   7.856  0.00  0.00     0.034 C 
ENDBRANCH  18  19
ENDBRANCH  16  18
ENDBRANCH   3  16
BRANCH   4  21
HETATM   21  C   UNK N   1      36.439  14.419   5.375  0.00  0.00     0.291 C 
HETATM   22  O   UNK N   1      37.540  14.930   5.245  0.00  0.00    -0.260 OA
BRANCH  21  23
HETATM   23  O   UNK N   1      36.013  13.559   4.411  0.00  0.00    -0.323 OA
HETATM   24  C   UNK N   1      34.990  13.840   3.533  0.00  0.00     0.213 C 
ENDBRANCH  21  23
ENDBRANCH   4  21
BRANCH   5  25
HETATM   25  C   UNK N   1      34.713  16.285  10.563  0.00  0.00     0.225 C 
BRANCH  25  26
HETATM   26  O   UNK N   1      34.683  15.169  11.407  0.00  0.00    -0.384 OA
BRANCH  26  27
HETATM   27  C   UNK N   1      35.833  15.271  12.190  0.00  0.00     0.187 C 
BRANCH  27  28
HETATM   28  C   UNK N   1      36.396  13.887  12.446  0.00  0.00     0.137 C 
BRANCH  28  29
HETATM   29  N   UNK N   1      37.509  13.644  11.547  0.00  0.00    -0.428 N 
HETATM   30  H   UNK N   1      38.015  14.401  11.088  0.00  0.00     0.149 HD
HETATM   31  H   UNK N   1      37.795  12.681  11.369  0.00  0.00     0.149 HD
ENDBRANCH  28  29
ENDBRANCH  27  28
ENDBRANCH  26  27
ENDBRANCH  25  26
ENDBRANCH   5  25
TORSDOF 11
ENDMDL
MODEL 4
REMARK VINA RESULT:      -5.7     13.546     16.863
REMARK  11 active torsions:
REMARK  status: ('A' for Active; 'I' for Inactive)
REMARK    1  A    between atoms: O_2  and  C_15 
REMARK    2  A    between atoms: O_2  and  C_24 
REMARK    3  A    between atoms: O_3  and  C_16 
REMARK    4  A    between atoms: O_3  and  C_25 
REMARK    5  A    between atoms: O_4  and  C_18 
REMARK    6  A    between atoms: N_8  and  C_26 
REMARK    7  A    between atoms: C_9  and  C_14 
REMARK    8  A    between atoms: C_10  and  C_16 
REMARK    9  A    between atoms: C_11  and  C_18 
REMARK   10  A    between atoms: C_12  and  C_15 
REMARK   11  A    between atoms: C_24  and  C_26 
ROOT
HETATM    1  N   UNK N   1      25.315  24.744  -6.098  0.00  0.00    -0.360 N 
HETATM    2  C   UNK N   1      28.097  25.055  -5.543  0.00  0.00     0.102 C 
HETATM    3  C   UNK N   1      27.554  23.949  -6.485  0.00  0.00     0.055 C 
HETATM    4  C   UNK N   1      27.068  26.184  -5.301  0.00  0.00     0.052 C 
HETATM    5  C   UNK N   1      26.213  23.828  -6.689  0.00  0.00     0.046 C 
HETATM    6  C   UNK N   1      25.748  25.973  -5.558  0.00  0.00     0.018 C 
HETATM    7  C   UNK N   1      24.721  27.060  -5.483  0.00  0.00     0.069 C 
HETATM    8  H   UNK N   1      24.359  24.518  -6.062  0.00  0.00     0.165 HD
ENDROOT
BRANCH   2   9
HETATM    9  C   UNK N   1      28.774  24.413  -4.276  0.00  0.00    -0.023 A 
HETATM   10  C   UNK N   1      30.185  24.269  -4.041  0.00  0.00     0.041 A 
HETATM   11 Cl   UNK N   1      31.465  24.841  -5.077  0.00  0.00    -0.084 Cl
HETATM   12  C   UNK N   1      30.643  23.597  -2.899  0.00  0.00     0.024 A 
HETATM   13  C   UNK N   1      29.761  23.051  -1.976  0.00  0.00     0.002 A 
HETATM   14  C   UNK N   1      28.397  23.188  -2.170  0.00  0.00     0.001 A 
HETATM   15  C   UNK N   1      27.919  23.861  -3.292  0.00  0.00     0.010 A 
ENDBRANCH   2   9
BRANCH   3  16
HETATM   16  C   UNK N   1      28.536  22.980  -7.084  0.00  0.00     0.292 C 
HETATM   17  O   UNK N   1      29.330  23.367  -7.926  0.00  0.00    -0.259 OA
BRANCH  16  18
HETATM   18  O   UNK N   1      28.610  21.705  -6.616  0.00  0.00    -0.318 OA
BRANCH  18  19
HETATM   19  C   UNK N   1      29.727  20.916  -6.749  0.00  0.00     0.174 C 
HETATM   20  C   UNK N   1      30.494  20.928  -5.441  0.00  0.00     0.034 C 
ENDBRANCH  18  19
ENDBRANCH  16  18
ENDBRANCH   3  16
BRANCH   4  21
HETATM   21  C   UNK N   1      27.570  27.565  -5.000  0.00  0.00     0.291 C 
HETATM   22  O   UNK N   1      27.881  28.279  -5.940  0.00  0.00    -0.260 OA
BRANCH  21  23
HETATM   23  O   UNK N   1      27.686  28.072  -3.743  0.00  0.00    -0.323 OA
HETATM   24  C   UNK N   1      26.891  29.082  -3.249  0.00  0.00     0.213 C 
ENDBRANCH  21  23
ENDBRANCH   4  21
BRANCH   5  25
HETATM   25  C   UNK N   1      25.609  22.785  -7.584  0.00  0.00     0.225 C 
BRANCH  25  26
HETATM   26  O   UNK N   1      24.770  23.403  -8.517  0.00  0.00    -0.384 OA
BRANCH  26  27
HETATM   27  C   UNK N   1      25.609  23.794  -9.561  0.00  0.00     0.187 C 
BRANCH  27  28
HETATM   28  C   UNK N   1      25.169  25.146 -10.086  0.00  0.00     0.137 C 
BRANCH  28  29
HETATM   29  N   UNK N   1      25.820  26.196  -9.325  0.00  0.00    -0.428 N 
HETATM   30  H   UNK N   1      25.557  26.416  -8.365  0.00  0.00     0.149 HD
HETATM   31  H   UNK N   1      26.568  26.731  -9.766  0.00  0.00     0.149 HD
ENDBRANCH  28  29
ENDBRANCH  27  28
ENDBRANCH  26  27
ENDBRANCH  25  26
ENDBRANCH   5  25
TORSDOF 11
ENDMDL
MODEL 5
REMARK VINA RESULT:      -5.6      3.445      6.810
REMARK  11 active torsions:
REMARK  status: ('A' for Active; 'I' for Inactive)
REMARK    1  A    between atoms: O_2  and  C_15 
REMARK    2  A    between atoms: O_2  and  C_24 
REMARK    3  A    between atoms: O_3  and  C_16 
REMARK    4  A    between atoms: O_3  and  C_25 
REMARK    5  A    between atoms: O_4  and  C_18 
REMARK    6  A    between atoms: N_8  and  C_26 
REMARK    7  A    between atoms: C_9  and  C_14 
REMARK    8  A    between atoms: C_10  and  C_16 
REMARK    9  A    between atoms: C_11  and  C_18 
REMARK   10  A    between atoms: C_12  and  C_15 
REMARK   11  A    between atoms: C_24  and  C_26 
ROOT
HETATM    1  N   UNK N   1      28.686  16.388   3.370  0.00  0.00    -0.360 N 
HETATM    2  C   UNK N   1      29.835  15.538   5.839  0.00  0.00     0.102 C 
HETATM    3  C   UNK N   1      28.714  16.606   5.767  0.00  0.00     0.055 C 
HETATM    4  C   UNK N   1      29.948  14.708   4.539  0.00  0.00     0.052 C 
HETATM    5  C   UNK N   1      28.224  16.996   4.557  0.00  0.00     0.046 C 
HETATM    6  C   UNK N   1      29.403  15.174   3.382  0.00  0.00     0.018 C 
HETATM    7  C   UNK N   1      29.350  14.364   2.124  0.00  0.00     0.069 C 
HETATM    8  H   UNK N   1      28.502  16.825   2.508  0.00  0.00     0.165 HD
ENDROOT
BRANCH   2   9
HETATM    9  C   UNK N   1      31.159  16.170   6.407  0.00  0.00    -0.023 A 
HETATM   10  C   UNK N   1      32.018  17.107   5.734  0.00  0.00     0.041 A 
HETATM   11 Cl   UNK N   1      31.742  17.810   4.163  0.00  0.00    -0.084 Cl
HETATM   12  C   UNK N   1      33.215  17.520   6.333  0.00  0.00     0.024 A 
HETATM   13  C   UNK N   1      33.608  17.040   7.575  0.00  0.00     0.002 A 
HETATM   14  C   UNK N   1      32.795  16.148   8.252  0.00  0.00     0.001 A 
HETATM   15  C   UNK N   1      31.594  15.731   7.681  0.00  0.00     0.010 A 
ENDBRANCH   2   9
BRANCH   3  16
HETATM   16  C   UNK N   1      28.256  17.245   7.049  0.00  0.00     0.292 C 
HETATM   17  O   UNK N   1      27.441  16.672   7.753  0.00  0.00    -0.259 OA
BRANCH  16  18
HETATM   18  O   UNK N   1      28.824  18.405   7.475  0.00  0.00    -0.318 OA
BRANCH  18  19
HETATM   19  C   UNK N   1      28.916  18.758   8.800  0.00  0.00     0.174 C 
HETATM   20  C   UNK N   1      30.377  18.795   9.198  0.00  0.00     0.034 C 
ENDBRANCH  18  19
ENDBRANCH  16  18
ENDBRANCH   3  16
BRANCH   4  21
HETATM   21  C   UNK N   1      30.459  13.301   4.623  0.00  0.00     0.291 C 
HETATM   22  O   UNK N   1      29.656  12.412   4.855  0.00  0.00    -0.260 OA
BRANCH  21  23
HETATM   23  O   UNK N   1      31.763  12.956   4.443  0.00  0.00    -0.323 OA
HETATM   24  C   UNK N   1      32.720  13.813   3.949  0.00  0.00     0.213 C 
ENDBRANCH  21  23
ENDBRANCH   4  21
BRANCH   5  25
HETATM   25  C   UNK N   1      27.140  18.024   4.403  0.00  0.00     0.225 C 
BRANCH  25  26
HETATM   26  O   UNK N   1      27.718  19.287   4.240  0.00  0.00    -0.384 OA
BRANCH  26  27
HETATM   27  C   UNK N   1      26.709  20.196   4.561  0.00  0.00     0.187 C 
BRANCH  27  28
HETATM   28  C   UNK N   1      27.134  21.024   5.757  0.00  0.00     0.137 C 
BRANCH  28  29
HETATM   29  N   UNK N   1      26.477  20.523   6.950  0.00  0.00    -0.428 N 
HETATM   30  H   UNK N   1      26.907  20.581   7.873  0.00  0.00     0.149 HD
HETATM   31  H   UNK N   1      25.554  20.100   6.862  0.00  0.00     0.149 HD
ENDBRANCH  28  29
ENDBRANCH  27  28
ENDBRANCH  26  27
ENDBRANCH  25  26
ENDBRANCH   5  25
TORSDOF 11
ENDMDL
MODEL 6
REMARK VINA RESULT:      -5.5      1.457      2.060
REMARK  11 active torsions:
REMARK  status: ('A' for Active; 'I' for Inactive)
REMARK    1  A    between atoms: O_2  and  C_15 
REMARK    2  A    between atoms: O_2  and  C_24 
REMARK    3  A    between atoms: O_3  and  C_16 
REMARK    4  A    between atoms: O_3  and  C_25 
REMARK    5  A    between atoms: O_4  and  C_18 
REMARK    6  A    between atoms: N_8  and  C_26 
REMARK    7  A    between atoms: C_9  and  C_14 
REMARK    8  A    between atoms: C_10  and  C_16 
REMARK    9  A    between atoms: C_11  and  C_18 
REMARK   10  A    between atoms: C_12  and  C_15 
REMARK   11  A    between atoms: C_24  and  C_26 
ROOT
HETATM    1  N   UNK N   1      32.045  17.413   9.148  0.00  0.00    -0.360 N 
HETATM    2  C   UNK N   1      30.973  16.037   6.890  0.00  0.00     0.102 C 
HETATM    3  C   UNK N   1      32.149  15.472   7.730  0.00  0.00     0.055 C 
HETATM    4  C   UNK N   1      30.197  17.150   7.631  0.00  0.00     0.052 C 
HETATM    5  C   UNK N   1      32.640  16.187   8.779  0.00  0.00     0.046 C 
HETATM    6  C   UNK N   1      30.767  17.793   8.687  0.00  0.00     0.018 C 
HETATM    7  C   UNK N   1      30.025  18.777   9.537  0.00  0.00     0.069 C 
HETATM    8  H   UNK N   1      32.537  18.022   9.744  0.00  0.00     0.165 HD
ENDROOT
BRANCH   2   9
HETATM    9  C   UNK N   1      31.446  16.344   5.421  0.00  0.00    -0.023 A 
HETATM   10  C   UNK N   1      32.599  17.113   5.036  0.00  0.00     0.041 A 
HETATM   11 Cl   UNK N   1      33.775  17.815   6.115  0.00  0.00    -0.084 Cl
HETATM   12  C   UNK N   1      32.849  17.376   3.683  0.00  0.00     0.024 A 
HETATM   13  C   UNK N   1      32.000  16.916   2.685  0.00  0.00     0.002 A 
HETATM   14  C   UNK N   1      30.890  16.162   3.026  0.00  0.00     0.001 A 
HETATM   15  C   UNK N   1      30.627  15.878   4.364  0.00  0.00     0.010 A 
ENDBRANCH   2   9
BRANCH   3  16
HETATM   16  C   UNK N   1      32.769  14.171   7.299  0.00  0.00     0.292 C 
HETATM   17  O   UNK N   1      33.619  14.168   6.422  0.00  0.00    -0.259 OA
BRANCH  16  18
HETATM   18  O   UNK N   1      32.463  13.019   7.952  0.00  0.00    -0.318 OA
BRANCH  18  19
HETATM   19  C   UNK N   1      33.335  11.964   8.070  0.00  0.00     0.174 C 
HETATM   20  C   UNK N   1      34.094  12.098   9.375  0.00  0.00     0.034 C 
ENDBRANCH  18  19
ENDBRANCH  16  18
ENDBRANCH   3  16
BRANCH   4  21
HETATM   21  C   UNK N   1      28.744  17.349   7.318  0.00  0.00     0.291 C 
HETATM   22  O   UNK N   1      27.932  16.641   7.890  0.00  0.00    -0.260 OA
BRANCH  21  23
HETATM   23  O   UNK N   1      28.278  18.280   6.442  0.00  0.00    -0.323 OA
HETATM   24  C   UNK N   1      27.643  17.970   5.261  0.00  0.00     0.213 C 
ENDBRANCH  21  23
ENDBRANCH   4  21
BRANCH   5  25
HETATM   25  C   UNK N   1      33.774  15.710   9.639  0.00  0.00     0.225 C 
BRANCH  25  26
HETATM   26  O   UNK N   1      34.832  16.622   9.559  0.00  0.00    -0.384 OA
BRANCH  26  27
HETATM   27  C   UNK N   1      35.420  16.612  10.824  0.00  0.00     0.187 C 
BRANCH  27  28
HETATM   28  C   UNK N   1      35.919  15.216  11.139  0.00  0.00     0.137 C 
BRANCH  28  29
HETATM   29  N   UNK N   1      36.393  15.169  12.510  0.00  0.00    -0.428 N 
HETATM   30  H   UNK N   1      35.800  14.862  13.281  0.00  0.00     0.149 HD
HETATM   31  H   UNK N   1      37.352  15.452  12.709  0.00  0.00     0.149 HD
ENDBRANCH  28  29
ENDBRANCH  27  28
ENDBRANCH  26  27
ENDBRANCH  25  26
ENDBRANCH   5  25
TORSDOF 11
ENDMDL
MODEL 7
REMARK VINA RESULT:      -5.4      8.398     11.962
REMARK  11 active torsions:
REMARK  status: ('A' for Active; 'I' for Inactive)
REMARK    1  A    between atoms: O_2  and  C_15 
REMARK    2  A    between atoms: O_2  and  C_24 
REMARK    3  A    between atoms: O_3  and  C_16 
REMARK    4  A    between atoms: O_3  and  C_25 
REMARK    5  A    between atoms: O_4  and  C_18 
REMARK    6  A    between atoms: N_8  and  C_26 
REMARK    7  A    between atoms: C_9  and  C_14 
REMARK    8  A    between atoms: C_10  and  C_16 
REMARK    9  A    between atoms: C_11  and  C_18 
REMARK   10  A    between atoms: C_12  and  C_15 
REMARK   11  A    between atoms: C_24  and  C_26 
ROOT
HETATM    1  N   UNK N   1      21.379  16.998   2.675  0.00  0.00    -0.360 N 
HETATM    2  C   UNK N   1      21.931  15.456   5.011  0.00  0.00     0.102 C 
HETATM    3  C   UNK N   1      21.312  16.876   5.077  0.00  0.00     0.055 C 
HETATM    4  C   UNK N   1      21.814  14.823   3.605  0.00  0.00     0.052 C 
HETATM    5  C   UNK N   1      21.098  17.579   3.931  0.00  0.00     0.046 C 
HETATM    6  C   UNK N   1      21.575  15.610   2.519  0.00  0.00     0.018 C 
HETATM    7  C   UNK N   1      21.309  15.054   1.155  0.00  0.00     0.069 C 
HETATM    8  H   UNK N   1      21.441  17.580   1.884  0.00  0.00     0.165 HD
ENDROOT
BRANCH   2   9
HETATM    9  C   UNK N   1      23.351  15.444   5.690  0.00  0.00    -0.023 A 
HETATM   10  C   UNK N   1      24.518  16.157   5.244  0.00  0.00     0.041 A 
HETATM   11 Cl   UNK N   1      24.601  17.254   3.892  0.00  0.00    -0.084 Cl
HETATM   12  C   UNK N   1      25.742  15.982   5.903  0.00  0.00     0.024 A 
HETATM   13  C   UNK N   1      25.867  15.123   6.987  0.00  0.00     0.002 A 
HETATM   14  C   UNK N   1      24.757  14.435   7.446  0.00  0.00     0.001 A 
HETATM   15  C   UNK N   1      23.527  14.601   6.813  0.00  0.00     0.010 A 
ENDBRANCH   2   9
BRANCH   3  16
HETATM   16  C   UNK N   1      21.040  17.470   6.432  0.00  0.00     0.292 C 
HETATM   17  O   UNK N   1      21.627  18.483   6.777  0.00  0.00    -0.259 OA
BRANCH  16  18
HETATM   18  O   UNK N   1      20.071  16.944   7.227  0.00  0.00    -0.318 OA
BRANCH  18  19
HETATM   19  C   UNK N   1      20.204  16.803   8.587  0.00  0.00     0.174 C 
HETATM   20  C   UNK N   1      20.503  15.351   8.903  0.00  0.00     0.034 C 
ENDBRANCH  18  19
ENDBRANCH  16  18
ENDBRANCH   3  16
BRANCH   4  21
HETATM   21  C   UNK N   1      21.740  13.330   3.488  0.00  0.00     0.291 C 
HETATM   22  O   UNK N   1      20.662  12.792   3.679  0.00  0.00    -0.260 OA
BRANCH  21  23
HETATM   23  O   UNK N   1      22.803  12.542   3.171  0.00  0.00    -0.323 OA
HETATM   24  C   UNK N   1      23.631  11.960   4.105  0.00  0.00     0.213 C 
ENDBRANCH  21  23
ENDBRANCH   4  21
BRANCH   5  25
HETATM   25  C   UNK N   1      20.504  18.957   3.911  0.00  0.00     0.225 C 
BRANCH  25  26
HETATM   26  O   UNK N   1      21.502  19.889   3.606  0.00  0.00    -0.384 OA
BRANCH  26  27
HETATM   27  C   UNK N   1      20.900  20.800   2.738  0.00  0.00     0.187 C 
BRANCH  27  28
HETATM   28  C   UNK N   1      21.013  20.292   1.314  0.00  0.00     0.137 C 
BRANCH  28  29
HETATM   29  N   UNK N   1      20.327  21.207   0.419  0.00  0.00    -0.428 N 
HETATM   30  H   UNK N   1      20.317  22.214   0.573  0.00  0.00     0.149 HD
HETATM   31  H   UNK N   1      19.840  20.827  -0.393  0.00  0.00     0.149 HD
ENDBRANCH  28  29
ENDBRANCH  27  28
ENDBRANCH  26  27
ENDBRANCH  25  26
ENDBRANCH   5  25
TORSDOF 11
ENDMDL
MODEL 8
REMARK VINA RESULT:      -5.4      9.693     12.026
REMARK  11 active torsions:
REMARK  status: ('A' for Active; 'I' for Inactive)
REMARK    1  A    between atoms: O_2  and  C_15 
REMARK    2  A    between atoms: O_2  and  C_24 
REMARK    3  A    between atoms: O_3  and  C_16 
REMARK    4  A    between atoms: O_3  and  C_25 
REMARK    5  A    between atoms: O_4  and  C_18 
REMARK    6  A    between atoms: N_8  and  C_26 
REMARK    7  A    between atoms: C_9  and  C_14 
REMARK    8  A    between atoms: C_10  and  C_16 
REMARK    9  A    between atoms: C_11  and  C_18 
REMARK   10  A    between atoms: C_12  and  C_15 
REMARK   11  A    between atoms: C_24  and  C_26 
ROOT
HETATM    1  N   UNK N   1      20.778  17.460   6.852  0.00  0.00    -0.360 N 
HETATM    2  C   UNK N   1      21.380  14.673   6.958  0.00  0.00     0.102 C 
HETATM    3  C   UNK N   1      22.189  15.667   6.085  0.00  0.00     0.055 C 
HETATM    4  C   UNK N   1      20.541  15.385   8.044  0.00  0.00     0.052 C 
HETATM    5  C   UNK N   1      21.837  16.982   6.050  0.00  0.00     0.046 C 
HETATM    6  C   UNK N   1      20.261  16.713   7.930  0.00  0.00     0.018 C 
HETATM    7  C   UNK N   1      19.579  17.496   9.009  0.00  0.00     0.069 C 
HETATM    8  H   UNK N   1      20.389  18.341   6.652  0.00  0.00     0.165 HD
ENDROOT
BRANCH   2   9
HETATM    9  C   UNK N   1      20.640  13.622   6.050  0.00  0.00    -0.023 A 
HETATM   10  C   UNK N   1      19.586  13.895   5.111  0.00  0.00     0.041 A 
HETATM   11 Cl   UNK N   1      18.942  15.465   4.713  0.00  0.00    -0.084 Cl
HETATM   12  C   UNK N   1      18.960  12.841   4.431  0.00  0.00     0.024 A 
HETATM   13  C   UNK N   1      19.327  11.519   4.645  0.00  0.00     0.002 A 
HETATM   14  C   UNK N   1      20.348  11.229   5.534  0.00  0.00     0.001 A 
HETATM   15  C   UNK N   1      20.993  12.260   6.213  0.00  0.00     0.010 A 
ENDBRANCH   2   9
BRANCH   3  16
HETATM   16  C   UNK N   1      23.300  15.121   5.231  0.00  0.00     0.292 C 
HETATM   17  O   UNK N   1      24.455  15.206   5.614  0.00  0.00    -0.259 OA
BRANCH  16  18
HETATM   18  O   UNK N   1      23.012  14.444   4.087  0.00  0.00    -0.318 OA
BRANCH  18  19
HETATM   19  C   UNK N   1      22.476  15.040   2.971  0.00  0.00     0.174 C 
HETATM   20  C   UNK N   1      21.761  13.986   2.148  0.00  0.00     0.034 C 
ENDBRANCH  18  19
ENDBRANCH  16  18
ENDBRANCH   3  16
BRANCH   4  21
HETATM   21  C   UNK N   1      20.239  14.654   9.319  0.00  0.00     0.291 C 
HETATM   22  O   UNK N   1      19.070  14.535   9.649  0.00  0.00    -0.260 OA
BRANCH  21  23
HETATM   23  O   UNK N   1      21.191  14.106  10.121  0.00  0.00    -0.323 OA
HETATM   24  C   UNK N   1      21.368  12.750  10.282  0.00  0.00     0.213 C 
ENDBRANCH  21  23
ENDBRANCH   4  21
BRANCH   5  25
HETATM   25  C   UNK N   1      22.569  18.006   5.231  0.00  0.00     0.225 C 
BRANCH  25  26
HETATM   26  O   UNK N   1      21.651  18.925   4.710  0.00  0.00    -0.384 OA
BRANCH  26  27
HETATM   27  C   UNK N   1      21.483  18.558   3.375  0.00  0.00     0.187 C 
BRANCH  27  28
HETATM   28  C   UNK N   1      20.009  18.596   3.021  0.00  0.00     0.137 C 
BRANCH  28  29
HETATM   29  N   UNK N   1      19.791  19.557   1.956  0.00  0.00    -0.428 N 
HETATM   30  H   UNK N   1      20.558  20.061   1.512  0.00  0.00     0.149 HD
HETATM   31  H   UNK N   1      18.838  19.733   1.640  0.00  0.00     0.149 HD
ENDBRANCH  28  29
ENDBRANCH  27  28
ENDBRANCH  26  27
ENDBRANCH  25  26
ENDBRANCH   5  25
TORSDOF 11
ENDMDL
MODEL 9
REMARK VINA RESULT:      -5.3      8.009     12.037
REMARK  11 active torsions:
REMARK  status: ('A' for Active; 'I' for Inactive)
REMARK    1  A    between atoms: O_2  and  C_15 
REMARK    2  A    between atoms: O_2  and  C_24 
REMARK    3  A    between atoms: O_3  and  C_16 
REMARK    4  A    between atoms: O_3  and  C_25 
REMARK    5  A    between atoms: O_4  and  C_18 
REMARK    6  A    between atoms: N_8  and  C_26 
REMARK    7  A    between atoms: C_9  and  C_14 
REMARK    8  A    between atoms: C_10  and  C_16 
REMARK    9  A    between atoms: C_11  and  C_18 
REMARK   10  A    between atoms: C_12  and  C_15 
REMARK   11  A    between atoms: C_24  and  C_26 
ROOT
HETATM    1  N   UNK N   1      22.821  18.526   4.471  0.00  0.00    -0.360 N 
HETATM    2  C   UNK N   1      22.212  15.853   5.262  0.00  0.00     0.102 C 
HETATM    3  C   UNK N   1      21.246  16.707   4.400  0.00  0.00     0.055 C 
HETATM    4  C   UNK N   1      23.652  16.417   5.274  0.00  0.00     0.052 C 
HETATM    5  C   UNK N   1      21.576  17.989   4.078  0.00  0.00     0.046 C 
HETATM    6  C   UNK N   1      23.883  17.709   4.911  0.00  0.00     0.018 C 
HETATM    7  C   UNK N   1      25.260  18.278   4.762  0.00  0.00     0.069 C 
HETATM    8  H   UNK N   1      22.952  19.500   4.437  0.00  0.00     0.165 HD
ENDROOT
BRANCH   2   9
HETATM    9  C   UNK N   1      21.557  15.521   6.654  0.00  0.00    -0.023 A 
HETATM   10  C   UNK N   1      21.366  14.212   7.219  0.00  0.00     0.041 A 
HETATM   11 Cl   UNK N   1      21.885  12.702   6.519  0.00  0.00    -0.084 Cl
HETATM   12  C   UNK N   1      20.688  14.064   8.436  0.00  0.00     0.024 A 
HETATM   13  C   UNK N   1      20.180  15.160   9.122  0.00  0.00     0.002 A 
HETATM   14  C   UNK N   1      20.362  16.432   8.608  0.00  0.00     0.001 A 
HETATM   15  C   UNK N   1      21.043  16.605   7.405  0.00  0.00     0.010 A 
ENDBRANCH   2   9
BRANCH   3  16
HETATM   16  C   UNK N   1      19.921  16.110   4.014  0.00  0.00     0.292 C 
HETATM   17  O   UNK N   1      18.910  16.442   4.611  0.00  0.00    -0.259 OA
BRANCH  16  18
HETATM   18  O   UNK N   1      19.833  15.283   2.938  0.00  0.00    -0.318 OA
BRANCH  18  19
HETATM   19  C   UNK N   1      20.749  15.276   1.914  0.00  0.00     0.174 C 
HETATM   20  C   UNK N   1      20.403  14.154   0.954  0.00  0.00     0.034 C 
ENDBRANCH  18  19
ENDBRANCH  16  18
ENDBRANCH   3  16
BRANCH   4  21
HETATM   21  C   UNK N   1      24.797  15.468   5.467  0.00  0.00     0.291 C 
HETATM   22  O   UNK N   1      25.199  15.279   6.603  0.00  0.00    -0.260 OA
BRANCH  21  23
HETATM   23  O   UNK N   1      25.405  14.797   4.451  0.00  0.00    -0.323 OA
HETATM   24  C   UNK N   1      26.755  14.866   4.188  0.00  0.00     0.213 C 
ENDBRANCH  21  23
ENDBRANCH   4  21
BRANCH   5  25
HETATM   25  C   UNK N   1      20.696  18.879   3.249  0.00  0.00     0.225 C 
BRANCH  25  26
HETATM   26  O   UNK N   1      20.824  20.200   3.692  0.00  0.00    -0.384 OA
BRANCH  26  27
HETATM   27  C   UNK N   1      21.292  20.912   2.588  0.00  0.00     0.187 C 
BRANCH  27  28
HETATM   28  C   UNK N   1      20.884  20.198   1.314  0.00  0.00     0.137 C 
BRANCH  28  29
HETATM   29  N   UNK N   1      20.335  21.159   0.375  0.00  0.00    -0.428 N 
HETATM   30  H   UNK N   1      20.100  20.909  -0.585  0.00  0.00     0.149 HD
HETATM   31  H   UNK N   1      20.179  22.117   0.688  0.00  0.00     0.149 HD
ENDBRANCH  28  29
ENDBRANCH  27  28
ENDBRANCH  26  27
ENDBRANCH  25  26
ENDBRANCH   5  25
TORSDOF 11
ENDMDL
