MODEL 1
REMARK VINA RESULT:      -7.0      0.000      0.000
REMARK  7 active torsions:
REMARK  status: ('A' for Active; 'I' for Inactive)
REMARK    1  A    between atoms: O_1  and  C_10 
REMARK    2  A    between atoms: O_2  and  C_15 
REMARK    3  A    between atoms: O_2  and  C_18 
REMARK    4  A    between atoms: C_7  and  C_10 
REMARK    5  A    between atoms: C_10  and  C_14 
REMARK    6  A    between atoms: C_10  and  C_15 
REMARK    7  A    between atoms: C_18  and  C_21 
ROOT
HETATM    1  C   UNK N   1      35.220  12.218  15.115  0.00  0.00     0.176 C 
ENDROOT
BRANCH   1   2
HETATM    2  O   UNK N   1      33.856  12.260  14.791  0.00  0.00    -0.374 OA
HETATM    3  H   UNK N   1      33.234  12.902  14.414  0.00  0.00     0.211 HD
ENDBRANCH   1   2
BRANCH   1   4
HETATM    4  C   UNK N   1      35.840  10.883  14.573  0.00  0.00     0.035 C 
HETATM    5  C   UNK N   1      34.795   9.816  14.197  0.00  0.00     0.008 C 
HETATM    6  C   UNK N   1      34.178  10.035  12.799  0.00  0.00     0.001 C 
HETATM    7  C   UNK N   1      34.791  11.208  12.025  0.00  0.00     0.000 C 
HETATM    8  C   UNK N   1      36.315  11.142  12.043  0.00  0.00     0.001 C 
HETATM    9  C   UNK N   1      36.893  10.985  13.454  0.00  0.00     0.008 C 
ENDBRANCH   1   4
BRANCH   1  10
HETATM   10  C   UNK N   1      35.291  12.205  16.638  0.00  0.00    -0.014 A 
HETATM   11  C   UNK N   1      35.669  11.059  17.354  0.00  0.00     0.011 A 
HETATM   12  C   UNK N   1      35.735  11.074  18.750  0.00  0.00     0.001 A 
HETATM   13  C   UNK N   1      35.441  12.245  19.451  0.00  0.00     0.000 A 
HETATM   14  C   UNK N   1      35.082  13.400  18.754  0.00  0.00     0.001 A 
HETATM   15  C   UNK N   1      35.005  13.381  17.358  0.00  0.00     0.011 A 
ENDBRANCH   1  10
BRANCH   1  16
HETATM   16  C   UNK N   1      35.869  13.450  14.454  0.00  0.00     0.299 C 
HETATM   17  O   UNK N   1      36.918  13.868  14.920  0.00  0.00    -0.261 OA
BRANCH  16  18
HETATM   18  O   UNK N   1      35.317  14.152  13.429  0.00  0.00    -0.311 OA
BRANCH  18  19
HETATM   19  C   UNK N   1      35.957  15.002  12.562  0.00  0.00     0.254 C 
BRANCH  19  20
HETATM   20  C   UNK N   1      35.279  14.868  11.228  0.00  0.00     0.099 C 
HETATM   21  N   UNK N   1      36.028  14.497  10.062  0.00  0.00    -0.373 N 
HETATM   22  C   UNK N   1      35.377  14.352   8.774  0.00  0.00     0.125 C 
HETATM   23  C   UNK N   1      37.429  14.187  10.158  0.00  0.00     0.150 C 
HETATM   24  C   UNK N   1      34.071  15.133   8.721  0.00  0.00     0.039 C 
HETATM   25  C   UNK N   1      33.239  14.813   9.951  0.00  0.00     0.122 C 
HETATM   26  N   UNK N   1      34.000  15.015  11.167  0.00  0.00    -0.378 N 
ATOM     27  HN  UNK N   1      33.500  15.287  12.015  1.00  0.00     0.160 HD
ENDBRANCH  19  20
ENDBRANCH  18  19
ENDBRANCH  16  18
ENDBRANCH   1  16
TORSDOF 7
ENDMDL
MODEL 2
REMARK VINA RESULT:      -6.9      1.655      2.424
REMARK  7 active torsions:
REMARK  status: ('A' for Active; 'I' for Inactive)
REMARK    1  A    between atoms: O_1  and  C_10 
REMARK    2  A    between atoms: O_2  and  C_15 
REMARK    3  A    between atoms: O_2  and  C_18 
REMARK    4  A    between atoms: C_7  and  C_10 
REMARK    5  A    between atoms: C_10  and  C_14 
REMARK    6  A    between atoms: C_10  and  C_15 
REMARK    7  A    between atoms: C_18  and  C_21 
ROOT
HETATM    1  C   UNK N   1      35.784  12.487  14.577  0.00  0.00     0.176 C 
ENDROOT
BRANCH   1   2
HETATM    2  O   UNK N   1      34.895  13.104  13.684  0.00  0.00    -0.374 OA
HETATM    3  H   UNK N   1      34.934  13.797  13.006  0.00  0.00     0.211 HD
ENDBRANCH   1   2
BRANCH   1   4
HETATM    4  C   UNK N   1      35.076  11.258  15.245  0.00  0.00     0.035 C 
HETATM    5  C   UNK N   1      33.642  11.011  14.741  0.00  0.00     0.008 C 
HETATM    6  C   UNK N   1      33.592  10.244  13.401  0.00  0.00     0.001 C 
HETATM    7  C   UNK N   1      34.966   9.799  12.888  0.00  0.00     0.000 C 
HETATM    8  C   UNK N   1      35.764   9.104  13.988  0.00  0.00     0.001 C 
HETATM    9  C   UNK N   1      35.842   9.922  15.281  0.00  0.00     0.008 C 
ENDBRANCH   1   4
BRANCH   1  10
HETATM   10  C   UNK N   1      36.083  13.523  15.655  0.00  0.00    -0.014 A 
HETATM   11  C   UNK N   1      36.994  14.569  15.446  0.00  0.00     0.011 A 
HETATM   12  C   UNK N   1      37.247  15.511  16.447  0.00  0.00     0.001 A 
HETATM   13  C   UNK N   1      36.575  15.431  17.668  0.00  0.00     0.000 A 
HETATM   14  C   UNK N   1      35.651  14.407  17.886  0.00  0.00     0.001 A 
HETATM   15  C   UNK N   1      35.408  13.458  16.889  0.00  0.00     0.011 A 
ENDBRANCH   1  10
BRANCH   1  16
HETATM   16  C   UNK N   1      37.009  12.051  13.749  0.00  0.00     0.299 C 
HETATM   17  O   UNK N   1      38.036  11.766  14.346  0.00  0.00    -0.261 OA
BRANCH  16  18
HETATM   18  O   UNK N   1      37.051  12.030  12.390  0.00  0.00    -0.311 OA
BRANCH  18  19
HETATM   19  C   UNK N   1      37.757  12.869  11.566  0.00  0.00     0.254 C 
BRANCH  19  20
HETATM   20  C   UNK N   1      36.793  13.901  11.052  0.00  0.00     0.099 C 
HETATM   21  N   UNK N   1      36.140  13.725   9.787  0.00  0.00    -0.373 N 
HETATM   22  C   UNK N   1      35.198  14.711   9.292  0.00  0.00     0.125 C 
HETATM   23  C   UNK N   1      36.348  12.530   9.014  0.00  0.00     0.150 C 
HETATM   24  C   UNK N   1      35.426  16.070   9.938  0.00  0.00     0.039 C 
HETATM   25  C   UNK N   1      35.518  15.905  11.445  0.00  0.00     0.122 C 
HETATM   26  N   UNK N   1      36.505  14.907  11.805  0.00  0.00    -0.378 N 
ATOM     27  HN  UNK N   1      36.995  15.005  12.695  1.00  0.00     0.160 HD
ENDBRANCH  19  20
ENDBRANCH  18  19
ENDBRANCH  16  18
ENDBRANCH   1  16
TORSDOF 7
ENDMDL
MODEL 3
REMARK VINA RESULT:      -6.6      1.640      2.740
REMARK  7 active torsions:
REMARK  status: ('A' for Active; 'I' for Inactive)
REMARK    1  A    between atoms: O_1  and  C_10 
REMARK    2  A    between atoms: O_2  and  C_15 
REMARK    3  A    between atoms: O_2  and  C_18 
REMARK    4  A    between atoms: C_7  and  C_10 
REMARK    5  A    between atoms: C_10  and  C_14 
REMARK    6  A    between atoms: C_10  and  C_15 
REMARK    7  A    between atoms: C_18  and  C_21 
ROOT
HETATM    1  C   UNK N   1      35.933  12.846  14.481  0.00  0.00     0.176 C 
ENDROOT
BRANCH   1   2
HETATM    2  O   UNK N   1      34.850  12.016  14.808  0.00  0.00    -0.374 OA
HETATM    3  H   UNK N   1      33.907  11.957  14.588  0.00  0.00     0.211 HD
ENDBRANCH   1   2
BRANCH   1   4
HETATM    4  C   UNK N   1      37.216  11.968  14.279  0.00  0.00     0.035 C 
HETATM    5  C   UNK N   1      37.239  10.688  15.136  0.00  0.00     0.008 C 
HETATM    6  C   UNK N   1      36.417   9.532  14.525  0.00  0.00     0.001 C 
HETATM    7  C   UNK N   1      35.822   9.852  13.149  0.00  0.00     0.000 C 
HETATM    8  C   UNK N   1      36.877  10.442  12.218  0.00  0.00     0.001 C 
HETATM    9  C   UNK N   1      37.630  11.625  12.836  0.00  0.00     0.008 C 
ENDBRANCH   1   4
BRANCH   1  10
HETATM   10  C   UNK N   1      36.147  13.752  15.688  0.00  0.00    -0.014 A 
HETATM   11  C   UNK N   1      37.080  14.800  15.673  0.00  0.00     0.011 A 
HETATM   12  C   UNK N   1      37.254  15.623  16.790  0.00  0.00     0.001 A 
HETATM   13  C   UNK N   1      36.480  15.421  17.934  0.00  0.00     0.000 A 
HETATM   14  C   UNK N   1      35.534  14.395  17.960  0.00  0.00     0.001 A 
HETATM   15  C   UNK N   1      35.369  13.565  16.847  0.00  0.00     0.011 A 
ENDBRANCH   1  10
BRANCH   1  16
HETATM   16  C   UNK N   1      35.546  13.586  13.185  0.00  0.00     0.299 C 
HETATM   17  O   UNK N   1      34.567  13.195  12.569  0.00  0.00    -0.261 OA
BRANCH  16  18
HETATM   18  O   UNK N   1      36.263  14.604  12.639  0.00  0.00    -0.311 OA
BRANCH  18  19
HETATM   19  C   UNK N   1      35.921  15.377  11.558  0.00  0.00     0.254 C 
BRANCH  19  20
HETATM   20  C   UNK N   1      36.579  14.767  10.352  0.00  0.00     0.099 C 
HETATM   21  N   UNK N   1      35.836  14.553   9.144  0.00  0.00    -0.373 N 
HETATM   22  C   UNK N   1      36.469  13.977   7.973  0.00  0.00     0.125 C 
HETATM   23  C   UNK N   1      34.464  14.973   9.042  0.00  0.00     0.150 C 
HETATM   24  C   UNK N   1      37.711  13.180   8.348  0.00  0.00     0.039 C 
HETATM   25  C   UNK N   1      38.590  14.014   9.263  0.00  0.00     0.122 C 
HETATM   26  N   UNK N   1      37.842  14.513  10.400  0.00  0.00    -0.378 N 
ATOM     27  HN  UNK N   1      38.337  14.670  11.278  1.00  0.00     0.160 HD
ENDBRANCH  19  20
ENDBRANCH  18  19
ENDBRANCH  16  18
ENDBRANCH   1  16
TORSDOF 7
ENDMDL
MODEL 4
REMARK VINA RESULT:      -6.6      0.722      1.923
REMARK  7 active torsions:
REMARK  status: ('A' for Active; 'I' for Inactive)
REMARK    1  A    between atoms: O_1  and  C_10 
REMARK    2  A    between atoms: O_2  and  C_15 
REMARK    3  A    between atoms: O_2  and  C_18 
REMARK    4  A    between atoms: C_7  and  C_10 
REMARK    5  A    between atoms: C_10  and  C_14 
REMARK    6  A    between atoms: C_10  and  C_15 
REMARK    7  A    between atoms: C_18  and  C_21 
ROOT
HETATM    1  C   UNK N   1      35.189  12.113  14.677  0.00  0.00     0.176 C 
ENDROOT
BRANCH   1   2
HETATM    2  O   UNK N   1      33.823  12.048  14.362  0.00  0.00    -0.374 OA
HETATM    3  H   UNK N   1      33.107  12.673  14.169  0.00  0.00     0.211 HD
ENDBRANCH   1   2
BRANCH   1   4
HETATM    4  C   UNK N   1      35.891  10.788  14.218  0.00  0.00     0.035 C 
HETATM    5  C   UNK N   1      34.913   9.647  13.880  0.00  0.00     0.008 C 
HETATM    6  C   UNK N   1      34.315   9.760  12.460  0.00  0.00     0.001 C 
HETATM    7  C   UNK N   1      34.880  10.923  11.638  0.00  0.00     0.000 C 
HETATM    8  C   UNK N   1      36.406  10.941  11.687  0.00  0.00     0.001 C 
HETATM    9  C   UNK N   1      36.961  10.889  13.115  0.00  0.00     0.008 C 
ENDBRANCH   1   4
BRANCH   1  10
HETATM   10  C   UNK N   1      35.266  12.204  16.197  0.00  0.00    -0.014 A 
HETATM   11  C   UNK N   1      35.017  13.403  16.883  0.00  0.00     0.011 A 
HETATM   12  C   UNK N   1      35.086  13.460  18.278  0.00  0.00     0.001 A 
HETATM   13  C   UNK N   1      35.388  12.310  19.010  0.00  0.00     0.000 A 
HETATM   14  C   UNK N   1      35.619  11.104  18.346  0.00  0.00     0.001 A 
HETATM   15  C   UNK N   1      35.562  11.051  16.950  0.00  0.00     0.011 A 
ENDBRANCH   1  10
BRANCH   1  16
HETATM   16  C   UNK N   1      35.756  13.339  13.933  0.00  0.00     0.299 C 
HETATM   17  O   UNK N   1      36.841  13.774  14.283  0.00  0.00    -0.261 OA
BRANCH  16  18
HETATM   18  O   UNK N   1      35.096  14.017  12.956  0.00  0.00    -0.311 OA
BRANCH  18  19
HETATM   19  C   UNK N   1      35.540  15.110  12.257  0.00  0.00     0.254 C 
BRANCH  19  20
HETATM   20  C   UNK N   1      36.168  14.601  10.990  0.00  0.00     0.099 C 
HETATM   21  N   UNK N   1      35.409  14.531   9.775  0.00  0.00    -0.373 N 
HETATM   22  C   UNK N   1      36.013  14.053   8.546  0.00  0.00     0.125 C 
HETATM   23  C   UNK N   1      34.052  15.004   9.730  0.00  0.00     0.150 C 
HETATM   24  C   UNK N   1      37.230  13.183   8.828  0.00  0.00     0.039 C 
HETATM   25  C   UNK N   1      38.144  13.894   9.810  0.00  0.00     0.122 C 
HETATM   26  N   UNK N   1      37.422  14.302  10.999  0.00  0.00    -0.378 N 
ATOM     27  HN  UNK N   1      37.929  14.356  11.882  1.00  0.00     0.160 HD
ENDBRANCH  19  20
ENDBRANCH  18  19
ENDBRANCH  16  18
ENDBRANCH   1  16
TORSDOF 7
ENDMDL
MODEL 5
REMARK VINA RESULT:      -6.6     20.508     23.621
REMARK  7 active torsions:
REMARK  status: ('A' for Active; 'I' for Inactive)
REMARK    1  A    between atoms: O_1  and  C_10 
REMARK    2  A    between atoms: O_2  and  C_15 
REMARK    3  A    between atoms: O_2  and  C_18 
REMARK    4  A    between atoms: C_7  and  C_10 
REMARK    5  A    between atoms: C_10  and  C_14 
REMARK    6  A    between atoms: C_10  and  C_15 
REMARK    7  A    between atoms: C_18  and  C_21 
ROOT
HETATM    1  C   UNK N   1      26.929  24.593  -4.540  0.00  0.00     0.176 C 
ENDROOT
BRANCH   1   2
HETATM    2  O   UNK N   1      25.604  24.687  -4.087  0.00  0.00    -0.374 OA
HETATM    3  H   UNK N   1      24.916  25.369  -4.035  0.00  0.00     0.211 HD
ENDBRANCH   1   2
BRANCH   1   4
HETATM    4  C   UNK N   1      27.392  25.991  -5.079  0.00  0.00     0.035 C 
HETATM    5  C   UNK N   1      27.108  26.209  -6.577  0.00  0.00     0.008 C 
HETATM    6  C   UNK N   1      25.653  26.640  -6.864  0.00  0.00     0.001 C 
HETATM    7  C   UNK N   1      24.809  26.857  -5.603  0.00  0.00     0.000 C 
HETATM    8  C   UNK N   1      25.543  27.735  -4.594  0.00  0.00     0.001 C 
HETATM    9  C   UNK N   1      26.962  27.242  -4.290  0.00  0.00     0.008 C 
ENDBRANCH   1   4
BRANCH   1  10
HETATM   10  C   UNK N   1      26.907  23.606  -5.702  0.00  0.00    -0.014 A 
HETATM   11  C   UNK N   1      28.087  23.121  -6.286  0.00  0.00     0.011 A 
HETATM   12  C   UNK N   1      28.042  22.210  -7.344  0.00  0.00     0.001 A 
HETATM   13  C   UNK N   1      26.813  21.755  -7.823  0.00  0.00     0.000 A 
HETATM   14  C   UNK N   1      25.629  22.211  -7.241  0.00  0.00     0.001 A 
HETATM   15  C   UNK N   1      25.674  23.132  -6.190  0.00  0.00     0.011 A 
ENDBRANCH   1  10
BRANCH   1  16
HETATM   16  C   UNK N   1      27.777  24.145  -3.334  0.00  0.00     0.299 C 
HETATM   17  O   UNK N   1      27.202  23.646  -2.379  0.00  0.00    -0.261 OA
BRANCH  16  18
HETATM   18  O   UNK N   1      29.120  24.331  -3.227  0.00  0.00    -0.311 OA
BRANCH  18  19
HETATM   19  C   UNK N   1      30.027  23.512  -2.604  0.00  0.00     0.254 C 
BRANCH  19  20
HETATM   20  C   UNK N   1      30.618  22.620  -3.660  0.00  0.00     0.099 C 
HETATM   21  N   UNK N   1      31.540  23.145  -4.626  0.00  0.00    -0.373 N 
HETATM   22  C   UNK N   1      32.124  22.287  -5.640  0.00  0.00     0.125 C 
HETATM   23  C   UNK N   1      31.966  24.517  -4.565  0.00  0.00     0.150 C 
HETATM   24  C   UNK N   1      31.270  21.049  -5.878  0.00  0.00     0.039 C 
HETATM   25  C   UNK N   1      30.931  20.404  -4.545  0.00  0.00     0.122 C 
HETATM   26  N   UNK N   1      30.340  21.363  -3.633  0.00  0.00    -0.378 N 
ATOM     27  HN  UNK N   1      29.674  21.026  -2.937  1.00  0.00     0.160 HD
ENDBRANCH  19  20
ENDBRANCH  18  19
ENDBRANCH  16  18
ENDBRANCH   1  16
TORSDOF 7
ENDMDL
MODEL 6
REMARK VINA RESULT:      -6.4      1.814      2.437
REMARK  7 active torsions:
REMARK  status: ('A' for Active; 'I' for Inactive)
REMARK    1  A    between atoms: O_1  and  C_10 
REMARK    2  A    between atoms: O_2  and  C_15 
REMARK    3  A    between atoms: O_2  and  C_18 
REMARK    4  A    between atoms: C_7  and  C_10 
REMARK    5  A    between atoms: C_10  and  C_14 
REMARK    6  A    between atoms: C_10  and  C_15 
REMARK    7  A    between atoms: C_18  and  C_21 
ROOT
HETATM    1  C   UNK N   1      35.993  12.895  14.080  0.00  0.00     0.176 C 
ENDROOT
BRANCH   1   2
HETATM    2  O   UNK N   1      35.138  11.841  14.437  0.00  0.00    -0.374 OA
HETATM    3  H   UNK N   1      34.182  11.695  14.513  0.00  0.00     0.211 HD
ENDBRANCH   1   2
BRANCH   1   4
HETATM    4  C   UNK N   1      37.383  12.311  13.650  0.00  0.00     0.035 C 
HETATM    5  C   UNK N   1      37.876  11.152  14.537  0.00  0.00     0.008 C 
HETATM    6  C   UNK N   1      37.249   9.791  14.162  0.00  0.00     0.001 C 
HETATM    7  C   UNK N   1      36.339   9.844  12.930  0.00  0.00     0.000 C 
HETATM    8  C   UNK N   1      37.022  10.568  11.773  0.00  0.00     0.001 C 
HETATM    9  C   UNK N   1      37.578  11.940  12.169  0.00  0.00     0.008 C 
ENDBRANCH   1   4
BRANCH   1  10
HETATM   10  C   UNK N   1      36.183  13.728  15.343  0.00  0.00    -0.014 A 
HETATM   11  C   UNK N   1      37.098  14.790  15.401  0.00  0.00     0.011 A 
HETATM   12  C   UNK N   1      37.248  15.545  16.567  0.00  0.00     0.001 A 
HETATM   13  C   UNK N   1      36.470  15.258  17.690  0.00  0.00     0.000 A 
HETATM   14  C   UNK N   1      35.541  14.218  17.645  0.00  0.00     0.001 A 
HETATM   15  C   UNK N   1      35.399  13.455  16.481  0.00  0.00     0.011 A 
ENDBRANCH   1  10
BRANCH   1  16
HETATM   16  C   UNK N   1      35.311  13.642  12.917  0.00  0.00     0.299 C 
HETATM   17  O   UNK N   1      34.496  13.034  12.240  0.00  0.00    -0.261 OA
BRANCH  16  18
HETATM   18  O   UNK N   1      35.607  14.915  12.543  0.00  0.00    -0.311 OA
BRANCH  18  19
HETATM   19  C   UNK N   1      36.475  15.313  11.558  0.00  0.00     0.254 C 
BRANCH  19  20
HETATM   20  C   UNK N   1      35.646  15.685  10.360  0.00  0.00     0.099 C 
HETATM   21  N   UNK N   1      35.624  14.844   9.198  0.00  0.00    -0.373 N 
HETATM   22  C   UNK N   1      34.815  15.191   8.045  0.00  0.00     0.125 C 
HETATM   23  C   UNK N   1      36.345  13.600   9.178  0.00  0.00     0.150 C 
HETATM   24  C   UNK N   1      34.505  16.681   8.011  0.00  0.00     0.039 C 
HETATM   25  C   UNK N   1      33.988  17.121   9.369  0.00  0.00     0.122 C 
HETATM   26  N   UNK N   1      34.896  16.730  10.429  0.00  0.00    -0.378 N 
ATOM     27  HN  UNK N   1      34.943  17.309  11.268  1.00  0.00     0.160 HD
ENDBRANCH  19  20
ENDBRANCH  18  19
ENDBRANCH  16  18
ENDBRANCH   1  16
TORSDOF 7
ENDMDL
MODEL 7
REMARK VINA RESULT:      -6.4     20.755     23.648
REMARK  7 active torsions:
REMARK  status: ('A' for Active; 'I' for Inactive)
REMARK    1  A    between atoms: O_1  and  C_10 
REMARK    2  A    between atoms: O_2  and  C_15 
REMARK    3  A    between atoms: O_2  and  C_18 
REMARK    4  A    between atoms: C_7  and  C_10 
REMARK    5  A    between atoms: C_10  and  C_14 
REMARK    6  A    between atoms: C_10  and  C_15 
REMARK    7  A    between atoms: C_18  and  C_21 
ROOT
HETATM    1  C   UNK N   1      28.018  25.630  -4.802  0.00  0.00     0.176 C 
ENDROOT
BRANCH   1   2
HETATM    2  O   UNK N   1      28.547  26.919  -4.636  0.00  0.00    -0.374 OA
HETATM    3  H   UNK N   1      28.297  27.826  -4.870  0.00  0.00     0.211 HD
ENDBRANCH   1   2
BRANCH   1   4
HETATM    4  C   UNK N   1      26.560  25.591  -4.225  0.00  0.00     0.035 C 
HETATM    5  C   UNK N   1      26.285  26.657  -3.147  0.00  0.00     0.008 C 
HETATM    6  C   UNK N   1      25.958  28.047  -3.737  0.00  0.00     0.001 C 
HETATM    7  C   UNK N   1      25.878  28.070  -5.267  0.00  0.00     0.000 C 
HETATM    8  C   UNK N   1      24.999  26.937  -5.789  0.00  0.00     0.001 C 
HETATM    9  C   UNK N   1      25.393  25.565  -5.229  0.00  0.00     0.008 C 
ENDBRANCH   1   4
BRANCH   1  10
HETATM   10  C   UNK N   1      28.897  24.704  -3.969  0.00  0.00    -0.014 A 
HETATM   11  C   UNK N   1      30.297  24.785  -3.997  0.00  0.00     0.011 A 
HETATM   12  C   UNK N   1      31.082  23.930  -3.218  0.00  0.00     0.001 A 
HETATM   13  C   UNK N   1      30.474  22.991  -2.383  0.00  0.00     0.000 A 
HETATM   14  C   UNK N   1      29.082  22.909  -2.327  0.00  0.00     0.001 A 
HETATM   15  C   UNK N   1      28.298  23.757  -3.116  0.00  0.00     0.011 A 
ENDBRANCH   1  10
BRANCH   1  16
HETATM   16  C   UNK N   1      28.033  25.338  -6.315  0.00  0.00     0.299 C 
HETATM   17  O   UNK N   1      28.255  26.265  -7.079  0.00  0.00    -0.261 OA
BRANCH  16  18
HETATM   18  O   UNK N   1      27.746  24.129  -6.867  0.00  0.00    -0.311 OA
BRANCH  18  19
HETATM   19  C   UNK N   1      28.480  23.446  -7.804  0.00  0.00     0.254 C 
BRANCH  19  20
HETATM   20  C   UNK N   1      29.561  22.707  -7.066  0.00  0.00     0.099 C 
HETATM   21  N   UNK N   1      30.934  23.104  -7.194  0.00  0.00    -0.373 N 
HETATM   22  C   UNK N   1      31.981  22.403  -6.474  0.00  0.00     0.125 C 
HETATM   23  C   UNK N   1      31.296  24.252  -7.980  0.00  0.00     0.150 C 
HETATM   24  C   UNK N   1      31.544  20.997  -6.089  0.00  0.00     0.039 C 
HETATM   25  C   UNK N   1      30.177  21.054  -5.429  0.00  0.00     0.122 C 
HETATM   26  N   UNK N   1      29.223  21.763  -6.258  0.00  0.00    -0.378 N 
ATOM     27  HN  UNK N   1      28.238  21.502  -6.198  1.00  0.00     0.160 HD
ENDBRANCH  19  20
ENDBRANCH  18  19
ENDBRANCH  16  18
ENDBRANCH   1  16
TORSDOF 7
ENDMDL
MODEL 8
REMARK VINA RESULT:      -6.3      1.516      4.045
REMARK  7 active torsions:
REMARK  status: ('A' for Active; 'I' for Inactive)
REMARK    1  A    between atoms: O_1  and  C_10 
REMARK    2  A    between atoms: O_2  and  C_15 
REMARK    3  A    between atoms: O_2  and  C_18 
REMARK    4  A    between atoms: C_7  and  C_10 
REMARK    5  A    between atoms: C_10  and  C_14 
REMARK    6  A    between atoms: C_10  and  C_15 
REMARK    7  A    between atoms: C_18  and  C_21 
ROOT
HETATM    1  C   UNK N   1      35.502  11.630  13.660  0.00  0.00     0.176 C 
ENDROOT
BRANCH   1   2
HETATM    2  O   UNK N   1      36.695  11.329  14.334  0.00  0.00    -0.374 OA
HETATM    3  H   UNK N   1      36.953  10.899  15.164  0.00  0.00     0.211 HD
ENDBRANCH   1   2
BRANCH   1   4
HETATM    4  C   UNK N   1      34.369  11.903  14.709  0.00  0.00     0.035 C 
HETATM    5  C   UNK N   1      33.764  10.626  15.322  0.00  0.00     0.008 C 
HETATM    6  C   UNK N   1      34.614  10.042  16.472  0.00  0.00     0.001 C 
HETATM    7  C   UNK N   1      35.835  10.894  16.837  0.00  0.00     0.000 C 
HETATM    8  C   UNK N   1      35.449  12.360  17.015  0.00  0.00     0.001 C 
HETATM    9  C   UNK N   1      34.658  12.921  15.828  0.00  0.00     0.008 C 
ENDBRANCH   1   4
BRANCH   1  10
HETATM   10  C   UNK N   1      35.140  10.380  12.865  0.00  0.00    -0.014 A 
HETATM   11  C   UNK N   1      35.821   9.166  13.041  0.00  0.00     0.011 A 
HETATM   12  C   UNK N   1      35.465   8.031  12.306  0.00  0.00     0.001 A 
HETATM   13  C   UNK N   1      34.408   8.090  11.397  0.00  0.00     0.000 A 
HETATM   14  C   UNK N   1      33.706   9.285  11.224  0.00  0.00     0.001 A 
HETATM   15  C   UNK N   1      34.070  10.423  11.950  0.00  0.00     0.011 A 
ENDBRANCH   1  10
BRANCH   1  16
HETATM   16  C   UNK N   1      35.784  12.877  12.798  0.00  0.00     0.299 C 
HETATM   17  O   UNK N   1      36.934  13.080  12.439  0.00  0.00    -0.261 OA
BRANCH  16  18
HETATM   18  O   UNK N   1      34.852  13.810  12.468  0.00  0.00    -0.311 OA
BRANCH  18  19
HETATM   19  C   UNK N   1      35.064  15.014  11.843  0.00  0.00     0.254 C 
BRANCH  19  20
HETATM   20  C   UNK N   1      34.313  14.975  10.542  0.00  0.00     0.099 C 
HETATM   21  N   UNK N   1      35.000  14.715   9.310  0.00  0.00    -0.373 N 
HETATM   22  C   UNK N   1      34.279  14.663   8.052  0.00  0.00     0.125 C 
HETATM   23  C   UNK N   1      36.408  14.426   9.301  0.00  0.00     0.150 C 
HETATM   24  C   UNK N   1      32.960  15.420   8.137  0.00  0.00     0.039 C 
HETATM   25  C   UNK N   1      32.205  14.984   9.380  0.00  0.00     0.122 C 
HETATM   26  N   UNK N   1      33.031  15.101  10.565  0.00  0.00    -0.378 N 
ATOM     27  HN  UNK N   1      32.576  15.293  11.458  1.00  0.00     0.160 HD
ENDBRANCH  19  20
ENDBRANCH  18  19
ENDBRANCH  16  18
ENDBRANCH   1  16
TORSDOF 7
ENDMDL
MODEL 9
REMARK VINA RESULT:      -6.2      1.477      4.286
REMARK  7 active torsions:
REMARK  status: ('A' for Active; 'I' for Inactive)
REMARK    1  A    between atoms: O_1  and  C_10 
REMARK    2  A    between atoms: O_2  and  C_15 
REMARK    3  A    between atoms: O_2  and  C_18 
REMARK    4  A    between atoms: C_7  and  C_10 
REMARK    5  A    between atoms: C_10  and  C_14 
REMARK    6  A    between atoms: C_10  and  C_15 
REMARK    7  A    between atoms: C_18  and  C_21 
ROOT
HETATM    1  C   UNK N   1      35.980  12.706  14.204  0.00  0.00     0.176 C 
ENDROOT
BRANCH   1   2
HETATM    2  O   UNK N   1      37.076  12.443  15.040  0.00  0.00    -0.374 OA
HETATM    3  H   UNK N   1      37.939  12.006  14.965  0.00  0.00     0.211 HD
ENDBRANCH   1   2
BRANCH   1   4
HETATM    4  C   UNK N   1      34.652  12.489  15.008  0.00  0.00     0.035 C 
HETATM    5  C   UNK N   1      34.154  11.031  15.011  0.00  0.00     0.008 C 
HETATM    6  C   UNK N   1      34.869  10.146  16.056  0.00  0.00     0.001 C 
HETATM    7  C   UNK N   1      35.858  10.909  16.944  0.00  0.00     0.000 C 
HETATM    8  C   UNK N   1      35.224  12.176  17.512  0.00  0.00     0.001 C 
HETATM    9  C   UNK N   1      34.578  13.057  16.437  0.00  0.00     0.008 C 
ENDBRANCH   1   4
BRANCH   1  10
HETATM   10  C   UNK N   1      36.048  11.673  13.085  0.00  0.00    -0.014 A 
HETATM   11  C   UNK N   1      35.044  11.569  12.109  0.00  0.00     0.011 A 
HETATM   12  C   UNK N   1      35.132  10.618  11.088  0.00  0.00     0.001 A 
HETATM   13  C   UNK N   1      36.237   9.769  11.017  0.00  0.00     0.000 A 
HETATM   14  C   UNK N   1      37.254   9.871  11.968  0.00  0.00     0.001 A 
HETATM   15  C   UNK N   1      37.160  10.814  12.996  0.00  0.00     0.011 A 
ENDBRANCH   1  10
BRANCH   1  16
HETATM   16  C   UNK N   1      36.123  14.168  13.735  0.00  0.00     0.299 C 
HETATM   17  O   UNK N   1      36.758  14.939  14.438  0.00  0.00    -0.261 OA
BRANCH  16  18
HETATM   18  O   UNK N   1      35.528  14.680  12.625  0.00  0.00    -0.311 OA
BRANCH  18  19
HETATM   19  C   UNK N   1      36.096  15.491  11.675  0.00  0.00     0.254 C 
BRANCH  19  20
HETATM   20  C   UNK N   1      36.644  14.596  10.599  0.00  0.00     0.099 C 
HETATM   21  N   UNK N   1      36.017  14.535   9.311  0.00  0.00    -0.373 N 
HETATM   22  C   UNK N   1      36.548  13.684   8.263  0.00  0.00     0.125 C 
HETATM   23  C   UNK N   1      34.890  15.374   9.003  0.00  0.00     0.150 C 
HETATM   24  C   UNK N   1      37.396  12.558   8.840  0.00  0.00     0.039 C 
HETATM   25  C   UNK N   1      38.393  13.132   9.831  0.00  0.00     0.122 C 
HETATM   26  N   UNK N   1      37.732  13.946  10.831  0.00  0.00    -0.378 N 
ATOM     27  HN  UNK N   1      38.146  14.006  11.762  1.00  0.00     0.160 HD
ENDBRANCH  19  20
ENDBRANCH  18  19
ENDBRANCH  16  18
ENDBRANCH   1  16
TORSDOF 7
ENDMDL
