REMARK  7 active torsions:
REMARK  status: ('A' for Active; 'I' for Inactive)
REMARK    1  A    between atoms: O_1  and  C_10 
REMARK    2  A    between atoms: O_2  and  C_15 
REMARK    3  A    between atoms: O_2  and  C_18 
REMARK    4  A    between atoms: C_7  and  C_10 
REMARK    5  A    between atoms: C_10  and  C_14 
REMARK    6  A    between atoms: C_10  and  C_15 
REMARK    7  A    between atoms: C_18  and  C_21 
ROOT
HETATM    1  C   UNK N   1       2.529   0.650   0.467  0.00  0.00     0.176 C 
ENDROOT
BRANCH   1   2
HETATM    2  O   UNK N   1       1.636   1.155   1.424  0.00  0.00    -0.374 OA
HETATM    3  H   UNK N   1       1.629   1.864   2.086  0.00  0.00     0.211 HD
ENDBRANCH   1   2
BRANCH   1   4
HETATM    4  C   UNK N   1       2.384   1.471  -0.861  0.00  0.00     0.035 C 
HETATM    5  C   UNK N   1       1.016   2.160  -1.024  0.00  0.00     0.008 C 
HETATM    6  C   UNK N   1       0.911   3.493  -0.251  0.00  0.00     0.001 C 
HETATM    7  C   UNK N   1       2.211   3.913   0.444  0.00  0.00     0.000 C 
HETATM    8  C   UNK N   1       3.398   3.825  -0.511  0.00  0.00     0.001 C 
HETATM    9  C   UNK N   1       3.504   2.467  -1.214  0.00  0.00     0.008 C 
ENDBRANCH   1   4
BRANCH   1  10
HETATM   10  C   UNK N   1       2.093  -0.787   0.202  0.00  0.00    -0.014 A 
HETATM   11  C   UNK N   1       2.943  -1.877   0.443  0.00  0.00     0.011 A 
HETATM   12  C   UNK N   1       2.518  -3.186   0.200  0.00  0.00     0.001 A 
HETATM   13  C   UNK N   1       1.226  -3.425  -0.271  0.00  0.00     0.000 A 
HETATM   14  C   UNK N   1       0.360  -2.354  -0.498  0.00  0.00     0.001 A 
HETATM   15  C   UNK N   1       0.790  -1.044  -0.266  0.00  0.00     0.011 A 
ENDBRANCH   1  10
BRANCH   1  16
HETATM   16  C   UNK N   1       3.943   0.790   1.065  0.00  0.00     0.299 C 
HETATM   17  O   UNK N   1       4.053   1.294   2.172  0.00  0.00    -0.261 OA
BRANCH  16  18
HETATM   18  O   UNK N   1       5.089   0.456   0.414  0.00  0.00    -0.311 OA
BRANCH  18  19
HETATM   19  C   UNK N   1       5.207  -0.269  -0.745  0.00  0.00     0.254 C 
BRANCH  19  20
HETATM   20  C   UNK N   1       6.203  -1.364  -0.483  0.00  0.00     0.099 C 
HETATM   21  N   UNK N   1       7.596  -1.166  -0.762  0.00  0.00    -0.373 N 
HETATM   22  C   UNK N   1       8.564  -2.214  -0.499  0.00  0.00     0.125 C 
HETATM   23  C   UNK N   1       8.076   0.103  -1.239  0.00  0.00     0.150 C 
HETATM   24  C   UNK N   1       7.901  -3.584  -0.457  0.00  0.00     0.039 C 
HETATM   25  C   UNK N   1       6.684  -3.530   0.450  0.00  0.00     0.122 C 
HETATM   26  N   UNK N   1       5.792  -2.453   0.069  0.00  0.00    -0.378 N 
ATOM     27  HN  UNK N   1       4.793  -2.563   0.246  1.00  0.00     0.160 HD
ENDBRANCH  19  20
ENDBRANCH  18  19
ENDBRANCH  16  18
ENDBRANCH   1  16
TORSDOF 7
