MODEL 1
REMARK VINA RESULT:      -7.1      0.000      0.000
REMARK  3 active torsions:
REMARK  status: ('A' for Active; 'I' for Inactive)
REMARK    1  A    between atoms: N_9  and  C_16 
REMARK    2  A    between atoms: N_10  and  C_17 
REMARK       I    between atoms: N_11  and  C_20 
REMARK    3  A    between atoms: C_12  and  C_14 
ROOT
HETATM    1  N   UNK N   1      34.454  13.541  11.622  0.00  0.00    -0.346 N 
ATOM      2  HN  UNK N   1      33.815  12.798  11.336  1.00  0.00     0.166 HD
HETATM    3  N   UNK N   1      36.158  15.546  12.372  0.00  0.00    -0.325 N 
ATOM      4  HN  UNK N   1      36.792  16.296  12.648  1.00  0.00     0.169 HD
HETATM    5  N   UNK N   1      35.402  16.862  10.566  0.00  0.00    -0.174 N 
ATOM      6  HN  UNK N   1      36.036  17.611  10.843  1.00  0.00     0.186 HD
HETATM    7  N   UNK N   1      33.749  16.031   9.096  0.00  0.00    -0.175 N 
ATOM      8  HN  UNK N   1      33.155  16.166   8.278  1.00  0.00     0.186 HD
HETATM    9  N   UNK N   1      34.653  18.222   8.740  0.00  0.00    -0.234 N 
HETATM   10  C   UNK N   1      35.241  13.351  12.714  0.00  0.00     0.087 A 
HETATM   11  C   UNK N   1      34.493  14.686  10.906  0.00  0.00     0.122 A 
HETATM   12  C   UNK N   1      35.362  15.711  11.286  0.00  0.00     0.153 A 
HETATM   13  C   UNK N   1      36.125  14.395  13.101  0.00  0.00     0.128 A 
HETATM   14  C   UNK N   1      33.680  14.866   9.790  0.00  0.00     0.145 A 
HETATM   15  C   UNK N   1      34.601  17.023   9.477  0.00  0.00     0.679 A 
HETATM   16  H   UNK N   1      34.075  18.340   7.953  0.00  0.00     0.174 HD
HETATM   17  H   UNK N   1      35.267  18.940   9.013  0.00  0.00     0.174 HD
ENDROOT
BRANCH  10  18
HETATM   18  C   UNK N   1      35.117  12.057  13.426  0.00  0.00    -0.006 A 
HETATM   19  C   UNK N   1      35.928  10.984  13.018  0.00  0.00     0.014 A 
HETATM   20  C   UNK N   1      35.848   9.748  13.656  0.00  0.00     0.001 A 
HETATM   21  C   UNK N   1      34.955   9.568  14.712  0.00  0.00     0.000 A 
HETATM   22  C   UNK N   1      34.142  10.626  15.129  0.00  0.00     0.001 A 
HETATM   23  C   UNK N   1      34.223  11.865  14.489  0.00  0.00     0.014 A 
ENDBRANCH  10  18
BRANCH  13  24
HETATM   24  N   UNK N   1      36.974  14.273  14.222  0.00  0.00    -0.384 N 
HETATM   25  H   UNK N   1      37.941  14.422  14.125  0.00  0.00     0.157 HD
HETATM   26  H   UNK N   1      36.597  14.038  15.101  0.00  0.00     0.157 HD
ENDBRANCH  13  24
BRANCH  14  27
HETATM   27  N   UNK N   1      32.791  13.851   9.378  0.00  0.00    -0.383 N 
HETATM   28  H   UNK N   1      32.233  13.385  10.042  0.00  0.00     0.157 HD
HETATM   29  H   UNK N   1      32.729  13.608   8.426  0.00  0.00     0.157 HD
ENDBRANCH  14  27
TORSDOF 3
ENDMDL
MODEL 2
REMARK VINA RESULT:      -6.8      2.591      6.936
REMARK  3 active torsions:
REMARK  status: ('A' for Active; 'I' for Inactive)
REMARK    1  A    between atoms: N_9  and  C_16 
REMARK    2  A    between atoms: N_10  and  C_17 
REMARK       I    between atoms: N_11  and  C_20 
REMARK    3  A    between atoms: C_12  and  C_14 
ROOT
HETATM    1  N   UNK N   1      33.904  15.373   8.918  0.00  0.00    -0.346 N 
ATOM      2  HN  UNK N   1      33.344  14.653   8.461  1.00  0.00     0.166 HD
HETATM    3  N   UNK N   1      35.412  17.291  10.159  0.00  0.00    -0.325 N 
ATOM      4  HN  UNK N   1      35.975  18.002  10.624  1.00  0.00     0.169 HD
HETATM    5  N   UNK N   1      36.073  15.715  11.786  0.00  0.00    -0.174 N 
ATOM      6  HN  UNK N   1      36.636  16.428  12.251  1.00  0.00     0.186 HD
HETATM    7  N   UNK N   1      35.282  13.491  11.682  0.00  0.00    -0.175 N 
ATOM      8  HN  UNK N   1      35.259  12.549  12.072  1.00  0.00     0.186 HD
HETATM    9  N   UNK N   1      36.761  14.137  13.453  0.00  0.00    -0.234 N 
HETATM   10  C   UNK N   1      33.928  16.625   8.390  0.00  0.00     0.087 A 
HETATM   11  C   UNK N   1      34.601  15.056  10.031  0.00  0.00     0.122 A 
HETATM   12  C   UNK N   1      35.372  16.033  10.667  0.00  0.00     0.153 A 
HETATM   13  C   UNK N   1      34.713  17.619   9.037  0.00  0.00     0.128 A 
HETATM   14  C   UNK N   1      34.567  13.770  10.562  0.00  0.00     0.145 A 
HETATM   15  C   UNK N   1      36.029  14.451  12.292  0.00  0.00     0.679 A 
HETATM   16  H   UNK N   1      36.731  13.224  13.820  0.00  0.00     0.174 HD
HETATM   17  H   UNK N   1      37.302  14.829  13.896  0.00  0.00     0.174 HD
ENDROOT
BRANCH  10  18
HETATM   18  C   UNK N   1      33.126  16.863   7.166  0.00  0.00    -0.006 A 
HETATM   19  C   UNK N   1      33.799  17.055   5.947  0.00  0.00     0.014 A 
HETATM   20  C   UNK N   1      33.090  17.282   4.769  0.00  0.00     0.001 A 
HETATM   21  C   UNK N   1      31.696  17.319   4.795  0.00  0.00     0.000 A 
HETATM   22  C   UNK N   1      31.013  17.130   5.999  0.00  0.00     0.001 A 
HETATM   23  C   UNK N   1      31.725  16.903   7.179  0.00  0.00     0.014 A 
ENDBRANCH  10  18
BRANCH  13  24
HETATM   24  N   UNK N   1      34.788  18.940   8.549  0.00  0.00    -0.384 N 
HETATM   25  H   UNK N   1      35.621  19.454   8.644  0.00  0.00     0.157 HD
HETATM   26  H   UNK N   1      34.006  19.349   8.112  0.00  0.00     0.157 HD
ENDBRANCH  13  24
BRANCH  14  27
HETATM   27  N   UNK N   1      33.799  12.759   9.945  0.00  0.00    -0.383 N 
HETATM   28  H   UNK N   1      33.533  11.961  10.456  0.00  0.00     0.157 HD
HETATM   29  H   UNK N   1      33.530  12.853   9.003  0.00  0.00     0.157 HD
ENDBRANCH  14  27
TORSDOF 3
ENDMDL
MODEL 3
REMARK VINA RESULT:      -6.6      7.336     11.189
REMARK  3 active torsions:
REMARK  status: ('A' for Active; 'I' for Inactive)
REMARK    1  A    between atoms: N_9  and  C_16 
REMARK    2  A    between atoms: N_10  and  C_17 
REMARK       I    between atoms: N_11  and  C_20 
REMARK    3  A    between atoms: C_12  and  C_14 
ROOT
HETATM    1  N   UNK N   1      28.477  18.128   6.540  0.00  0.00    -0.346 N 
ATOM      2  HN  UNK N   1      27.741  18.660   7.004  1.00  0.00     0.166 HD
HETATM    3  N   UNK N   1      30.464  16.698   5.316  0.00  0.00    -0.325 N 
ATOM      4  HN  UNK N   1      31.206  16.164   4.863  1.00  0.00     0.169 HD
HETATM    5  N   UNK N   1      31.447  16.269   7.416  0.00  0.00    -0.174 N 
ATOM      6  HN  UNK N   1      32.189  15.735   6.963  1.00  0.00     0.186 HD
HETATM    7  N   UNK N   1      30.463  17.118   9.389  0.00  0.00    -0.175 N 
ATOM      8  HN  UNK N   1      30.476  17.215  10.405  1.00  0.00     0.186 HD
HETATM    9  N   UNK N   1      32.470  15.816   9.537  0.00  0.00    -0.234 N 
HETATM   10  C   UNK N   1      28.452  18.006   5.187  0.00  0.00     0.087 A 
HETATM   11  C   UNK N   1      29.452  17.565   7.288  0.00  0.00     0.122 A 
HETATM   12  C   UNK N   1      30.468  16.834   6.666  0.00  0.00     0.153 A 
HETATM   13  C   UNK N   1      29.485  17.262   4.554  0.00  0.00     0.128 A 
HETATM   14  C   UNK N   1      29.466  17.699   8.674  0.00  0.00     0.145 A 
HETATM   15  C   UNK N   1      31.447  16.409   8.772  0.00  0.00     0.679 A 
HETATM   16  H   UNK N   1      32.471  15.916  10.516  0.00  0.00     0.174 HD
HETATM   17  H   UNK N   1      33.182  15.303   9.092  0.00  0.00     0.174 HD
ENDROOT
BRANCH  10  18
HETATM   18  C   UNK N   1      27.336  18.664   4.465  0.00  0.00    -0.006 A 
HETATM   19  C   UNK N   1      26.140  17.950   4.281  0.00  0.00     0.014 A 
HETATM   20  C   UNK N   1      25.063  18.525   3.610  0.00  0.00     0.001 A 
HETATM   21  C   UNK N   1      25.168  19.823   3.113  0.00  0.00     0.000 A 
HETATM   22  C   UNK N   1      26.352  20.545   3.288  0.00  0.00     0.001 A 
HETATM   23  C   UNK N   1      27.431  19.969   3.961  0.00  0.00     0.014 A 
ENDBRANCH  10  18
BRANCH  13  24
HETATM   24  N   UNK N   1      29.526  17.091   3.154  0.00  0.00    -0.384 N 
HETATM   25  H   UNK N   1      30.047  16.353   2.764  0.00  0.00     0.157 HD
HETATM   26  H   UNK N   1      29.033  17.709   2.568  0.00  0.00     0.157 HD
ENDBRANCH  13  24
BRANCH  14  27
HETATM   27  N   UNK N   1      28.457  18.430   9.334  0.00  0.00    -0.383 N 
HETATM   28  H   UNK N   1      27.711  18.817   8.820  0.00  0.00     0.157 HD
HETATM   29  H   UNK N   1      28.497  18.553  10.310  0.00  0.00     0.157 HD
ENDBRANCH  14  27
TORSDOF 3
ENDMDL
MODEL 4
REMARK VINA RESULT:      -6.4      2.723      6.843
REMARK  3 active torsions:
REMARK  status: ('A' for Active; 'I' for Inactive)
REMARK    1  A    between atoms: N_9  and  C_16 
REMARK    2  A    between atoms: N_10  and  C_17 
REMARK       I    between atoms: N_11  and  C_20 
REMARK    3  A    between atoms: C_12  and  C_14 
ROOT
HETATM    1  N   UNK N   1      35.427  14.979   8.856  0.00  0.00    -0.346 N 
ATOM      2  HN  UNK N   1      36.118  14.992   8.107  1.00  0.00     0.166 HD
HETATM    3  N   UNK N   1      33.587  14.935  10.883  0.00  0.00    -0.325 N 
ATOM      4  HN  UNK N   1      32.905  14.918  11.640  1.00  0.00     0.169 HD
HETATM    5  N   UNK N   1      35.240  14.134  12.363  0.00  0.00    -0.174 N 
ATOM      6  HN  UNK N   1      34.556  14.117  13.120  1.00  0.00     0.186 HD
HETATM    7  N   UNK N   1      37.444  13.762  11.600  0.00  0.00    -0.175 N 
ATOM      8  HN  UNK N   1      38.402  13.466  11.793  1.00  0.00     0.186 HD
HETATM    9  N   UNK N   1      36.897  13.319  13.891  0.00  0.00    -0.234 N 
HETATM   10  C   UNK N   1      34.154  15.374   8.589  0.00  0.00     0.087 A 
HETATM   11  C   UNK N   1      35.801  14.569  10.089  0.00  0.00     0.122 A 
HETATM   12  C   UNK N   1      34.864  14.546  11.125  0.00  0.00     0.153 A 
HETATM   13  C   UNK N   1      33.201  15.350   9.643  0.00  0.00     0.128 A 
HETATM   14  C   UNK N   1      37.108  14.167  10.349  0.00  0.00     0.145 A 
HETATM   15  C   UNK N   1      36.523  13.743  12.602  0.00  0.00     0.679 A 
HETATM   16  H   UNK N   1      37.823  13.037  14.065  0.00  0.00     0.174 HD
HETATM   17  H   UNK N   1      36.233  13.305  14.617  0.00  0.00     0.174 HD
ENDROOT
BRANCH  10  18
HETATM   18  C   UNK N   1      33.853  15.804   7.203  0.00  0.00    -0.006 A 
HETATM   19  C   UNK N   1      33.574  14.820   6.238  0.00  0.00     0.014 A 
HETATM   20  C   UNK N   1      33.285  15.175   4.922  0.00  0.00     0.001 A 
HETATM   21  C   UNK N   1      33.271  16.519   4.552  0.00  0.00     0.000 A 
HETATM   22  C   UNK N   1      33.546  17.508   5.500  0.00  0.00     0.001 A 
HETATM   23  C   UNK N   1      33.836  17.153   6.819  0.00  0.00     0.014 A 
ENDBRANCH  10  18
BRANCH  13  24
HETATM   24  N   UNK N   1      31.862  15.745   9.443  0.00  0.00    -0.384 N 
HETATM   25  H   UNK N   1      31.173  15.503  10.103  0.00  0.00     0.157 HD
HETATM   26  H   UNK N   1      31.616  16.264   8.643  0.00  0.00     0.157 HD
ENDBRANCH  13  24
BRANCH  14  27
HETATM   27  N   UNK N   1      38.079  14.178   9.326  0.00  0.00    -0.383 N 
HETATM   28  H   UNK N   1      38.950  13.740   9.467  0.00  0.00     0.157 HD
HETATM   29  H   UNK N   1      37.887  14.623   8.469  0.00  0.00     0.157 HD
ENDBRANCH  14  27
TORSDOF 3
ENDMDL
MODEL 5
REMARK VINA RESULT:      -6.4      6.757     10.495
REMARK  3 active torsions:
REMARK  status: ('A' for Active; 'I' for Inactive)
REMARK    1  A    between atoms: N_9  and  C_16 
REMARK    2  A    between atoms: N_10  and  C_17 
REMARK       I    between atoms: N_11  and  C_20 
REMARK    3  A    between atoms: C_12  and  C_14 
ROOT
HETATM    1  N   UNK N   1      29.584  17.540   5.987  0.00  0.00    -0.346 N 
ATOM      2  HN  UNK N   1      29.668  17.267   5.007  1.00  0.00     0.166 HD
HETATM    3  N   UNK N   1      29.379  18.261   8.619  0.00  0.00    -0.325 N 
ATOM      4  HN  UNK N   1      29.307  18.527   9.601  1.00  0.00     0.169 HD
HETATM    5  N   UNK N   1      31.388  17.117   9.087  0.00  0.00    -0.174 N 
ATOM      6  HN  UNK N   1      31.315  17.384  10.069  1.00  0.00     0.186 HD
HETATM    7  N   UNK N   1      32.555  16.002   7.361  0.00  0.00    -0.175 N 
ATOM      8  HN  UNK N   1      33.352  15.439   7.061  1.00  0.00     0.186 HD
HETATM    9  N   UNK N   1      33.428  15.962   9.593  0.00  0.00    -0.234 N 
HETATM   10  C   UNK N   1      28.520  18.290   6.375  0.00  0.00     0.087 A 
HETATM   11  C   UNK N   1      30.535  17.146   6.862  0.00  0.00     0.122 A 
HETATM   12  C   UNK N   1      30.433  17.512   8.207  0.00  0.00     0.153 A 
HETATM   13  C   UNK N   1      28.416  18.663   7.743  0.00  0.00     0.128 A 
HETATM   14  C   UNK N   1      31.621  16.378   6.451  0.00  0.00     0.145 A 
HETATM   15  C   UNK N   1      32.445  16.365   8.668  0.00  0.00     0.679 A 
HETATM   16  H   UNK N   1      34.191  15.419   9.292  0.00  0.00     0.174 HD
HETATM   17  H   UNK N   1      33.350  16.224  10.538  0.00  0.00     0.174 HD
ENDROOT
BRANCH  10  18
HETATM   18  C   UNK N   1      27.536  18.667   5.332  0.00  0.00    -0.006 A 
HETATM   19  C   UNK N   1      27.750  19.848   4.600  0.00  0.00     0.014 A 
HETATM   20  C   UNK N   1      26.854  20.244   3.609  0.00  0.00     0.001 A 
HETATM   21  C   UNK N   1      25.731  19.464   3.337  0.00  0.00     0.000 A 
HETATM   22  C   UNK N   1      25.505  18.288   4.056  0.00  0.00     0.001 A 
HETATM   23  C   UNK N   1      26.403  17.891   5.049  0.00  0.00     0.014 A 
ENDBRANCH  10  18
BRANCH  13  24
HETATM   24  N   UNK N   1      27.340  19.440   8.222  0.00  0.00    -0.384 N 
HETATM   25  H   UNK N   1      26.520  19.528   7.687  0.00  0.00     0.157 HD
HETATM   26  H   UNK N   1      27.411  19.894   9.093  0.00  0.00     0.157 HD
ENDBRANCH  13  24
BRANCH  14  27
HETATM   27  N   UNK N   1      31.755  15.990   5.101  0.00  0.00    -0.383 N 
HETATM   28  H   UNK N   1      31.724  16.669   4.388  0.00  0.00     0.157 HD
HETATM   29  H   UNK N   1      31.878  15.041   4.871  0.00  0.00     0.157 HD
ENDBRANCH  14  27
TORSDOF 3
ENDMDL
MODEL 6
REMARK VINA RESULT:      -6.3     14.185     16.443
REMARK  3 active torsions:
REMARK  status: ('A' for Active; 'I' for Inactive)
REMARK    1  A    between atoms: N_9  and  C_16 
REMARK    2  A    between atoms: N_10  and  C_17 
REMARK       I    between atoms: N_11  and  C_20 
REMARK    3  A    between atoms: C_12  and  C_14 
ROOT
HETATM    1  N   UNK N   1      21.594  17.700   4.742  0.00  0.00    -0.346 N 
ATOM      2  HN  UNK N   1      22.470  17.816   5.252  1.00  0.00     0.166 HD
HETATM    3  N   UNK N   1      19.251  17.407   3.358  0.00  0.00    -0.325 N 
ATOM      4  HN  UNK N   1      18.380  17.301   2.839  1.00  0.00     0.169 HD
HETATM    5  N   UNK N   1      19.895  19.149   1.903  0.00  0.00    -0.174 N 
ATOM      6  HN  UNK N   1      19.022  19.042   1.385  1.00  0.00     0.186 HD
HETATM    7  N   UNK N   1      21.966  20.247   2.200  0.00  0.00    -0.175 N 
ATOM      8  HN  UNK N   1      22.633  20.958   1.901  1.00  0.00     0.186 HD
HETATM    9  N   UNK N   1      20.522  20.916   0.409  0.00  0.00    -0.234 N 
HETATM   10  C   UNK N   1      20.713  16.749   5.149  0.00  0.00     0.087 A 
HETATM   11  C   UNK N   1      21.343  18.496   3.679  0.00  0.00     0.122 A 
HETATM   12  C   UNK N   1      20.148  18.349   2.970  0.00  0.00     0.153 A 
HETATM   13  C   UNK N   1      19.496  16.600   4.428  0.00  0.00     0.128 A 
HETATM   14  C   UNK N   1      22.255  19.466   3.273  0.00  0.00     0.145 A 
HETATM   15  C   UNK N   1      20.798  20.094   1.518  0.00  0.00     0.679 A 
HETATM   16  H   UNK N   1      21.173  21.598   0.130  0.00  0.00     0.174 HD
HETATM   17  H   UNK N   1      19.678  20.807  -0.086  0.00  0.00     0.174 HD
ENDROOT
BRANCH  10  18
HETATM   18  C   UNK N   1      21.089  15.932   6.326  0.00  0.00    -0.006 A 
HETATM   19  C   UNK N   1      20.607  16.311   7.591  0.00  0.00     0.014 A 
HETATM   20  C   UNK N   1      20.933  15.574   8.728  0.00  0.00     0.001 A 
HETATM   21  C   UNK N   1      21.747  14.448   8.616  0.00  0.00     0.000 A 
HETATM   22  C   UNK N   1      22.234  14.059   7.365  0.00  0.00     0.001 A 
HETATM   23  C   UNK N   1      21.907  14.797   6.225  0.00  0.00     0.014 A 
ENDBRANCH  10  18
BRANCH  13  24
HETATM   24  N   UNK N   1      18.532  15.636   4.789  0.00  0.00    -0.384 N 
HETATM   25  H   UNK N   1      18.721  14.679   4.662  0.00  0.00     0.157 HD
HETATM   26  H   UNK N   1      17.669  15.921   5.169  0.00  0.00     0.157 HD
ENDBRANCH  13  24
BRANCH  14  27
HETATM   27  N   UNK N   1      23.472  19.642   3.966  0.00  0.00    -0.383 N 
HETATM   28  H   UNK N   1      23.927  20.515   3.949  0.00  0.00     0.157 HD
HETATM   29  H   UNK N   1      23.866  18.891   4.466  0.00  0.00     0.157 HD
ENDBRANCH  14  27
TORSDOF 3
ENDMDL
MODEL 7
REMARK VINA RESULT:      -6.2      7.310     11.043
REMARK  3 active torsions:
REMARK  status: ('A' for Active; 'I' for Inactive)
REMARK    1  A    between atoms: N_9  and  C_16 
REMARK    2  A    between atoms: N_10  and  C_17 
REMARK       I    between atoms: N_11  and  C_20 
REMARK    3  A    between atoms: C_12  and  C_14 
ROOT
HETATM    1  N   UNK N   1      29.895  17.839   4.341  0.00  0.00    -0.346 N 
ATOM      2  HN  UNK N   1      29.828  17.996   3.336  1.00  0.00     0.166 HD
HETATM    3  N   UNK N   1      30.098  17.409   7.037  0.00  0.00    -0.325 N 
ATOM      4  HN  UNK N   1      30.177  17.248   8.040  1.00  0.00     0.169 HD
HETATM    5  N   UNK N   1      32.311  16.646   6.747  0.00  0.00    -0.174 N 
ATOM      6  HN  UNK N   1      32.389  16.484   7.751  1.00  0.00     0.186 HD
HETATM    7  N   UNK N   1      33.277  16.580   4.592  0.00  0.00    -0.175 N 
ATOM      8  HN  UNK N   1      34.077  16.370   3.994  1.00  0.00     0.186 HD
HETATM    9  N   UNK N   1      34.562  15.865   6.483  0.00  0.00    -0.234 N 
HETATM   10  C   UNK N   1      28.824  18.123   5.128  0.00  0.00     0.087 A 
HETATM   11  C   UNK N   1      31.047  17.354   4.855  0.00  0.00     0.122 A 
HETATM   12  C   UNK N   1      31.154  17.133   6.231  0.00  0.00     0.153 A 
HETATM   13  C   UNK N   1      28.933  17.899   6.528  0.00  0.00     0.128 A 
HETATM   14  C   UNK N   1      32.137  17.067   4.037  0.00  0.00     0.145 A 
HETATM   15  C   UNK N   1      33.368  16.370   5.933  0.00  0.00     0.679 A 
HETATM   16  H   UNK N   1      35.326  15.665   5.897  0.00  0.00     0.174 HD
HETATM   17  H   UNK N   1      34.630  15.712   7.453  0.00  0.00     0.174 HD
ENDROOT
BRANCH  10  18
HETATM   18  C   UNK N   1      27.611  18.651   4.460  0.00  0.00    -0.006 A 
HETATM   19  C   UNK N   1      26.592  17.751   4.105  0.00  0.00     0.014 A 
HETATM   20  C   UNK N   1      25.432  18.198   3.476  0.00  0.00     0.001 A 
HETATM   21  C   UNK N   1      25.276  19.555   3.192  0.00  0.00     0.000 A 
HETATM   22  C   UNK N   1      26.280  20.462   3.540  0.00  0.00     0.001 A 
HETATM   23  C   UNK N   1      27.442  20.013   4.171  0.00  0.00     0.014 A 
ENDBRANCH  10  18
BRANCH  13  24
HETATM   24  N   UNK N   1      27.864  18.170   7.409  0.00  0.00    -0.384 N 
HETATM   25  H   UNK N   1      26.944  18.222   7.065  0.00  0.00     0.157 HD
HETATM   26  H   UNK N   1      28.040  18.306   8.368  0.00  0.00     0.157 HD
ENDBRANCH  13  24
BRANCH  14  27
HETATM   27  N   UNK N   1      32.064  17.278   2.644  0.00  0.00    -0.383 N 
HETATM   28  H   UNK N   1      31.585  16.634   2.073  0.00  0.00     0.157 HD
HETATM   29  H   UNK N   1      32.491  18.069   2.243  0.00  0.00     0.157 HD
ENDBRANCH  14  27
TORSDOF 3
ENDMDL
MODEL 8
REMARK VINA RESULT:      -6.0      3.642      7.638
REMARK  3 active torsions:
REMARK  status: ('A' for Active; 'I' for Inactive)
REMARK    1  A    between atoms: N_9  and  C_16 
REMARK    2  A    between atoms: N_10  and  C_17 
REMARK       I    between atoms: N_11  and  C_20 
REMARK    3  A    between atoms: C_12  and  C_14 
ROOT
HETATM    1  N   UNK N   1      34.415  15.574   7.386  0.00  0.00    -0.346 N 
ATOM      2  HN  UNK N   1      34.882  15.080   6.626  1.00  0.00     0.166 HD
HETATM    3  N   UNK N   1      33.178  16.894   9.440  0.00  0.00    -0.325 N 
ATOM      4  HN  UNK N   1      32.721  17.384  10.208  1.00  0.00     0.169 HD
HETATM    5  N   UNK N   1      34.789  16.054  10.946  0.00  0.00    -0.174 N 
ATOM      6  HN  UNK N   1      34.330  16.545  11.714  1.00  0.00     0.186 HD
HETATM    7  N   UNK N   1      36.523  14.647  10.175  0.00  0.00    -0.175 N 
ATOM      8  HN  UNK N   1      37.355  14.091  10.373  1.00  0.00     0.186 HD
HETATM    9  N   UNK N   1      36.410  15.217  12.500  0.00  0.00    -0.234 N 
HETATM   10  C   UNK N   1      33.307  16.312   7.112  0.00  0.00     0.087 A 
HETATM   11  C   UNK N   1      34.916  15.478   8.638  0.00  0.00     0.122 A 
HETATM   12  C   UNK N   1      34.286  16.151   9.689  0.00  0.00     0.153 A 
HETATM   13  C   UNK N   1      32.667  16.996   8.182  0.00  0.00     0.128 A 
HETATM   14  C   UNK N   1      36.051  14.719   8.904  0.00  0.00     0.145 A 
HETATM   15  C   UNK N   1      35.901  15.307  11.191  0.00  0.00     0.679 A 
HETATM   16  H   UNK N   1      37.214  14.678  12.678  0.00  0.00     0.174 HD
HETATM   17  H   UNK N   1      35.963  15.693  13.236  0.00  0.00     0.174 HD
ENDROOT
BRANCH  10  18
HETATM   18  C   UNK N   1      32.845  16.348   5.704  0.00  0.00    -0.006 A 
HETATM   19  C   UNK N   1      32.062  15.284   5.226  0.00  0.00     0.014 A 
HETATM   20  C   UNK N   1      31.603  15.272   3.910  0.00  0.00     0.001 A 
HETATM   21  C   UNK N   1      31.922  16.326   3.054  0.00  0.00     0.000 A 
HETATM   22  C   UNK N   1      32.700  17.391   3.516  0.00  0.00     0.001 A 
HETATM   23  C   UNK N   1      33.159  17.402   4.835  0.00  0.00     0.014 A 
ENDBRANCH  10  18
BRANCH  13  24
HETATM   24  N   UNK N   1      31.513  17.782   7.976  0.00  0.00    -0.384 N 
HETATM   25  H   UNK N   1      31.115  18.277   8.727  0.00  0.00     0.157 HD
HETATM   26  H   UNK N   1      31.106  17.834   7.081  0.00  0.00     0.157 HD
ENDBRANCH  13  24
BRANCH  14  27
HETATM   27  N   UNK N   1      36.711  14.027   7.866  0.00  0.00    -0.383 N 
HETATM   28  H   UNK N   1      36.624  14.335   6.935  0.00  0.00     0.157 HD
HETATM   29  H   UNK N   1      37.260  13.236   8.074  0.00  0.00     0.157 HD
ENDBRANCH  14  27
TORSDOF 3
ENDMDL
MODEL 9
REMARK VINA RESULT:      -5.8      3.355      7.120
REMARK  3 active torsions:
REMARK  status: ('A' for Active; 'I' for Inactive)
REMARK    1  A    between atoms: N_9  and  C_16 
REMARK    2  A    between atoms: N_10  and  C_17 
REMARK       I    between atoms: N_11  and  C_20 
REMARK    3  A    between atoms: C_12  and  C_14 
ROOT
HETATM    1  N   UNK N   1      33.641  15.956   9.057  0.00  0.00    -0.346 N 
ATOM      2  HN  UNK N   1      33.443  16.919   9.327  1.00  0.00     0.166 HD
HETATM    3  N   UNK N   1      34.192  13.371   8.345  0.00  0.00    -0.325 N 
ATOM      4  HN  UNK N   1      34.400  12.408   8.083  1.00  0.00     0.169 HD
HETATM    5  N   UNK N   1      36.072  13.381   9.770  0.00  0.00    -0.174 N 
ATOM      6  HN  UNK N   1      36.280  12.417   9.507  1.00  0.00     0.186 HD
HETATM    7  N   UNK N   1      36.611  15.313  11.019  0.00  0.00    -0.175 N 
ATOM      8  HN  UNK N   1      37.222  15.784  11.686  1.00  0.00     0.186 HD
HETATM    9  N   UNK N   1      37.989  13.362  11.209  0.00  0.00    -0.234 N 
HETATM   10  C   UNK N   1      32.821  15.336   8.167  0.00  0.00     0.087 A 
HETATM   11  C   UNK N   1      34.712  15.330   9.593  0.00  0.00     0.122 A 
HETATM   12  C   UNK N   1      34.996  14.010   9.232  0.00  0.00     0.153 A 
HETATM   13  C   UNK N   1      33.110  13.994   7.800  0.00  0.00     0.128 A 
HETATM   14  C   UNK N   1      35.544  15.976  10.503  0.00  0.00     0.145 A 
HETATM   15  C   UNK N   1      36.877  14.027  10.659  0.00  0.00     0.679 A 
HETATM   16  H   UNK N   1      38.571  13.827  11.851  0.00  0.00     0.174 HD
HETATM   17  H   UNK N   1      38.183  12.432  10.950  0.00  0.00     0.174 HD
ENDROOT
BRANCH  10  18
HETATM   18  C   UNK N   1      31.675  16.116   7.642  0.00  0.00    -0.006 A 
HETATM   19  C   UNK N   1      30.784  16.703   8.557  0.00  0.00     0.014 A 
HETATM   20  C   UNK N   1      29.692  17.446   8.113  0.00  0.00     0.001 A 
HETATM   21  C   UNK N   1      29.476  17.611   6.745  0.00  0.00     0.000 A 
HETATM   22  C   UNK N   1      30.353  17.033   5.823  0.00  0.00     0.001 A 
HETATM   23  C   UNK N   1      31.447  16.289   6.269  0.00  0.00     0.014 A 
ENDBRANCH  10  18
BRANCH  13  24
HETATM   24  N   UNK N   1      32.305  13.285   6.883  0.00  0.00    -0.384 N 
HETATM   25  H   UNK N   1      31.326  13.382   6.910  0.00  0.00     0.157 HD
HETATM   26  H   UNK N   1      32.723  12.693   6.216  0.00  0.00     0.157 HD
ENDBRANCH  13  24
BRANCH  14  27
HETATM   27  N   UNK N   1      35.287  17.308  10.889  0.00  0.00    -0.383 N 
HETATM   28  H   UNK N   1      34.453  17.532  11.362  0.00  0.00     0.157 HD
HETATM   29  H   UNK N   1      35.942  18.015  10.687  0.00  0.00     0.157 HD
ENDBRANCH  14  27
TORSDOF 3
ENDMDL
