MODEL 1
REMARK VINA RESULT:      -6.5      0.000      0.000
REMARK  6 active torsions:
REMARK  status: ('A' for Active; 'I' for Inactive)
REMARK    1  A    between atoms: O_1  and  C_4 
REMARK    2  A    between atoms: N_2  and  C_11 
REMARK    3  A    between atoms: C_3  and  C_4 
REMARK    4  A    between atoms: C_4  and  C_7 
REMARK    5  A    between atoms: C_4  and  C_12 
REMARK    6  A    between atoms: C_7  and  C_11 
ROOT
HETATM    1  C   UNK N   1      35.106  11.936  15.593  0.00  0.00     0.090 C 
ENDROOT
BRANCH   1   2
HETATM    2  O   UNK N   1      34.091  12.824  15.206  0.00  0.00    -0.385 OA
HETATM    3  H   UNK N   1      33.968  13.768  15.018  0.00  0.00     0.211 HD
ENDBRANCH   1   2
BRANCH   1   4
HETATM    4  C   UNK N   1      34.613  10.511  15.203  0.00  0.00     0.025 C 
HETATM    5  C   UNK N   1      35.663   9.414  14.927  0.00  0.00     0.008 C 
HETATM    6  C   UNK N   1      36.094   9.348  13.458  0.00  0.00     0.000 C 
HETATM    7  C   UNK N   1      34.891   9.283  12.525  0.00  0.00     0.000 C 
HETATM    8  C   UNK N   1      34.000  10.495  12.748  0.00  0.00     0.000 C 
HETATM    9  C   UNK N   1      33.474  10.472  14.175  0.00  0.00     0.008 C 
ENDBRANCH   1   4
BRANCH   1  10
HETATM   10  C   UNK N   1      36.366  12.417  14.836  0.00  0.00     0.073 C 
BRANCH  10  11
HETATM   11  C   UNK N   1      36.422  13.859  14.326  0.00  0.00     0.276 C 
BRANCH  11  12
HETATM   12  N   UNK N   1      36.616  13.941  12.888  0.00  0.00     0.088 N 
HETATM   13  C   UNK N   1      37.168  12.665  12.461  0.00  0.00     0.272 C 
HETATM   14  C   UNK N   1      36.576  12.337  11.105  0.00  0.00     0.032 C 
HETATM   15  C   UNK N   1      35.473  13.346  10.896  0.00  0.00     0.032 C 
HETATM   16  C   UNK N   1      35.321  14.028  12.234  0.00  0.00     0.272 C 
ENDBRANCH  11  12
ENDBRANCH  10  11
ENDBRANCH   1  10
BRANCH   1  17
HETATM   17  C   UNK N   1      35.263  12.053  17.107  0.00  0.00    -0.024 A 
HETATM   18  C   UNK N   1      35.600  10.937  17.898  0.00  0.00     0.010 A 
HETATM   19  C   UNK N   1      35.736  11.061  19.283  0.00  0.00     0.001 A 
HETATM   20  C   UNK N   1      35.529  12.296  19.901  0.00  0.00     0.000 A 
HETATM   21  C   UNK N   1      35.184  13.409  19.133  0.00  0.00     0.001 A 
HETATM   22  C   UNK N   1      35.051  13.285  17.749  0.00  0.00     0.010 A 
ENDBRANCH   1  17
TORSDOF 6
ENDMDL
MODEL 2
REMARK VINA RESULT:      -6.3      1.585      2.429
REMARK  6 active torsions:
REMARK  status: ('A' for Active; 'I' for Inactive)
REMARK    1  A    between atoms: O_1  and  C_4 
REMARK    2  A    between atoms: N_2  and  C_11 
REMARK    3  A    between atoms: C_3  and  C_4 
REMARK    4  A    between atoms: C_4  and  C_7 
REMARK    5  A    between atoms: C_4  and  C_12 
REMARK    6  A    between atoms: C_7  and  C_11 
ROOT
HETATM    1  C   UNK N   1      35.699  12.441  14.956  0.00  0.00     0.090 C 
ENDROOT
BRANCH   1   2
HETATM    2  O   UNK N   1      34.466  12.735  14.355  0.00  0.00    -0.385 OA
HETATM    3  H   UNK N   1      33.570  12.368  14.291  0.00  0.00     0.211 HD
ENDBRANCH   1   2
BRANCH   1   4
HETATM    4  C   UNK N   1      35.518  11.074  15.682  0.00  0.00     0.025 C 
HETATM    5  C   UNK N   1      36.774  10.329  16.181  0.00  0.00     0.008 C 
HETATM    6  C   UNK N   1      37.357   9.367  15.141  0.00  0.00     0.000 C 
HETATM    7  C   UNK N   1      36.289   8.440  14.575  0.00  0.00     0.000 C 
HETATM    8  C   UNK N   1      35.172   9.262  13.950  0.00  0.00     0.000 C 
HETATM    9  C   UNK N   1      34.516  10.114  15.027  0.00  0.00     0.008 C 
ENDBRANCH   1   4
BRANCH   1  10
HETATM   10  C   UNK N   1      36.717  12.427  13.791  0.00  0.00     0.073 C 
BRANCH  10  11
HETATM   11  C   UNK N   1      36.210  12.615  12.360  0.00  0.00     0.276 C 
BRANCH  11  12
HETATM   12  N   UNK N   1      36.712  13.831  11.740  0.00  0.00     0.088 N 
HETATM   13  C   UNK N   1      36.448  13.719  10.314  0.00  0.00     0.272 C 
HETATM   14  C   UNK N   1      36.081  15.097   9.803  0.00  0.00     0.032 C 
HETATM   15  C   UNK N   1      35.895  15.945  11.038  0.00  0.00     0.032 C 
HETATM   16  C   UNK N   1      35.912  14.960  12.182  0.00  0.00     0.272 C 
ENDBRANCH  11  12
ENDBRANCH  10  11
ENDBRANCH   1  10
BRANCH   1  17
HETATM   17  C   UNK N   1      35.992  13.548  15.965  0.00  0.00    -0.024 A 
HETATM   18  C   UNK N   1      35.295  13.631  17.186  0.00  0.00     0.010 A 
HETATM   19  C   UNK N   1      35.573  14.654  18.096  0.00  0.00     0.001 A 
HETATM   20  C   UNK N   1      36.543  15.614  17.800  0.00  0.00     0.000 A 
HETATM   21  C   UNK N   1      37.235  15.553  16.589  0.00  0.00     0.001 A 
HETATM   22  C   UNK N   1      36.959  14.528  15.681  0.00  0.00     0.010 A 
ENDBRANCH   1  17
TORSDOF 6
ENDMDL
MODEL 3
REMARK VINA RESULT:      -5.9     22.337     26.383
REMARK  6 active torsions:
REMARK  status: ('A' for Active; 'I' for Inactive)
REMARK    1  A    between atoms: O_1  and  C_4 
REMARK    2  A    between atoms: N_2  and  C_11 
REMARK    3  A    between atoms: C_3  and  C_4 
REMARK    4  A    between atoms: C_4  and  C_7 
REMARK    5  A    between atoms: C_4  and  C_12 
REMARK    6  A    between atoms: C_7  and  C_11 
ROOT
HETATM    1  C   UNK N   1      26.045  24.775  -6.087  0.00  0.00     0.090 C 
ENDROOT
BRANCH   1   2
HETATM    2  O   UNK N   1      25.014  24.488  -5.180  0.00  0.00    -0.385 OA
HETATM    3  H   UNK N   1      24.555  24.898  -4.430  0.00  0.00     0.211 HD
ENDBRANCH   1   2
BRANCH   1   4
HETATM    4  C   UNK N   1      25.785  26.223  -6.602  0.00  0.00     0.025 C 
HETATM    5  C   UNK N   1      26.988  27.073  -7.061  0.00  0.00     0.008 C 
HETATM    6  C   UNK N   1      27.607  27.901  -5.930  0.00  0.00     0.000 C 
HETATM    7  C   UNK N   1      26.550  28.703  -5.181  0.00  0.00     0.000 C 
HETATM    8  C   UNK N   1      25.495  27.764  -4.616  0.00  0.00     0.000 C 
HETATM    9  C   UNK N   1      24.799  27.048  -5.763  0.00  0.00     0.008 C 
ENDBRANCH   1   4
BRANCH   1  10
HETATM   10  C   UNK N   1      27.350  24.601  -5.275  0.00  0.00     0.073 C 
BRANCH  10  11
HETATM   11  C   UNK N   1      27.260  24.189  -3.804  0.00  0.00     0.276 C 
BRANCH  11  12
HETATM   12  N   UNK N   1      28.513  24.373  -3.090  0.00  0.00     0.088 N 
HETATM   13  C   UNK N   1      28.732  23.170  -2.303  0.00  0.00     0.272 C 
HETATM   14  C   UNK N   1      30.220  22.881  -2.305  0.00  0.00     0.032 C 
HETATM   15  C   UNK N   1      30.806  23.816  -3.335  0.00  0.00     0.032 C 
HETATM   16  C   UNK N   1      29.609  24.403  -4.044  0.00  0.00     0.272 C 
ENDBRANCH  11  12
ENDBRANCH  10  11
ENDBRANCH   1  10
BRANCH   1  17
HETATM   17  C   UNK N   1      25.940  23.772  -7.233  0.00  0.00    -0.024 A 
HETATM   18  C   UNK N   1      25.776  22.395  -6.990  0.00  0.00     0.010 A 
HETATM   19  C   UNK N   1      25.686  21.490  -8.051  0.00  0.00     0.001 A 
HETATM   20  C   UNK N   1      25.765  21.944  -9.369  0.00  0.00     0.000 A 
HETATM   21  C   UNK N   1      25.938  23.305  -9.627  0.00  0.00     0.001 A 
HETATM   22  C   UNK N   1      26.025  24.209  -8.567  0.00  0.00     0.010 A 
ENDBRANCH   1  17
TORSDOF 6
ENDMDL
MODEL 4
REMARK VINA RESULT:      -5.8     21.904     25.042
REMARK  6 active torsions:
REMARK  status: ('A' for Active; 'I' for Inactive)
REMARK    1  A    between atoms: O_1  and  C_4 
REMARK    2  A    between atoms: N_2  and  C_11 
REMARK    3  A    between atoms: C_3  and  C_4 
REMARK    4  A    between atoms: C_4  and  C_7 
REMARK    5  A    between atoms: C_4  and  C_12 
REMARK    6  A    between atoms: C_7  and  C_11 
ROOT
HETATM    1  C   UNK N   1      27.225  24.640  -3.920  0.00  0.00     0.090 C 
ENDROOT
BRANCH   1   2
HETATM    2  O   UNK N   1      26.374  23.975  -3.024  0.00  0.00    -0.385 OA
HETATM    3  H   UNK N   1      25.622  23.362  -3.037  0.00  0.00     0.211 HD
ENDBRANCH   1   2
BRANCH   1   4
HETATM    4  C   UNK N   1      26.713  26.109  -4.001  0.00  0.00     0.025 C 
HETATM    5  C   UNK N   1      25.582  26.445  -4.996  0.00  0.00     0.008 C 
HETATM    6  C   UNK N   1      26.098  26.859  -6.378  0.00  0.00     0.000 C 
HETATM    7  C   UNK N   1      27.158  27.948  -6.276  0.00  0.00     0.000 C 
HETATM    8  C   UNK N   1      28.315  27.463  -5.416  0.00  0.00     0.000 C 
HETATM    9  C   UNK N   1      27.808  27.184  -4.009  0.00  0.00     0.008 C 
ENDBRANCH   1   4
BRANCH   1  10
HETATM   10  C   UNK N   1      28.641  24.479  -3.319  0.00  0.00     0.073 C 
BRANCH  10  11
HETATM   11  C   UNK N   1      28.960  23.230  -2.495  0.00  0.00     0.276 C 
BRANCH  11  12
HETATM   12  N   UNK N   1      30.301  22.723  -2.735  0.00  0.00     0.088 N 
HETATM   13  C   UNK N   1      30.175  21.617  -3.671  0.00  0.00     0.272 C 
HETATM   14  C   UNK N   1      31.372  21.658  -4.599  0.00  0.00     0.032 C 
HETATM   15  C   UNK N   1      32.048  22.979  -4.320  0.00  0.00     0.032 C 
HETATM   16  C   UNK N   1      31.074  23.729  -3.444  0.00  0.00     0.272 C 
ENDBRANCH  11  12
ENDBRANCH  10  11
ENDBRANCH   1  10
BRANCH   1  17
HETATM   17  C   UNK N   1      27.091  23.951  -5.276  0.00  0.00    -0.024 A 
HETATM   18  C   UNK N   1      25.875  23.371  -5.687  0.00  0.00     0.010 A 
HETATM   19  C   UNK N   1      25.771  22.740  -6.930  0.00  0.00     0.001 A 
HETATM   20  C   UNK N   1      26.879  22.671  -7.776  0.00  0.00     0.000 A 
HETATM   21  C   UNK N   1      28.095  23.231  -7.379  0.00  0.00     0.001 A 
HETATM   22  C   UNK N   1      28.197  23.864  -6.139  0.00  0.00     0.010 A 
ENDBRANCH   1  17
TORSDOF 6
ENDMDL
MODEL 5
REMARK VINA RESULT:      -5.8      6.946     10.434
REMARK  6 active torsions:
REMARK  status: ('A' for Active; 'I' for Inactive)
REMARK    1  A    between atoms: O_1  and  C_4 
REMARK    2  A    between atoms: N_2  and  C_11 
REMARK    3  A    between atoms: C_3  and  C_4 
REMARK    4  A    between atoms: C_4  and  C_7 
REMARK    5  A    between atoms: C_4  and  C_12 
REMARK    6  A    between atoms: C_7  and  C_11 
ROOT
HETATM    1  C   UNK N   1      31.716  16.774   6.745  0.00  0.00     0.090 C 
ENDROOT
BRANCH   1   2
HETATM    2  O   UNK N   1      32.711  17.761   6.674  0.00  0.00    -0.385 OA
HETATM    3  H   UNK N   1      33.629  17.905   6.952  0.00  0.00     0.211 HD
ENDBRANCH   1   2
BRANCH   1   4
HETATM    4  C   UNK N   1      31.210  16.558   5.287  0.00  0.00     0.025 C 
HETATM    5  C   UNK N   1      31.108  15.117   4.744  0.00  0.00     0.008 C 
HETATM    6  C   UNK N   1      32.392  14.640   4.057  0.00  0.00     0.000 C 
HETATM    7  C   UNK N   1      32.877  15.645   3.019  0.00  0.00     0.000 C 
HETATM    8  C   UNK N   1      33.115  16.994   3.680  0.00  0.00     0.000 C 
HETATM    9  C   UNK N   1      31.800  17.514   4.241  0.00  0.00     0.008 C 
ENDBRANCH   1   4
BRANCH   1  10
HETATM   10  C   UNK N   1      32.416  15.547   7.376  0.00  0.00     0.073 C 
BRANCH  10  11
HETATM   11  C   UNK N   1      33.915  15.621   7.677  0.00  0.00     0.276 C 
BRANCH  11  12
HETATM   12  N   UNK N   1      34.212  15.494   9.094  0.00  0.00     0.088 N 
HETATM   13  C   UNK N   1      35.466  14.764   9.201  0.00  0.00     0.272 C 
HETATM   14  C   UNK N   1      36.240  15.345  10.367  0.00  0.00     0.032 C 
HETATM   15  C   UNK N   1      35.495  16.599  10.756  0.00  0.00     0.032 C 
HETATM   16  C   UNK N   1      34.494  16.808   9.646  0.00  0.00     0.272 C 
ENDBRANCH  11  12
ENDBRANCH  10  11
ENDBRANCH   1  10
BRANCH   1  17
HETATM   17  C   UNK N   1      30.594  17.316   7.627  0.00  0.00    -0.024 A 
HETATM   18  C   UNK N   1      29.240  17.109   7.301  0.00  0.00     0.010 A 
HETATM   19  C   UNK N   1      28.226  17.616   8.117  0.00  0.00     0.001 A 
HETATM   20  C   UNK N   1      28.547  18.343   9.265  0.00  0.00     0.000 A 
HETATM   21  C   UNK N   1      29.884  18.567   9.597  0.00  0.00     0.001 A 
HETATM   22  C   UNK N   1      30.897  18.057   8.782  0.00  0.00     0.010 A 
ENDBRANCH   1  17
TORSDOF 6
ENDMDL
MODEL 6
REMARK VINA RESULT:      -5.7     21.805     25.190
REMARK  6 active torsions:
REMARK  status: ('A' for Active; 'I' for Inactive)
REMARK    1  A    between atoms: O_1  and  C_4 
REMARK    2  A    between atoms: N_2  and  C_11 
REMARK    3  A    between atoms: C_3  and  C_4 
REMARK    4  A    between atoms: C_4  and  C_7 
REMARK    5  A    between atoms: C_4  and  C_12 
REMARK    6  A    between atoms: C_7  and  C_11 
ROOT
HETATM    1  C   UNK N   1      27.356  24.809  -3.827  0.00  0.00     0.090 C 
ENDROOT
BRANCH   1   2
HETATM    2  O   UNK N   1      26.618  24.524  -2.668  0.00  0.00    -0.385 OA
HETATM    3  H   UNK N   1      25.694  24.433  -2.385  0.00  0.00     0.211 HD
ENDBRANCH   1   2
BRANCH   1   4
HETATM    4  C   UNK N   1      26.663  24.036  -4.988  0.00  0.00     0.025 C 
HETATM    5  C   UNK N   1      27.538  23.470  -6.127  0.00  0.00     0.008 C 
HETATM    6  C   UNK N   1      27.727  24.453  -7.287  0.00  0.00     0.000 C 
HETATM    7  C   UNK N   1      26.395  25.014  -7.768  0.00  0.00     0.000 C 
HETATM    8  C   UNK N   1      25.680  25.704  -6.617  0.00  0.00     0.000 C 
HETATM    9  C   UNK N   1      25.381  24.682  -5.531  0.00  0.00     0.008 C 
ENDBRANCH   1   4
BRANCH   1  10
HETATM   10  C   UNK N   1      27.315  26.350  -3.957  0.00  0.00     0.073 C 
BRANCH  10  11
HETATM   11  C   UNK N   1      26.319  27.140  -3.106  0.00  0.00     0.276 C 
BRANCH  11  12
HETATM   12  N   UNK N   1      26.315  28.560  -3.418  0.00  0.00     0.088 N 
HETATM   13  C   UNK N   1      27.424  29.157  -2.692  0.00  0.00     0.272 C 
HETATM   14  C   UNK N   1      28.020  30.240  -3.568  0.00  0.00     0.032 C 
HETATM   15  C   UNK N   1      27.373  30.062  -4.920  0.00  0.00     0.032 C 
HETATM   16  C   UNK N   1      26.642  28.744  -4.822  0.00  0.00     0.272 C 
ENDBRANCH  11  12
ENDBRANCH  10  11
ENDBRANCH   1  10
BRANCH   1  17
HETATM   17  C   UNK N   1      28.773  24.286  -3.607  0.00  0.00    -0.024 A 
HETATM   18  C   UNK N   1      29.022  23.153  -2.807  0.00  0.00     0.010 A 
HETATM   19  C   UNK N   1      30.326  22.691  -2.613  0.00  0.00     0.001 A 
HETATM   20  C   UNK N   1      31.401  23.355  -3.205  0.00  0.00     0.000 A 
HETATM   21  C   UNK N   1      31.174  24.486  -3.992  0.00  0.00     0.001 A 
HETATM   22  C   UNK N   1      29.870  24.946  -4.188  0.00  0.00     0.010 A 
ENDBRANCH   1  17
TORSDOF 6
ENDMDL
MODEL 7
REMARK VINA RESULT:      -5.7     10.658     12.895
REMARK  6 active torsions:
REMARK  status: ('A' for Active; 'I' for Inactive)
REMARK    1  A    between atoms: O_1  and  C_4 
REMARK    2  A    between atoms: N_2  and  C_11 
REMARK    3  A    between atoms: C_3  and  C_4 
REMARK    4  A    between atoms: C_4  and  C_7 
REMARK    5  A    between atoms: C_4  and  C_12 
REMARK    6  A    between atoms: C_7  and  C_11 
ROOT
HETATM    1  C   UNK N   1      30.004  16.730   5.765  0.00  0.00     0.090 C 
ENDROOT
BRANCH   1   2
HETATM    2  O   UNK N   1      29.315  15.510   5.692  0.00  0.00    -0.385 OA
HETATM    3  H   UNK N   1      29.452  14.603   5.376  0.00  0.00     0.211 HD
ENDBRANCH   1   2
BRANCH   1   4
HETATM    4  C   UNK N   1      31.516  16.390   5.599  0.00  0.00     0.025 C 
HETATM    5  C   UNK N   1      32.435  17.419   4.908  0.00  0.00     0.008 C 
HETATM    6  C   UNK N   1      32.525  17.224   3.390  0.00  0.00     0.000 C 
HETATM    7  C   UNK N   1      32.855  15.780   3.032  0.00  0.00     0.000 C 
HETATM    8  C   UNK N   1      31.799  14.851   3.611  0.00  0.00     0.000 C 
HETATM    9  C   UNK N   1      31.816  14.961   5.128  0.00  0.00     0.008 C 
ENDBRANCH   1   4
BRANCH   1  10
HETATM   10  C   UNK N   1      29.405  17.595   4.631  0.00  0.00     0.073 C 
BRANCH  10  11
HETATM   11  C   UNK N   1      28.033  17.228   4.064  0.00  0.00     0.276 C 
BRANCH  11  12
HETATM   12  N   UNK N   1      27.006  18.201   4.401  0.00  0.00     0.088 N 
HETATM   13  C   UNK N   1      27.561  19.517   4.125  0.00  0.00     0.272 C 
HETATM   14  C   UNK N   1      26.444  20.385   3.583  0.00  0.00     0.032 C 
HETATM   15  C   UNK N   1      25.297  19.440   3.318  0.00  0.00     0.032 C 
HETATM   16  C   UNK N   1      25.892  18.062   3.477  0.00  0.00     0.272 C 
ENDBRANCH  11  12
ENDBRANCH  10  11
ENDBRANCH   1  10
BRANCH   1  17
HETATM   17  C   UNK N   1      29.738  17.324   7.146  0.00  0.00    -0.024 A 
HETATM   18  C   UNK N   1      28.431  17.431   7.659  0.00  0.00     0.010 A 
HETATM   19  C   UNK N   1      28.205  17.981   8.923  0.00  0.00     0.001 A 
HETATM   20  C   UNK N   1      29.277  18.441   9.691  0.00  0.00     0.000 A 
HETATM   21  C   UNK N   1      30.578  18.352   9.193  0.00  0.00     0.001 A 
HETATM   22  C   UNK N   1      30.803  17.799   7.930  0.00  0.00     0.010 A 
ENDBRANCH   1  17
TORSDOF 6
ENDMDL
MODEL 8
REMARK VINA RESULT:      -5.7     10.185     13.408
REMARK  6 active torsions:
REMARK  status: ('A' for Active; 'I' for Inactive)
REMARK    1  A    between atoms: O_1  and  C_4 
REMARK    2  A    between atoms: N_2  and  C_11 
REMARK    3  A    between atoms: C_3  and  C_4 
REMARK    4  A    between atoms: C_4  and  C_7 
REMARK    5  A    between atoms: C_4  and  C_12 
REMARK    6  A    between atoms: C_7  and  C_11 
ROOT
HETATM    1  C   UNK N   1      28.737  17.219   4.654  0.00  0.00     0.090 C 
ENDROOT
BRANCH   1   2
HETATM    2  O   UNK N   1      29.377  17.510   3.440  0.00  0.00    -0.385 OA
HETATM    3  H   UNK N   1      29.217  18.009   2.623  0.00  0.00     0.211 HD
ENDBRANCH   1   2
BRANCH   1   4
HETATM    4  C   UNK N   1      27.587  16.224   4.315  0.00  0.00     0.025 C 
HETATM    5  C   UNK N   1      26.225  16.793   3.863  0.00  0.00     0.008 C 
HETATM    6  C   UNK N   1      25.263  17.051   5.027  0.00  0.00     0.000 C 
HETATM    7  C   UNK N   1      25.139  15.831   5.931  0.00  0.00     0.000 C 
HETATM    8  C   UNK N   1      26.509  15.446   6.468  0.00  0.00     0.000 C 
HETATM    9  C   UNK N   1      27.412  15.064   5.305  0.00  0.00     0.008 C 
ENDBRANCH   1   4
BRANCH   1  10
HETATM   10  C   UNK N   1      29.849  16.640   5.561  0.00  0.00     0.073 C 
BRANCH  10  11
HETATM   11  C   UNK N   1      31.311  16.951   5.234  0.00  0.00     0.276 C 
BRANCH  11  12
HETATM   12  N   UNK N   1      32.201  16.717   6.359  0.00  0.00     0.088 N 
HETATM   13  C   UNK N   1      33.406  17.495   6.115  0.00  0.00     0.272 C 
HETATM   14  C   UNK N   1      33.891  18.025   7.449  0.00  0.00     0.032 C 
HETATM   15  C   UNK N   1      32.776  17.735   8.424  0.00  0.00     0.032 C 
HETATM   16  C   UNK N   1      31.619  17.292   7.560  0.00  0.00     0.272 C 
ENDBRANCH  11  12
ENDBRANCH  10  11
ENDBRANCH   1  10
BRANCH   1  17
HETATM   17  C   UNK N   1      28.170  18.527   5.199  0.00  0.00    -0.024 A 
HETATM   18  C   UNK N   1      27.754  19.561   4.339  0.00  0.00     0.010 A 
HETATM   19  C   UNK N   1      27.241  20.754   4.855  0.00  0.00     0.001 A 
HETATM   20  C   UNK N   1      27.144  20.937   6.235  0.00  0.00     0.000 A 
HETATM   21  C   UNK N   1      27.562  19.926   7.103  0.00  0.00     0.001 A 
HETATM   22  C   UNK N   1      28.072  18.733   6.586  0.00  0.00     0.010 A 
ENDBRANCH   1  17
TORSDOF 6
ENDMDL
MODEL 9
REMARK VINA RESULT:      -5.7      3.020      7.182
REMARK  6 active torsions:
REMARK  status: ('A' for Active; 'I' for Inactive)
REMARK    1  A    between atoms: O_1  and  C_4 
REMARK    2  A    between atoms: N_2  and  C_11 
REMARK    3  A    between atoms: C_3  and  C_4 
REMARK    4  A    between atoms: C_4  and  C_7 
REMARK    5  A    between atoms: C_4  and  C_12 
REMARK    6  A    between atoms: C_7  and  C_11 
ROOT
HETATM    1  C   UNK N   1      35.761  15.100  10.392  0.00  0.00     0.090 C 
ENDROOT
BRANCH   1   2
HETATM    2  O   UNK N   1      36.675  16.052  10.870  0.00  0.00    -0.385 OA
HETATM    3  H   UNK N   1      37.633  16.202  10.907  0.00  0.00     0.211 HD
ENDBRANCH   1   2
BRANCH   1   4
HETATM    4  C   UNK N   1      36.550  14.197   9.397  0.00  0.00     0.025 C 
HETATM    5  C   UNK N   1      36.007  12.785   9.089  0.00  0.00     0.008 C 
HETATM    6  C   UNK N   1      36.550  11.711  10.038  0.00  0.00     0.000 C 
HETATM    7  C   UNK N   1      38.069  11.767  10.136  0.00  0.00     0.000 C 
HETATM    8  C   UNK N   1      38.504  13.144  10.613  0.00  0.00     0.000 C 
HETATM    9  C   UNK N   1      38.072  14.185   9.591  0.00  0.00     0.008 C 
ENDBRANCH   1   4
BRANCH   1  10
HETATM   10  C   UNK N   1      35.243  14.375  11.657  0.00  0.00     0.073 C 
BRANCH  10  11
HETATM   11  C   UNK N   1      36.107  14.376  12.919  0.00  0.00     0.276 C 
BRANCH  11  12
HETATM   12  N   UNK N   1      35.989  13.145  13.684  0.00  0.00     0.088 N 
HETATM   13  C   UNK N   1      35.616  13.521  15.038  0.00  0.00     0.272 C 
HETATM   14  C   UNK N   1      34.661  12.468  15.562  0.00  0.00     0.032 C 
HETATM   15  C   UNK N   1      34.304  11.621  14.365  0.00  0.00     0.032 C 
HETATM   16  C   UNK N   1      34.863  12.375  13.183  0.00  0.00     0.272 C 
ENDBRANCH  11  12
ENDBRANCH  10  11
ENDBRANCH   1  10
BRANCH   1  17
HETATM   17  C   UNK N   1      34.652  15.856   9.665  0.00  0.00    -0.024 A 
HETATM   18  C   UNK N   1      34.858  17.154   9.159  0.00  0.00     0.010 A 
HETATM   19  C   UNK N   1      33.830  17.833   8.499  0.00  0.00     0.001 A 
HETATM   20  C   UNK N   1      32.580  17.232   8.342  0.00  0.00     0.000 A 
HETATM   21  C   UNK N   1      32.355  15.950   8.847  0.00  0.00     0.001 A 
HETATM   22  C   UNK N   1      33.384  15.271   9.503  0.00  0.00     0.010 A 
ENDBRANCH   1  17
TORSDOF 6
ENDMDL
