MODEL 1
REMARK VINA RESULT:      -5.2      0.000      0.000
REMARK  5 active torsions:
REMARK  status: ('A' for Active; 'I' for Inactive)
REMARK    1  A    between atoms: C_4  and  O_1 
REMARK    2  A    between atoms: O_2  and  C_9 
REMARK    3  A    between atoms: N_3  and  C_5 
REMARK    4  A    between atoms: C_4  and  C_5 
REMARK    5  A    between atoms: C_4  and  C_6 
ROOT
HETATM    1  C   UNK N   1      35.501  12.465  17.101  0.00  0.00    -0.025 A 
HETATM    2  C   UNK N   1      35.127  13.292  18.158  0.00  0.00     0.046 A 
HETATM    3  C   UNK N   1      35.823  11.120  17.346  0.00  0.00     0.010 A 
HETATM    4  C   UNK N   1      35.072  12.783  19.458  0.00  0.00     0.066 A 
HETATM    5  C   UNK N   1      35.769  10.609  18.641  0.00  0.00     0.003 A 
HETATM    6  C   UNK N   1      35.394  11.438  19.697  0.00  0.00     0.036 A 
ENDROOT
BRANCH   1   7
HETATM    7  C   UNK N   1      35.567  12.984  15.709  0.00  0.00     0.168 C 
BRANCH   7   8
HETATM    8  O   UNK N   1      34.390  13.143  14.966  0.00  0.00    -0.389 OA
HETATM    9  H   UNK N   1      33.528  12.985  15.383  0.00  0.00     0.210 HD
ENDBRANCH   7   8
BRANCH   7  10
HETATM   10  C   UNK N   1      36.923  13.331  15.125  0.00  0.00     0.149 C 
BRANCH  10  11
HETATM   11  N   UNK N   1      36.990  14.674  14.603  0.00  0.00    -0.423 N 
HETATM   12  C   UNK N   1      37.324  15.482  15.760  0.00  0.00     0.139 C 
HETATM   13  H   UNK N   1      36.839  14.983  13.644  0.00  0.00     0.152 HD
ENDBRANCH  10  11
ENDBRANCH   7  10
ENDBRANCH   1   7
BRANCH   4  14
HETATM   14  O   UNK N   1      34.712  13.576  20.472  0.00  0.00    -0.361 OA
HETATM   15  H   UNK N   1      35.125  13.483  21.307  0.00  0.00     0.217 HD
ENDBRANCH   4  14
TORSDOF 5
ENDMDL
MODEL 2
REMARK VINA RESULT:      -5.1      9.276     11.516
REMARK  5 active torsions:
REMARK  status: ('A' for Active; 'I' for Inactive)
REMARK    1  A    between atoms: C_4  and  O_1 
REMARK    2  A    between atoms: O_2  and  C_9 
REMARK    3  A    between atoms: N_3  and  C_5 
REMARK    4  A    between atoms: C_4  and  C_5 
REMARK    5  A    between atoms: C_4  and  C_6 
ROOT
HETATM    1  C   UNK N   1      33.351  17.633   7.369  0.00  0.00    -0.025 A 
HETATM    2  C   UNK N   1      32.033  17.452   7.783  0.00  0.00     0.046 A 
HETATM    3  C   UNK N   1      33.667  17.583   6.002  0.00  0.00     0.010 A 
HETATM    4  C   UNK N   1      31.030  17.221   6.839  0.00  0.00     0.066 A 
HETATM    5  C   UNK N   1      32.669  17.353   5.057  0.00  0.00     0.003 A 
HETATM    6  C   UNK N   1      31.351  17.172   5.474  0.00  0.00     0.036 A 
ENDROOT
BRANCH   1   7
HETATM    7  C   UNK N   1      34.436  17.881   8.355  0.00  0.00     0.168 C 
BRANCH   7   8
HETATM    8  O   UNK N   1      35.064  19.133   8.406  0.00  0.00    -0.389 OA
HETATM    9  H   UNK N   1      35.531  19.472   7.625  0.00  0.00     0.210 HD
ENDBRANCH   7   8
BRANCH   7  10
HETATM   10  C   UNK N   1      34.839  16.757   9.291  0.00  0.00     0.149 C 
BRANCH  10  11
HETATM   11  N   UNK N   1      35.036  17.194  10.652  0.00  0.00    -0.423 N 
HETATM   12  C   UNK N   1      35.674  16.060  11.293  0.00  0.00     0.139 C 
HETATM   13  H   UNK N   1      34.786  18.091  11.067  0.00  0.00     0.152 HD
ENDBRANCH  10  11
ENDBRANCH   7  10
ENDBRANCH   1   7
BRANCH   4  14
HETATM   14  O   UNK N   1      29.766  17.047   7.235  0.00  0.00    -0.361 OA
HETATM   15  H   UNK N   1      29.223  17.791   7.408  0.00  0.00     0.217 HD
ENDBRANCH   4  14
TORSDOF 5
ENDMDL
MODEL 3
REMARK VINA RESULT:      -5.0     12.464     14.416
REMARK  5 active torsions:
REMARK  status: ('A' for Active; 'I' for Inactive)
REMARK    1  A    between atoms: C_4  and  O_1 
REMARK    2  A    between atoms: O_2  and  C_9 
REMARK    3  A    between atoms: N_3  and  C_5 
REMARK    4  A    between atoms: C_4  and  C_5 
REMARK    5  A    between atoms: C_4  and  C_6 
ROOT
HETATM    1  C   UNK N   1      28.243  18.995   7.227  0.00  0.00    -0.025 A 
HETATM    2  C   UNK N   1      28.659  18.190   6.168  0.00  0.00     0.046 A 
HETATM    3  C   UNK N   1      27.613  20.222   6.966  0.00  0.00     0.010 A 
HETATM    4  C   UNK N   1      28.449  18.606   4.851  0.00  0.00     0.066 A 
HETATM    5  C   UNK N   1      27.402  20.640   5.654  0.00  0.00     0.003 A 
HETATM    6  C   UNK N   1      27.820  19.834   4.596  0.00  0.00     0.036 A 
ENDROOT
BRANCH   1   7
HETATM    7  C   UNK N   1      28.455  18.573   8.637  0.00  0.00     0.168 C 
BRANCH   7   8
HETATM    8  O   UNK N   1      27.392  18.031   9.372  0.00  0.00    -0.389 OA
HETATM    9  H   UNK N   1      26.623  17.660   8.911  0.00  0.00     0.210 HD
ENDBRANCH   7   8
BRANCH   7  10
HETATM   10  C   UNK N   1      29.832  18.745   9.249  0.00  0.00     0.149 C 
BRANCH  10  11
HETATM   11  N   UNK N   1      30.559  17.505   9.371  0.00  0.00    -0.423 N 
HETATM   12  C   UNK N   1      31.640  17.639   8.414  0.00  0.00     0.139 C 
HETATM   13  H   UNK N   1      30.359  16.717   9.986  0.00  0.00     0.152 HD
ENDBRANCH  10  11
ENDBRANCH   7  10
ENDBRANCH   1   7
BRANCH   4  14
HETATM   14  O   UNK N   1      28.849  17.835   3.835  0.00  0.00    -0.361 OA
HETATM   15  H   UNK N   1      28.518  16.963   3.751  0.00  0.00     0.217 HD
ENDBRANCH   4  14
TORSDOF 5
ENDMDL
MODEL 4
REMARK VINA RESULT:      -4.7     24.625     26.653
REMARK  5 active torsions:
REMARK  status: ('A' for Active; 'I' for Inactive)
REMARK    1  A    between atoms: C_4  and  O_1 
REMARK    2  A    between atoms: O_2  and  C_9 
REMARK    3  A    between atoms: N_3  and  C_5 
REMARK    4  A    between atoms: C_4  and  C_5 
REMARK    5  A    between atoms: C_4  and  C_6 
ROOT
HETATM    1  C   UNK N   1      26.582  25.386  -4.133  0.00  0.00    -0.025 A 
HETATM    2  C   UNK N   1      26.418  26.583  -3.440  0.00  0.00     0.046 A 
HETATM    3  C   UNK N   1      25.961  25.209  -5.380  0.00  0.00     0.010 A 
HETATM    4  C   UNK N   1      25.637  27.605  -3.987  0.00  0.00     0.066 A 
HETATM    5  C   UNK N   1      25.181  26.225  -5.928  0.00  0.00     0.003 A 
HETATM    6  C   UNK N   1      25.019  27.423  -5.233  0.00  0.00     0.036 A 
ENDROOT
BRANCH   1   7
HETATM    7  C   UNK N   1      27.408  24.284  -3.572  0.00  0.00     0.168 C 
BRANCH   7   8
HETATM    8  O   UNK N   1      27.088  23.736  -2.322  0.00  0.00    -0.389 OA
HETATM    9  H   UNK N   1      27.243  22.794  -2.152  0.00  0.00     0.210 HD
ENDBRANCH   7   8
BRANCH   7  10
HETATM   10  C   UNK N   1      28.589  23.777  -4.377  0.00  0.00     0.149 C 
BRANCH  10  11
HETATM   11  N   UNK N   1      29.612  24.775  -4.574  0.00  0.00    -0.423 N 
HETATM   12  C   UNK N   1      30.464  24.637  -3.408  0.00  0.00     0.139 C 
HETATM   13  H   UNK N   1      29.714  25.425  -5.352  0.00  0.00     0.152 HD
ENDBRANCH  10  11
ENDBRANCH   7  10
ENDBRANCH   1   7
BRANCH   4  14
HETATM   14  O   UNK N   1      25.480  28.754  -3.323  0.00  0.00    -0.361 OA
HETATM   15  H   UNK N   1      26.211  29.149  -2.890  0.00  0.00     0.217 HD
ENDBRANCH   4  14
TORSDOF 5
ENDMDL
MODEL 5
REMARK VINA RESULT:      -4.7     14.967     15.888
REMARK  5 active torsions:
REMARK  status: ('A' for Active; 'I' for Inactive)
REMARK    1  A    between atoms: C_4  and  O_1 
REMARK    2  A    between atoms: O_2  and  C_9 
REMARK    3  A    between atoms: N_3  and  C_5 
REMARK    4  A    between atoms: C_4  and  C_5 
REMARK    5  A    between atoms: C_4  and  C_6 
ROOT
HETATM    1  C   UNK N   1      21.889  13.287   9.938  0.00  0.00    -0.025 A 
HETATM    2  C   UNK N   1      21.713  12.601  11.137  0.00  0.00     0.046 A 
HETATM    3  C   UNK N   1      23.160  13.341   9.343  0.00  0.00     0.010 A 
HETATM    4  C   UNK N   1      22.800  11.969  11.746  0.00  0.00     0.066 A 
HETATM    5  C   UNK N   1      24.246  12.712   9.947  0.00  0.00     0.003 A 
HETATM    6  C   UNK N   1      24.068  12.026  11.148  0.00  0.00     0.036 A 
ENDROOT
BRANCH   1   7
HETATM    7  C   UNK N   1      20.747  13.968   9.271  0.00  0.00     0.168 C 
BRANCH   7   8
HETATM    8  O   UNK N   1      19.486  13.979   9.883  0.00  0.00    -0.389 OA
HETATM    9  H   UNK N   1      18.683  13.950   9.339  0.00  0.00     0.210 HD
ENDBRANCH   7   8
BRANCH   7  10
HETATM   10  C   UNK N   1      20.981  14.639   7.931  0.00  0.00     0.149 C 
BRANCH  10  11
HETATM   11  N   UNK N   1      21.001  16.079   8.012  0.00  0.00    -0.423 N 
HETATM   12  C   UNK N   1      19.798  16.484   7.311  0.00  0.00     0.139 C 
HETATM   13  H   UNK N   1      21.698  16.673   8.459  0.00  0.00     0.152 HD
ENDBRANCH  10  11
ENDBRANCH   7  10
ENDBRANCH   1   7
BRANCH   4  14
HETATM   14  O   UNK N   1      22.633  11.310  12.897  0.00  0.00    -0.361 OA
HETATM   15  H   UNK N   1      22.655  11.775  13.710  0.00  0.00     0.217 HD
ENDBRANCH   4  14
TORSDOF 5
ENDMDL
MODEL 6
REMARK VINA RESULT:      -4.6     11.569     13.172
REMARK  5 active torsions:
REMARK  status: ('A' for Active; 'I' for Inactive)
REMARK    1  A    between atoms: C_4  and  O_1 
REMARK    2  A    between atoms: O_2  and  C_9 
REMARK    3  A    between atoms: N_3  and  C_5 
REMARK    4  A    between atoms: C_4  and  C_5 
REMARK    5  A    between atoms: C_4  and  C_6 
ROOT
HETATM    1  C   UNK N   1      29.585  17.903   8.007  0.00  0.00    -0.025 A 
HETATM    2  C   UNK N   1      29.715  16.896   7.052  0.00  0.00     0.046 A 
HETATM    3  C   UNK N   1      30.703  18.304   8.757  0.00  0.00     0.010 A 
HETATM    4  C   UNK N   1      30.956  16.289   6.842  0.00  0.00     0.066 A 
HETATM    5  C   UNK N   1      31.941  17.701   8.550  0.00  0.00     0.003 A 
HETATM    6  C   UNK N   1      32.069  16.694   7.594  0.00  0.00     0.036 A 
ENDROOT
BRANCH   1   7
HETATM    7  C   UNK N   1      28.275  18.563   8.249  0.00  0.00     0.168 C 
BRANCH   7   8
HETATM    8  O   UNK N   1      27.503  18.201   9.361  0.00  0.00    -0.389 OA
HETATM    9  H   UNK N   1      27.107  17.316   9.408  0.00  0.00     0.210 HD
ENDBRANCH   7   8
BRANCH   7  10
HETATM   10  C   UNK N   1      27.804  19.624   7.273  0.00  0.00     0.149 C 
BRANCH  10  11
HETATM   11  N   UNK N   1      26.654  20.358   7.742  0.00  0.00    -0.423 N 
HETATM   12  C   UNK N   1      26.465  21.389   6.739  0.00  0.00     0.139 C 
HETATM   13  H   UNK N   1      26.102  20.191   8.582  0.00  0.00     0.152 HD
ENDBRANCH  10  11
ENDBRANCH   7  10
ENDBRANCH   1   7
BRANCH   4  14
HETATM   14  O   UNK N   1      31.082  15.324   5.926  0.00  0.00    -0.361 OA
HETATM   15  H   UNK N   1      31.218  14.438   6.196  0.00  0.00     0.217 HD
ENDBRANCH   4  14
TORSDOF 5
ENDMDL
MODEL 7
REMARK VINA RESULT:      -4.5      9.352     11.216
REMARK  5 active torsions:
REMARK  status: ('A' for Active; 'I' for Inactive)
REMARK    1  A    between atoms: C_4  and  O_1 
REMARK    2  A    between atoms: O_2  and  C_9 
REMARK    3  A    between atoms: N_3  and  C_5 
REMARK    4  A    between atoms: C_4  and  C_5 
REMARK    5  A    between atoms: C_4  and  C_6 
ROOT
HETATM    1  C   UNK N   1      31.967  17.601   7.871  0.00  0.00    -0.025 A 
HETATM    2  C   UNK N   1      31.126  18.150   8.836  0.00  0.00     0.046 A 
HETATM    3  C   UNK N   1      31.424  17.089   6.681  0.00  0.00     0.010 A 
HETATM    4  C   UNK N   1      29.746  18.190   8.620  0.00  0.00     0.066 A 
HETATM    5  C   UNK N   1      30.049  17.127   6.462  0.00  0.00     0.003 A 
HETATM    6  C   UNK N   1      29.210  17.677   7.429  0.00  0.00     0.036 A 
ENDROOT
BRANCH   1   7
HETATM    7  C   UNK N   1      33.438  17.548   8.079  0.00  0.00     0.168 C 
BRANCH   7   8
HETATM    8  O   UNK N   1      34.287  18.314   7.269  0.00  0.00    -0.389 OA
HETATM    9  H   UNK N   1      34.935  17.875   6.695  0.00  0.00     0.210 HD
ENDBRANCH   7   8
BRANCH   7  10
HETATM   10  C   UNK N   1      33.986  16.655   9.175  0.00  0.00     0.149 C 
BRANCH  10  11
HETATM   11  N   UNK N   1      34.823  17.358  10.117  0.00  0.00    -0.423 N 
HETATM   12  C   UNK N   1      35.484  16.299  10.855  0.00  0.00     0.139 C 
HETATM   13  H   UNK N   1      34.925  18.365  10.236  0.00  0.00     0.152 HD
ENDBRANCH  10  11
ENDBRANCH   7  10
ENDBRANCH   1   7
BRANCH   4  14
HETATM   14  O   UNK N   1      28.939  18.716   9.546  0.00  0.00    -0.361 OA
HETATM   15  H   UNK N   1      28.956  18.388  10.423  0.00  0.00     0.217 HD
ENDBRANCH   4  14
TORSDOF 5
ENDMDL
MODEL 8
REMARK VINA RESULT:      -4.5     25.861     27.338
REMARK  5 active torsions:
REMARK  status: ('A' for Active; 'I' for Inactive)
REMARK    1  A    between atoms: C_4  and  O_1 
REMARK    2  A    between atoms: O_2  and  C_9 
REMARK    3  A    between atoms: N_3  and  C_5 
REMARK    4  A    between atoms: C_4  and  C_5 
REMARK    5  A    between atoms: C_4  and  C_6 
ROOT
HETATM    1  C   UNK N   1      26.288  27.776  -4.051  0.00  0.00    -0.025 A 
HETATM    2  C   UNK N   1      26.568  26.563  -3.424  0.00  0.00     0.046 A 
HETATM    3  C   UNK N   1      25.595  27.788  -5.272  0.00  0.00     0.010 A 
HETATM    4  C   UNK N   1      26.160  25.363  -4.011  0.00  0.00     0.066 A 
HETATM    5  C   UNK N   1      25.186  26.593  -5.860  0.00  0.00     0.003 A 
HETATM    6  C   UNK N   1      25.467  25.381  -5.231  0.00  0.00     0.036 A 
ENDROOT
BRANCH   1   7
HETATM    7  C   UNK N   1      26.713  29.066  -3.446  0.00  0.00     0.168 C 
BRANCH   7   8
HETATM    8  O   UNK N   1      25.927  30.213  -3.620  0.00  0.00    -0.389 OA
HETATM    9  H   UNK N   1      26.254  31.075  -3.318  0.00  0.00     0.210 HD
ENDBRANCH   7   8
BRANCH   7  10
HETATM   10  C   UNK N   1      28.001  29.106  -2.646  0.00  0.00     0.149 C 
BRANCH  10  11
HETATM   11  N   UNK N   1      27.818  29.573  -1.294  0.00  0.00    -0.423 N 
HETATM   12  C   UNK N   1      29.145  29.996  -0.888  0.00  0.00     0.139 C 
HETATM   13  H   UNK N   1      26.956  29.601  -0.750  0.00  0.00     0.152 HD
ENDBRANCH  10  11
ENDBRANCH   7  10
ENDBRANCH   1   7
BRANCH   4  14
HETATM   14  O   UNK N   1      26.428  24.200  -3.410  0.00  0.00    -0.361 OA
HETATM   15  H   UNK N   1      27.284  23.826  -3.475  0.00  0.00     0.217 HD
ENDBRANCH   4  14
TORSDOF 5
ENDMDL
MODEL 9
REMARK VINA RESULT:      -4.5     10.487     11.902
REMARK  5 active torsions:
REMARK  status: ('A' for Active; 'I' for Inactive)
REMARK    1  A    between atoms: C_4  and  O_1 
REMARK    2  A    between atoms: O_2  and  C_9 
REMARK    3  A    between atoms: N_3  and  C_5 
REMARK    4  A    between atoms: C_4  and  C_5 
REMARK    5  A    between atoms: C_4  and  C_6 
ROOT
HETATM    1  C   UNK N   1      30.739  17.383   8.069  0.00  0.00    -0.025 A 
HETATM    2  C   UNK N   1      29.740  17.742   8.972  0.00  0.00     0.046 A 
HETATM    3  C   UNK N   1      30.414  17.157   6.722  0.00  0.00     0.010 A 
HETATM    4  C   UNK N   1      28.419  17.876   8.536  0.00  0.00     0.066 A 
HETATM    5  C   UNK N   1      29.099  17.290   6.283  0.00  0.00     0.003 A 
HETATM    6  C   UNK N   1      28.101  17.649   7.188  0.00  0.00     0.036 A 
ENDROOT
BRANCH   1   7
HETATM    7  C   UNK N   1      32.151  17.234   8.510  0.00  0.00     0.168 C 
BRANCH   7   8
HETATM    8  O   UNK N   1      32.496  16.230   9.424  0.00  0.00    -0.389 OA
HETATM    9  H   UNK N   1      33.278  15.677   9.265  0.00  0.00     0.210 HD
ENDBRANCH   7   8
BRANCH   7  10
HETATM   10  C   UNK N   1      33.192  18.185   7.951  0.00  0.00     0.149 C 
BRANCH  10  11
HETATM   11  N   UNK N   1      34.397  17.519   7.521  0.00  0.00    -0.423 N 
HETATM   12  C   UNK N   1      34.053  16.981   6.219  0.00  0.00     0.139 C 
HETATM   13  H   UNK N   1      35.285  17.444   8.017  0.00  0.00     0.152 HD
ENDBRANCH  10  11
ENDBRANCH   7  10
ENDBRANCH   1   7
BRANCH   4  14
HETATM   14  O   UNK N   1      27.461  18.221   9.401  0.00  0.00    -0.361 OA
HETATM   15  H   UNK N   1      26.717  17.664   9.522  0.00  0.00     0.217 HD
ENDBRANCH   4  14
TORSDOF 5
ENDMDL
