REMARK  5 active torsions:
REMARK  status: ('A' for Active; 'I' for Inactive)
REMARK    1  A    between atoms: C_4  and  O_1 
REMARK    2  A    between atoms: O_2  and  C_9 
REMARK    3  A    between atoms: N_3  and  C_5 
REMARK    4  A    between atoms: C_4  and  C_5 
REMARK    5  A    between atoms: C_4  and  C_6 
ROOT
HETATM    1  C   UNK N   1       3.012  -0.179  -0.000  0.00  0.00    -0.025 A 
HETATM    2  C   UNK N   1       1.792  -0.852  -0.000  0.00  0.00     0.046 A 
HETATM    3  C   UNK N   1       4.212  -0.908  -0.000  0.00  0.00     0.010 A 
HETATM    4  C   UNK N   1       1.765  -2.249   0.000  0.00  0.00     0.066 A 
HETATM    5  C   UNK N   1       4.189  -2.301   0.000  0.00  0.00     0.003 A 
HETATM    6  C   UNK N   1       2.967  -2.972   0.000  0.00  0.00     0.036 A 
ENDROOT
BRANCH   1   7
HETATM    7  C   UNK N   1       3.066   1.307  -0.000  0.00  0.00     0.168 C 
BRANCH   7   8
HETATM    8  O   UNK N   1       1.878   2.050   0.000  0.00  0.00    -0.389 OA
HETATM    9  H   UNK N   1       1.913   3.020   0.000  0.00  0.00     0.210 HD
ENDBRANCH   7   8
BRANCH   7  10
HETATM   10  C   UNK N   1       4.422   1.986   0.000  0.00  0.00     0.149 C 
BRANCH  10  11
HETATM   11  N   UNK N   1       4.337   3.426  -0.000  0.00  0.00    -0.423 N 
HETATM   12  C   UNK N   1       5.722   3.857  -0.000  0.00  0.00     0.139 C 
HETATM   13  H   UNK N   1       3.499   4.006  -0.000  0.00  0.00     0.152 HD
ENDBRANCH  10  11
ENDBRANCH   7  10
ENDBRANCH   1   7
BRANCH   4  14
HETATM   14  O   UNK N   1       0.595  -2.895   0.000  0.00  0.00    -0.361 OA
HETATM   15  H   UNK N   1      -0.207  -2.411   0.000  0.00  0.00     0.217 HD
ENDBRANCH   4  14
TORSDOF 5
