REMARK  2 active torsions:
REMARK  status: ('A' for Active; 'I' for Inactive)
REMARK    1  A    between atoms: O_2  and  C_10 
REMARK    2  A    between atoms: O_2  and  C_11 
REMARK       I    between atoms: N_5  and  C_10 
ROOT
HETATM    1  S   UNK N   1       5.182   0.920  -0.000  0.00  0.00    -0.040 SA
HETATM    2  O   UNK N   1       3.822  -1.597  -0.000  0.00  0.00    -0.237 OA
HETATM    3  N   UNK N   1       3.338   2.549  -0.000  0.00  0.00    -0.337 N 
HETATM    4  N   UNK N   1       2.751   0.396   0.000  0.00  0.00    -0.243 N 
HETATM    5  C   UNK N   1       3.782   1.277  -0.000  0.00  0.00     0.188 A 
HETATM    6  C   UNK N   1       1.625   1.146   0.000  0.00  0.00     0.122 A 
HETATM    7  C   UNK N   1       1.993   2.486   0.000  0.00  0.00     0.110 A 
HETATM    8  C   UNK N   1       4.120   3.778  -0.000  0.00  0.00     0.158 C 
HETATM    9  C   UNK N   1       2.762  -0.984   0.000  0.00  0.00     0.373 C 
ENDROOT
BRANCH   9  10
HETATM   10  O   UNK N   1       1.588  -1.663   0.000  0.00  0.00    -0.304 OA
BRANCH  10  11
HETATM   11  C   UNK N   1       1.537  -3.037   0.000  0.00  0.00     0.176 C 
HETATM   12  C   UNK N   1       0.093  -3.487  -0.000  0.00  0.00     0.034 C 
ENDBRANCH  10  11
ENDBRANCH   9  10
TORSDOF 2
