MODEL 1
REMARK VINA RESULT:      -4.2      0.000      0.000
REMARK  2 active torsions:
REMARK  status: ('A' for Active; 'I' for Inactive)
REMARK    1  A    between atoms: O_2  and  C_10 
REMARK    2  A    between atoms: O_2  and  C_11 
REMARK       I    between atoms: N_5  and  C_10 
ROOT
HETATM    1  S   UNK N   1      20.991  20.645   2.429  0.00  0.00    -0.040 SA
HETATM    2  O   UNK N   1      23.719  21.375   2.886  0.00  0.00    -0.237 OA
HETATM    3  N   UNK N   1      20.889  18.327   3.249  0.00  0.00    -0.337 N 
HETATM    4  N   UNK N   1      22.871  19.342   3.404  0.00  0.00    -0.243 N 
HETATM    5  C   UNK N   1      21.577  19.463   3.016  0.00  0.00     0.188 A 
HETATM    6  C   UNK N   1      22.993  18.087   3.895  0.00  0.00     0.122 A 
HETATM    7  C   UNK N   1      21.759  17.458   3.797  0.00  0.00     0.110 A 
HETATM    8  C   UNK N   1      19.485  18.051   2.977  0.00  0.00     0.158 C 
HETATM    9  C   UNK N   1      23.905  20.254   3.345  0.00  0.00     0.373 C 
ENDROOT
BRANCH   9  10
HETATM   10  O   UNK N   1      25.134  19.904   3.799  0.00  0.00    -0.304 OA
BRANCH  10  11
HETATM   11  C   UNK N   1      26.289  20.375   3.221  0.00  0.00     0.176 C 
HETATM   12  C   UNK N   1      27.475  19.980   4.072  0.00  0.00     0.034 C 
ENDBRANCH  10  11
ENDBRANCH   9  10
TORSDOF 2
ENDMDL
MODEL 2
REMARK VINA RESULT:      -4.2      8.998     10.649
REMARK  2 active torsions:
REMARK  status: ('A' for Active; 'I' for Inactive)
REMARK    1  A    between atoms: O_2  and  C_10 
REMARK    2  A    between atoms: O_2  and  C_11 
REMARK       I    between atoms: N_5  and  C_10 
ROOT
HETATM    1  S   UNK N   1      32.772  17.417   4.654  0.00  0.00    -0.040 SA
HETATM    2  O   UNK N   1      34.608  17.879   6.800  0.00  0.00    -0.237 OA
HETATM    3  N   UNK N   1      30.644  17.013   5.820  0.00  0.00    -0.337 N 
HETATM    4  N   UNK N   1      32.413  17.430   7.115  0.00  0.00    -0.243 N 
HETATM    5  C   UNK N   1      31.962  17.290   5.843  0.00  0.00     0.188 A 
HETATM    6  C   UNK N   1      31.337  17.233   7.911  0.00  0.00     0.122 A 
HETATM    7  C   UNK N   1      30.237  16.973   7.103  0.00  0.00     0.110 A 
HETATM    8  C   UNK N   1      29.788  16.792   4.662  0.00  0.00     0.158 C 
HETATM    9  C   UNK N   1      33.680  17.713   7.582  0.00  0.00     0.373 C 
ENDROOT
BRANCH   9  10
HETATM   10  O   UNK N   1      33.897  17.806   8.917  0.00  0.00    -0.304 OA
BRANCH  10  11
HETATM   11  C   UNK N   1      34.799  17.000   9.571  0.00  0.00     0.176 C 
HETATM   12  C   UNK N   1      34.202  15.622   9.754  0.00  0.00     0.034 C 
ENDBRANCH  10  11
ENDBRANCH   9  10
TORSDOF 2
ENDMDL
MODEL 3
REMARK VINA RESULT:      -4.1     11.412     13.361
REMARK  2 active torsions:
REMARK  status: ('A' for Active; 'I' for Inactive)
REMARK    1  A    between atoms: O_2  and  C_10 
REMARK    2  A    between atoms: O_2  and  C_11 
REMARK       I    between atoms: N_5  and  C_10 
ROOT
HETATM    1  S   UNK N   1      34.380  18.229   8.045  0.00  0.00    -0.040 SA
HETATM    2  O   UNK N   1      35.623  17.359  10.471  0.00  0.00    -0.237 OA
HETATM    3  N   UNK N   1      32.695  16.486   7.626  0.00  0.00    -0.337 N 
HETATM    4  N   UNK N   1      33.945  16.229   9.458  0.00  0.00    -0.243 N 
HETATM    5  C   UNK N   1      33.689  17.004   8.374  0.00  0.00     0.188 A 
HETATM    6  C   UNK N   1      33.080  15.192   9.382  0.00  0.00     0.122 A 
HETATM    7  C   UNK N   1      32.303  15.354   8.241  0.00  0.00     0.110 A 
HETATM    8  C   UNK N   1      32.127  17.010   6.392  0.00  0.00     0.158 C 
HETATM    9  C   UNK N   1      34.871  16.393  10.468  0.00  0.00     0.373 C 
ENDROOT
BRANCH   9  10
HETATM   10  O   UNK N   1      34.945  15.475  11.463  0.00  0.00    -0.304 OA
BRANCH  10  11
HETATM   11  C   UNK N   1      36.136  14.900  11.841  0.00  0.00     0.176 C 
HETATM   12  C   UNK N   1      35.941  14.145  13.137  0.00  0.00     0.034 C 
ENDBRANCH  10  11
ENDBRANCH   9  10
TORSDOF 2
ENDMDL
MODEL 4
REMARK VINA RESULT:      -4.1      8.776      9.749
REMARK  2 active torsions:
REMARK  status: ('A' for Active; 'I' for Inactive)
REMARK    1  A    between atoms: O_2  and  C_10 
REMARK    2  A    between atoms: O_2  and  C_11 
REMARK       I    between atoms: N_5  and  C_10 
ROOT
HETATM    1  S   UNK N   1      21.004  12.269  11.115  0.00  0.00    -0.040 SA
HETATM    2  O   UNK N   1      20.937  12.681   8.285  0.00  0.00    -0.237 OA
HETATM    3  N   UNK N   1      23.410  12.081  11.593  0.00  0.00    -0.337 N 
HETATM    4  N   UNK N   1      22.853  12.416   9.459  0.00  0.00    -0.243 N 
HETATM    5  C   UNK N   1      22.395  12.256  10.725  0.00  0.00     0.188 A 
HETATM    6  C   UNK N   1      24.201  12.338   9.541  0.00  0.00     0.122 A 
HETATM    7  C   UNK N   1      24.546  12.129  10.871  0.00  0.00     0.110 A 
HETATM    8  C   UNK N   1      23.341  11.877  13.034  0.00  0.00     0.158 C 
HETATM    9  C   UNK N   1      22.160  12.620   8.283  0.00  0.00     0.373 C 
ENDROOT
BRANCH   9  10
HETATM   10  O   UNK N   1      22.842  12.755   7.118  0.00  0.00    -0.304 OA
BRANCH  10  11
HETATM   11  C   UNK N   1      22.753  13.887   6.344  0.00  0.00     0.176 C 
HETATM   12  C   UNK N   1      23.821  14.871   6.767  0.00  0.00     0.034 C 
ENDBRANCH  10  11
ENDBRANCH   9  10
TORSDOF 2
ENDMDL
MODEL 5
REMARK VINA RESULT:      -4.0     18.730     20.709
REMARK  2 active torsions:
REMARK  status: ('A' for Active; 'I' for Inactive)
REMARK    1  A    between atoms: O_2  and  C_10 
REMARK    2  A    between atoms: O_2  and  C_11 
REMARK       I    between atoms: N_5  and  C_10 
ROOT
HETATM    1  S   UNK N   1      43.101  20.978   3.741  0.00  0.00    -0.040 SA
HETATM    2  O   UNK N   1      45.093  22.998   3.374  0.00  0.00    -0.237 OA
HETATM    3  N   UNK N   1      41.240  21.769   2.338  0.00  0.00    -0.337 N 
HETATM    4  N   UNK N   1      43.065  23.053   2.371  0.00  0.00    -0.243 N 
HETATM    5  C   UNK N   1      42.484  21.919   2.834  0.00  0.00     0.188 A 
HETATM    6  C   UNK N   1      42.150  23.631   1.558  0.00  0.00     0.122 A 
HETATM    7  C   UNK N   1      41.015  22.830   1.539  0.00  0.00     0.110 A 
HETATM    8  C   UNK N   1      40.292  20.692   2.588  0.00  0.00     0.158 C 
HETATM    9  C   UNK N   1      44.316  23.578   2.625  0.00  0.00     0.373 C 
ENDROOT
BRANCH   9  10
HETATM   10  O   UNK N   1      44.684  24.745   2.040  0.00  0.00    -0.304 OA
BRANCH  10  11
HETATM   11  C   UNK N   1      45.937  25.285   2.209  0.00  0.00     0.176 C 
HETATM   12  C   UNK N   1      46.714  25.165   0.917  0.00  0.00     0.034 C 
ENDBRANCH  10  11
ENDBRANCH   9  10
TORSDOF 2
ENDMDL
MODEL 6
REMARK VINA RESULT:      -4.0     12.768     14.064
REMARK  2 active torsions:
REMARK  status: ('A' for Active; 'I' for Inactive)
REMARK    1  A    between atoms: O_2  and  C_10 
REMARK    2  A    between atoms: O_2  and  C_11 
REMARK       I    between atoms: N_5  and  C_10 
ROOT
HETATM    1  S   UNK N   1      36.426  14.571  11.038  0.00  0.00    -0.040 SA
HETATM    2  O   UNK N   1      35.692  17.253  10.367  0.00  0.00    -0.237 OA
HETATM    3  N   UNK N   1      34.674  13.226   9.953  0.00  0.00    -0.337 N 
HETATM    4  N   UNK N   1      34.517  15.438   9.700  0.00  0.00    -0.243 N 
HETATM    5  C   UNK N   1      35.228  14.419  10.244  0.00  0.00     0.188 A 
HETATM    6  C   UNK N   1      33.484  14.859   9.046  0.00  0.00     0.122 A 
HETATM    7  C   UNK N   1      33.584  13.482   9.205  0.00  0.00     0.110 A 
HETATM    8  C   UNK N   1      35.128  11.900  10.346  0.00  0.00     0.158 C 
HETATM    9  C   UNK N   1      34.733  16.800   9.754  0.00  0.00     0.373 C 
ENDROOT
BRANCH   9  10
HETATM   10  O   UNK N   1      33.875  17.640   9.123  0.00  0.00    -0.304 OA
BRANCH  10  11
HETATM   11  C   UNK N   1      34.251  18.385   8.031  0.00  0.00     0.176 C 
HETATM   12  C   UNK N   1      33.831  17.671   6.766  0.00  0.00     0.034 C 
ENDBRANCH  10  11
ENDBRANCH   9  10
TORSDOF 2
ENDMDL
MODEL 7
REMARK VINA RESULT:      -4.0      8.415      9.671
REMARK  2 active torsions:
REMARK  status: ('A' for Active; 'I' for Inactive)
REMARK    1  A    between atoms: O_2  and  C_10 
REMARK    2  A    between atoms: O_2  and  C_11 
REMARK       I    between atoms: N_5  and  C_10 
ROOT
HETATM    1  S   UNK N   1      24.221  12.862   9.816  0.00  0.00    -0.040 SA
HETATM    2  O   UNK N   1      22.627  13.925   7.691  0.00  0.00    -0.237 OA
HETATM    3  N   UNK N   1      22.547  12.233  11.506  0.00  0.00    -0.337 N 
HETATM    4  N   UNK N   1      21.756  13.129   9.622  0.00  0.00    -0.243 N 
HETATM    5  C   UNK N   1      22.865  12.746  10.302  0.00  0.00     0.188 A 
HETATM    6  C   UNK N   1      20.710  12.845  10.432  0.00  0.00     0.122 A 
HETATM    7  C   UNK N   1      21.205  12.288  11.604  0.00  0.00     0.110 A 
HETATM    8  C   UNK N   1      23.442  11.712  12.530  0.00  0.00     0.158 C 
HETATM    9  C   UNK N   1      21.633  13.696   8.369  0.00  0.00     0.373 C 
ENDROOT
BRANCH   9  10
HETATM   10  O   UNK N   1      20.402  13.999   7.889  0.00  0.00    -0.304 OA
BRANCH  10  11
HETATM   11  C   UNK N   1      20.068  15.269   7.480  0.00  0.00     0.176 C 
HETATM   12  C   UNK N   1      20.102  16.205   8.667  0.00  0.00     0.034 C 
ENDBRANCH  10  11
ENDBRANCH   9  10
TORSDOF 2
ENDMDL
MODEL 8
REMARK VINA RESULT:      -4.0      2.069      4.433
REMARK  2 active torsions:
REMARK  status: ('A' for Active; 'I' for Inactive)
REMARK    1  A    between atoms: O_2  and  C_10 
REMARK    2  A    between atoms: O_2  and  C_11 
REMARK       I    between atoms: N_5  and  C_10 
ROOT
HETATM    1  S   UNK N   1      25.346  20.404   2.741  0.00  0.00    -0.040 SA
HETATM    2  O   UNK N   1      22.607  21.218   2.614  0.00  0.00    -0.237 OA
HETATM    3  N   UNK N   1      25.252  18.337   4.072  0.00  0.00    -0.337 N 
HETATM    4  N   UNK N   1      23.303  19.359   3.700  0.00  0.00    -0.243 N 
HETATM    5  C   UNK N   1      24.643  19.388   3.489  0.00  0.00     0.188 A 
HETATM    6  C   UNK N   1      23.070  18.251   4.440  0.00  0.00     0.122 A 
HETATM    7  C   UNK N   1      24.284  17.616   4.670  0.00  0.00     0.110 A 
HETATM    8  C   UNK N   1      26.670  18.006   4.080  0.00  0.00     0.158 C 
HETATM    9  C   UNK N   1      22.320  20.233   3.283  0.00  0.00     0.373 C 
ENDROOT
BRANCH   9  10
HETATM   10  O   UNK N   1      21.028  19.996   3.619  0.00  0.00    -0.304 OA
BRANCH  10  11
HETATM   11  C   UNK N   1      20.065  19.722   2.677  0.00  0.00     0.176 C 
HETATM   12  C   UNK N   1      19.591  18.295   2.842  0.00  0.00     0.034 C 
ENDBRANCH  10  11
ENDBRANCH   9  10
TORSDOF 2
ENDMDL
MODEL 9
REMARK VINA RESULT:      -3.9     10.761     11.630
REMARK  2 active torsions:
REMARK  status: ('A' for Active; 'I' for Inactive)
REMARK    1  A    between atoms: O_2  and  C_10 
REMARK    2  A    between atoms: O_2  and  C_11 
REMARK       I    between atoms: N_5  and  C_10 
ROOT
HETATM    1  S   UNK N   1      27.749  22.686  -7.145  0.00  0.00    -0.040 SA
HETATM    2  O   UNK N   1      25.432  24.364  -7.190  0.00  0.00    -0.237 OA
HETATM    3  N   UNK N   1      28.744  23.170  -4.947  0.00  0.00    -0.337 N 
HETATM    4  N   UNK N   1      26.869  24.273  -5.444  0.00  0.00    -0.243 N 
HETATM    5  C   UNK N   1      27.782  23.366  -5.870  0.00  0.00     0.188 A 
HETATM    6  C   UNK N   1      27.276  24.655  -4.212  0.00  0.00     0.122 A 
HETATM    7  C   UNK N   1      28.443  23.967  -3.905  0.00  0.00     0.110 A 
HETATM    8  C   UNK N   1      29.897  22.282  -5.019  0.00  0.00     0.158 C 
HETATM    9  C   UNK N   1      25.739  24.757  -6.071  0.00  0.00     0.373 C 
ENDROOT
BRANCH   9  10
HETATM   10  O   UNK N   1      24.964  25.675  -5.441  0.00  0.00    -0.304 OA
BRANCH  10  11
HETATM   11  C   UNK N   1      24.948  26.998  -5.813  0.00  0.00     0.176 C 
HETATM   12  C   UNK N   1      25.371  27.856  -4.641  0.00  0.00     0.034 C 
ENDBRANCH  10  11
ENDBRANCH   9  10
TORSDOF 2
ENDMDL
