MODEL 1
REMARK VINA RESULT:      -6.4      0.000      0.000
REMARK  7 active torsions:
REMARK  status: ('A' for Active; 'I' for Inactive)
REMARK    1  A    between atoms: S_1  and  N_8 
REMARK    2  A    between atoms: S_1  and  C_20 
REMARK    3  A    between atoms: O_3  and  C_19 
REMARK    4  A    between atoms: N_6  and  C_14 
REMARK    5  A    between atoms: N_7  and  C_13 
REMARK       I    between atoms: N_7  and  C_16 
REMARK    6  A    between atoms: C_9  and  C_13 
REMARK    7  A    between atoms: C_16  and  C_17 
ROOT
HETATM    1  C   UNK N   1      35.387  14.521  10.359  0.00  0.00     0.066 A 
HETATM    2  C   UNK N   1      35.156  15.862   9.991  0.00  0.00     0.045 A 
HETATM    3  C   UNK N   1      35.355  13.525   9.342  0.00  0.00     0.084 A 
HETATM    4  C   UNK N   1      34.925  16.222   8.667  0.00  0.00     0.080 A 
HETATM    5  C   UNK N   1      35.160  13.910   8.010  0.00  0.00     0.039 A 
HETATM    6  C   UNK N   1      34.929  15.245   7.676  0.00  0.00     0.028 A 
ENDROOT
BRANCH   1   7
HETATM    7  C   UNK N   1      35.618  14.264  11.805  0.00  0.00     0.254 C 
HETATM    8  O   UNK N   1      35.972  15.155  12.570  0.00  0.00    -0.268 OA
HETATM    9  N   UNK N   1      35.460  13.008  12.261  0.00  0.00    -0.355 N 
HETATM   10  H   UNK N   1      35.078  12.344  11.643  0.00  0.00     0.162 HD
BRANCH   9  11
HETATM   11  C   UNK N   1      35.804  12.561  13.581  0.00  0.00     0.158 C 
BRANCH  11  12
HETATM   12  C   UNK N   1      34.498  12.331  14.363  0.00  0.00     0.240 C 
HETATM   13  N   UNK N   1      34.630  12.365  15.830  0.00  0.00     0.094 N 
HETATM   14  C   UNK N   1      35.136  11.052  16.196  0.00  0.00     0.273 C 
HETATM   15  C   UNK N   1      34.565  10.076  15.182  0.00  0.00     0.032 C 
HETATM   16  C   UNK N   1      34.000  10.935  14.063  0.00  0.00     0.039 C 
BRANCH  13  17
HETATM   17  C   UNK N   1      35.502  13.416  16.354  0.00  0.00     0.268 C 
HETATM   18  C   UNK N   1      35.203  13.685  17.816  0.00  0.00     0.037 C 
ENDBRANCH  13  17
ENDBRANCH  11  12
ENDBRANCH   9  11
ENDBRANCH   1   7
BRANCH   3  19
HETATM   19  O   UNK N   1      35.492  12.202   9.593  0.00  0.00    -0.355 OA
HETATM   20  C   UNK N   1      34.539  11.283   9.218  0.00  0.00     0.210 C 
ENDBRANCH   3  19
BRANCH   4  21
HETATM   21  S   UNK N   1      34.320  17.859   8.287  0.00  0.00     0.256 S 
HETATM   22  O   UNK N   1      34.518  17.810   6.772  0.00  0.00    -0.201 OA
HETATM   23  O   UNK N   1      35.231  19.069   8.548  0.00  0.00    -0.201 OA
BRANCH  21  24
HETATM   24  N   UNK N   1      32.632  18.380   8.274  0.00  0.00    -0.324 N 
HETATM   25  H   UNK N   1      32.076  18.369   7.419  0.00  0.00     0.169 HD
HETATM   26  H   UNK N   1      32.203  18.701   9.142  0.00  0.00     0.169 HD
ENDBRANCH  21  24
ENDBRANCH   4  21
TORSDOF 7
ENDMDL
MODEL 2
REMARK VINA RESULT:      -6.3      3.525      4.942
REMARK  7 active torsions:
REMARK  status: ('A' for Active; 'I' for Inactive)
REMARK    1  A    between atoms: S_1  and  N_8 
REMARK    2  A    between atoms: S_1  and  C_20 
REMARK    3  A    between atoms: O_3  and  C_19 
REMARK    4  A    between atoms: N_6  and  C_14 
REMARK    5  A    between atoms: N_7  and  C_13 
REMARK       I    between atoms: N_7  and  C_16 
REMARK    6  A    between atoms: C_9  and  C_13 
REMARK    7  A    between atoms: C_16  and  C_17 
ROOT
HETATM    1  C   UNK N   1      32.551  17.015   8.236  0.00  0.00     0.066 A 
HETATM    2  C   UNK N   1      31.373  17.563   8.785  0.00  0.00     0.045 A 
HETATM    3  C   UNK N   1      32.516  16.541   6.895  0.00  0.00     0.084 A 
HETATM    4  C   UNK N   1      30.205  17.667   8.037  0.00  0.00     0.080 A 
HETATM    5  C   UNK N   1      31.343  16.690   6.144  0.00  0.00     0.039 A 
HETATM    6  C   UNK N   1      30.191  17.231   6.715  0.00  0.00     0.028 A 
ENDROOT
BRANCH   1   7
HETATM    7  C   UNK N   1      33.732  16.956   9.137  0.00  0.00     0.254 C 
HETATM    8  O   UNK N   1      34.662  17.750   9.036  0.00  0.00    -0.268 OA
HETATM    9  N   UNK N   1      33.779  15.980  10.062  0.00  0.00    -0.355 N 
HETATM   10  H   UNK N   1      32.973  15.427  10.181  0.00  0.00     0.162 HD
BRANCH   9  11
HETATM   11  C   UNK N   1      34.913  15.681  10.889  0.00  0.00     0.158 C 
BRANCH  11  12
HETATM   12  C   UNK N   1      34.794  14.217  11.353  0.00  0.00     0.240 C 
HETATM   13  N   UNK N   1      35.853  13.761  12.270  0.00  0.00     0.094 N 
HETATM   14  C   UNK N   1      36.986  13.448  11.416  0.00  0.00     0.273 C 
HETATM   15  C   UNK N   1      36.407  12.958  10.101  0.00  0.00     0.032 C 
HETATM   16  C   UNK N   1      34.933  13.320  10.144  0.00  0.00     0.039 C 
BRANCH  13  17
HETATM   17  C   UNK N   1      36.238  14.721  13.305  0.00  0.00     0.268 C 
HETATM   18  C   UNK N   1      36.553  14.012  14.607  0.00  0.00     0.037 C 
ENDBRANCH  13  17
ENDBRANCH  11  12
ENDBRANCH   9  11
ENDBRANCH   1   7
BRANCH   3  19
HETATM   19  O   UNK N   1      33.566  15.934   6.293  0.00  0.00    -0.355 OA
HETATM   20  C   UNK N   1      33.757  14.573   6.354  0.00  0.00     0.210 C 
ENDBRANCH   3  19
BRANCH   4  21
HETATM   21  S   UNK N   1      28.664  18.057   8.851  0.00  0.00     0.256 S 
HETATM   22  O   UNK N   1      29.246  18.788  10.062  0.00  0.00    -0.201 OA
HETATM   23  O   UNK N   1      27.937  16.956   9.639  0.00  0.00    -0.201 OA
BRANCH  21  24
HETATM   24  N   UNK N   1      27.508  19.305   8.374  0.00  0.00    -0.324 N 
HETATM   25  H   UNK N   1      27.198  20.024   9.027  0.00  0.00     0.169 HD
HETATM   26  H   UNK N   1      27.140  19.305   7.423  0.00  0.00     0.169 HD
ENDBRANCH  21  24
ENDBRANCH   4  21
TORSDOF 7
ENDMDL
MODEL 3
REMARK VINA RESULT:      -6.3     18.032     20.904
REMARK  7 active torsions:
REMARK  status: ('A' for Active; 'I' for Inactive)
REMARK    1  A    between atoms: S_1  and  N_8 
REMARK    2  A    between atoms: S_1  and  C_20 
REMARK    3  A    between atoms: O_3  and  C_19 
REMARK    4  A    between atoms: N_6  and  C_14 
REMARK    5  A    between atoms: N_7  and  C_13 
REMARK       I    between atoms: N_7  and  C_16 
REMARK    6  A    between atoms: C_9  and  C_13 
REMARK    7  A    between atoms: C_16  and  C_17 
ROOT
HETATM    1  C   UNK N   1      26.725  25.452  -4.154  0.00  0.00     0.066 A 
HETATM    2  C   UNK N   1      27.124  26.725  -3.695  0.00  0.00     0.045 A 
HETATM    3  C   UNK N   1      25.688  25.378  -5.126  0.00  0.00     0.084 A 
HETATM    4  C   UNK N   1      26.545  27.888  -4.190  0.00  0.00     0.080 A 
HETATM    5  C   UNK N   1      25.145  26.561  -5.642  0.00  0.00     0.039 A 
HETATM    6  C   UNK N   1      25.556  27.805  -5.165  0.00  0.00     0.028 A 
ENDROOT
BRANCH   1   7
HETATM    7  C   UNK N   1      27.417  24.285  -3.545  0.00  0.00     0.254 C 
HETATM    8  O   UNK N   1      27.011  23.760  -2.513  0.00  0.00    -0.268 OA
HETATM    9  N   UNK N   1      28.534  23.826  -4.139  0.00  0.00    -0.355 N 
HETATM   10  H   UNK N   1      28.771  24.205  -5.016  0.00  0.00     0.162 HD
BRANCH   9  11
HETATM   11  C   UNK N   1      29.408  22.827  -3.593  0.00  0.00     0.158 C 
BRANCH  11  12
HETATM   12  C   UNK N   1      30.723  22.853  -4.394  0.00  0.00     0.240 C 
HETATM   13  N   UNK N   1      30.982  21.657  -5.213  0.00  0.00     0.094 N 
HETATM   14  C   UNK N   1      31.511  20.670  -4.287  0.00  0.00     0.273 C 
HETATM   15  C   UNK N   1      32.275  21.444  -3.228  0.00  0.00     0.032 C 
HETATM   16  C   UNK N   1      31.876  22.897  -3.418  0.00  0.00     0.039 C 
BRANCH  13  17
HETATM   17  C   UNK N   1      29.821  21.124  -5.925  0.00  0.00     0.268 C 
HETATM   18  C   UNK N   1      30.232  20.019  -6.878  0.00  0.00     0.037 C 
ENDBRANCH  13  17
ENDBRANCH  11  12
ENDBRANCH   9  11
ENDBRANCH   1   7
BRANCH   3  19
HETATM   19  O   UNK N   1      25.179  24.209  -5.582  0.00  0.00    -0.355 OA
HETATM   20  C   UNK N   1      25.772  23.500  -6.601  0.00  0.00     0.210 C 
ENDBRANCH   3  19
BRANCH   4  21
HETATM   21  S   UNK N   1      26.839  29.444  -3.364  0.00  0.00     0.256 S 
HETATM   22  O   UNK N   1      28.126  29.830  -4.094  0.00  0.00    -0.201 OA
HETATM   23  O   UNK N   1      27.433  29.434  -1.946  0.00  0.00    -0.201 OA
BRANCH  21  24
HETATM   24  N   UNK N   1      25.970  30.959  -3.631  0.00  0.00    -0.324 N 
HETATM   25  H   UNK N   1      26.333  31.850  -3.292  0.00  0.00     0.169 HD
HETATM   26  H   UNK N   1      25.084  30.942  -4.136  0.00  0.00     0.169 HD
ENDBRANCH  21  24
ENDBRANCH   4  21
TORSDOF 7
ENDMDL
MODEL 4
REMARK VINA RESULT:      -6.2     10.623     12.903
REMARK  7 active torsions:
REMARK  status: ('A' for Active; 'I' for Inactive)
REMARK    1  A    between atoms: S_1  and  N_8 
REMARK    2  A    between atoms: S_1  and  C_20 
REMARK    3  A    between atoms: O_3  and  C_19 
REMARK    4  A    between atoms: N_6  and  C_14 
REMARK    5  A    between atoms: N_7  and  C_13 
REMARK       I    between atoms: N_7  and  C_16 
REMARK    6  A    between atoms: C_9  and  C_13 
REMARK    7  A    between atoms: C_16  and  C_17 
ROOT
HETATM    1  C   UNK N   1      24.211  18.196   4.485  0.00  0.00     0.066 A 
HETATM    2  C   UNK N   1      23.439  19.101   3.727  0.00  0.00     0.045 A 
HETATM    3  C   UNK N   1      23.558  17.072   5.066  0.00  0.00     0.084 A 
HETATM    4  C   UNK N   1      22.078  18.900   3.522  0.00  0.00     0.080 A 
HETATM    5  C   UNK N   1      22.195  16.865   4.817  0.00  0.00     0.039 A 
HETATM    6  C   UNK N   1      21.457  17.781   4.067  0.00  0.00     0.028 A 
ENDROOT
BRANCH   1   7
HETATM    7  C   UNK N   1      25.653  18.522   4.633  0.00  0.00     0.254 C 
HETATM    8  O   UNK N   1      26.316  18.961   3.698  0.00  0.00    -0.268 OA
HETATM    9  N   UNK N   1      26.238  18.293   5.823  0.00  0.00    -0.355 N 
HETATM   10  H   UNK N   1      25.656  18.038   6.575  0.00  0.00     0.162 HD
BRANCH   9  11
HETATM   11  C   UNK N   1      27.647  18.393   6.083  0.00  0.00     0.158 C 
BRANCH  11  12
HETATM   12  C   UNK N   1      28.066  17.168   6.917  0.00  0.00     0.240 C 
HETATM   13  N   UNK N   1      29.239  17.373   7.785  0.00  0.00     0.094 N 
HETATM   14  C   UNK N   1      30.389  17.229   6.909  0.00  0.00     0.273 C 
HETATM   15  C   UNK N   1      29.992  16.223   5.844  0.00  0.00     0.032 C 
HETATM   16  C   UNK N   1      28.487  16.066   5.971  0.00  0.00     0.039 C 
BRANCH  13  17
HETATM   17  C   UNK N   1      29.282  18.657   8.484  0.00  0.00     0.268 C 
HETATM   18  C   UNK N   1      29.640  18.464   9.944  0.00  0.00     0.037 C 
ENDBRANCH  13  17
ENDBRANCH  11  12
ENDBRANCH   9  11
ENDBRANCH   1   7
BRANCH   3  19
HETATM   19  O   UNK N   1      24.185  16.181   5.870  0.00  0.00    -0.355 OA
HETATM   20  C   UNK N   1      23.512  15.156   6.492  0.00  0.00     0.210 C 
ENDBRANCH   3  19
BRANCH   4  21
HETATM   21  S   UNK N   1      21.082  20.217   2.843  0.00  0.00     0.256 S 
HETATM   22  O   UNK N   1      22.162  21.298   2.803  0.00  0.00    -0.201 OA
HETATM   23  O   UNK N   1      20.110  20.970   3.766  0.00  0.00    -0.201 OA
BRANCH  21  24
HETATM   24  N   UNK N   1      20.547  20.376   1.167  0.00  0.00    -0.324 N 
HETATM   25  H   UNK N   1      20.159  19.585   0.652  0.00  0.00     0.169 HD
HETATM   26  H   UNK N   1      20.629  21.280   0.702  0.00  0.00     0.169 HD
ENDBRANCH  21  24
ENDBRANCH   4  21
TORSDOF 7
ENDMDL
MODEL 5
REMARK VINA RESULT:      -6.1      6.163     10.135
REMARK  7 active torsions:
REMARK  status: ('A' for Active; 'I' for Inactive)
REMARK    1  A    between atoms: S_1  and  N_8 
REMARK    2  A    between atoms: S_1  and  C_20 
REMARK    3  A    between atoms: O_3  and  C_19 
REMARK    4  A    between atoms: N_6  and  C_14 
REMARK    5  A    between atoms: N_7  and  C_13 
REMARK       I    between atoms: N_7  and  C_16 
REMARK    6  A    between atoms: C_9  and  C_13 
REMARK    7  A    between atoms: C_16  and  C_17 
ROOT
HETATM    1  C   UNK N   1      31.587  17.003   6.731  0.00  0.00     0.066 A 
HETATM    2  C   UNK N   1      32.203  16.468   7.881  0.00  0.00     0.045 A 
HETATM    3  C   UNK N   1      32.385  17.208   5.570  0.00  0.00     0.084 A 
HETATM    4  C   UNK N   1      33.549  16.121   7.888  0.00  0.00     0.080 A 
HETATM    5  C   UNK N   1      33.729  16.816   5.583  0.00  0.00     0.039 A 
HETATM    6  C   UNK N   1      34.312  16.294   6.737  0.00  0.00     0.028 A 
ENDROOT
BRANCH   1   7
HETATM    7  C   UNK N   1      30.143  17.337   6.851  0.00  0.00     0.254 C 
HETATM    8  O   UNK N   1      29.599  17.466   7.943  0.00  0.00    -0.268 OA
HETATM    9  N   UNK N   1      29.424  17.466   5.721  0.00  0.00    -0.355 N 
HETATM   10  H   UNK N   1      29.913  17.456   4.867  0.00  0.00     0.162 HD
BRANCH   9  11
HETATM   11  C   UNK N   1      27.997  17.617   5.664  0.00  0.00     0.158 C 
BRANCH  11  12
HETATM   12  C   UNK N   1      27.657  18.485   4.438  0.00  0.00     0.240 C 
HETATM   13  N   UNK N   1      27.040  19.787   4.743  0.00  0.00     0.094 N 
HETATM   14  C   UNK N   1      25.637  19.494   4.984  0.00  0.00     0.273 C 
HETATM   15  C   UNK N   1      25.289  18.311   4.098  0.00  0.00     0.032 C 
HETATM   16  C   UNK N   1      26.619  17.760   3.613  0.00  0.00     0.039 C 
BRANCH  13  17
HETATM   17  C   UNK N   1      27.618  20.501   5.881  0.00  0.00     0.268 C 
HETATM   18  C   UNK N   1      26.666  21.564   6.391  0.00  0.00     0.037 C 
ENDBRANCH  13  17
ENDBRANCH  11  12
ENDBRANCH   9  11
ENDBRANCH   1   7
BRANCH   3  19
HETATM   19  O   UNK N   1      31.914  17.781   4.437  0.00  0.00    -0.355 OA
HETATM   20  C   UNK N   1      32.172  17.258   3.191  0.00  0.00     0.210 C 
ENDBRANCH   3  19
BRANCH   4  21
HETATM   21  S   UNK N   1      34.362  15.758   9.436  0.00  0.00     0.256 S 
HETATM   22  O   UNK N   1      34.609  17.197   9.887  0.00  0.00    -0.201 OA
HETATM   23  O   UNK N   1      35.835  15.320   9.421  0.00  0.00    -0.201 OA
BRANCH  21  24
HETATM   24  N   UNK N   1      33.592  15.190  10.922  0.00  0.00    -0.324 N 
HETATM   25  H   UNK N   1      33.173  14.262  10.986  0.00  0.00     0.169 HD
HETATM   26  H   UNK N   1      33.565  15.805  11.735  0.00  0.00     0.169 HD
ENDBRANCH  21  24
ENDBRANCH   4  21
TORSDOF 7
ENDMDL
MODEL 6
REMARK VINA RESULT:      -6.0     19.368     22.155
REMARK  7 active torsions:
REMARK  status: ('A' for Active; 'I' for Inactive)
REMARK    1  A    between atoms: S_1  and  N_8 
REMARK    2  A    between atoms: S_1  and  C_20 
REMARK    3  A    between atoms: O_3  and  C_19 
REMARK    4  A    between atoms: N_6  and  C_14 
REMARK    5  A    between atoms: N_7  and  C_13 
REMARK       I    between atoms: N_7  and  C_16 
REMARK    6  A    between atoms: C_9  and  C_13 
REMARK    7  A    between atoms: C_16  and  C_17 
ROOT
HETATM    1  C   UNK N   1      27.486  24.136  -5.152  0.00  0.00     0.066 A 
HETATM    2  C   UNK N   1      26.431  23.664  -5.960  0.00  0.00     0.045 A 
HETATM    3  C   UNK N   1      28.775  23.554  -5.315  0.00  0.00     0.084 A 
HETATM    4  C   UNK N   1      26.635  22.673  -6.914  0.00  0.00     0.080 A 
HETATM    5  C   UNK N   1      28.970  22.585  -6.308  0.00  0.00     0.039 A 
HETATM    6  C   UNK N   1      27.906  22.134  -7.088  0.00  0.00     0.028 A 
ENDROOT
BRANCH   1   7
HETATM    7  C   UNK N   1      27.141  25.195  -4.168  0.00  0.00     0.254 C 
HETATM    8  O   UNK N   1      26.257  25.035  -3.331  0.00  0.00    -0.268 OA
HETATM    9  N   UNK N   1      27.804  26.364  -4.231  0.00  0.00    -0.355 N 
HETATM   10  H   UNK N   1      28.572  26.418  -4.845  0.00  0.00     0.162 HD
BRANCH   9  11
HETATM   11  C   UNK N   1      27.479  27.539  -3.473  0.00  0.00     0.158 C 
BRANCH  11  12
HETATM   12  C   UNK N   1      28.065  28.759  -4.208  0.00  0.00     0.240 C 
HETATM   13  N   UNK N   1      28.708  29.763  -3.343  0.00  0.00     0.094 N 
HETATM   14  C   UNK N   1      27.614  30.554  -2.803  0.00  0.00     0.273 C 
HETATM   15  C   UNK N   1      26.535  30.575  -3.870  0.00  0.00     0.032 C 
HETATM   16  C   UNK N   1      26.933  29.506  -4.874  0.00  0.00     0.039 C 
BRANCH  13  17
HETATM   17  C   UNK N   1      29.532  29.221  -2.262  0.00  0.00     0.268 C 
HETATM   18  C   UNK N   1      29.268  29.955  -0.962  0.00  0.00     0.037 C 
ENDBRANCH  13  17
ENDBRANCH  11  12
ENDBRANCH   9  11
ENDBRANCH   1   7
BRANCH   3  19
HETATM   19  O   UNK N   1      29.840  23.879  -4.546  0.00  0.00    -0.355 OA
HETATM   20  C   UNK N   1      30.109  23.237  -3.359  0.00  0.00     0.210 C 
ENDBRANCH   3  19
BRANCH   4  21
HETATM   21  S   UNK N   1      25.230  21.880  -7.680  0.00  0.00     0.256 S 
HETATM   22  O   UNK N   1      24.624  23.119  -8.340  0.00  0.00    -0.201 OA
HETATM   23  O   UNK N   1      24.010  21.524  -6.815  0.00  0.00    -0.201 OA
BRANCH  21  24
HETATM   24  N   UNK N   1      25.255  20.854  -9.118  0.00  0.00    -0.324 N 
HETATM   25  H   UNK N   1      25.366  19.842  -9.051  0.00  0.00     0.169 HD
HETATM   26  H   UNK N   1      25.156  21.283 -10.038  0.00  0.00     0.169 HD
ENDBRANCH  21  24
ENDBRANCH   4  21
TORSDOF 7
ENDMDL
MODEL 7
REMARK VINA RESULT:      -5.9      3.485      7.665
REMARK  7 active torsions:
REMARK  status: ('A' for Active; 'I' for Inactive)
REMARK    1  A    between atoms: S_1  and  N_8 
REMARK    2  A    between atoms: S_1  and  C_20 
REMARK    3  A    between atoms: O_3  and  C_19 
REMARK    4  A    between atoms: N_6  and  C_14 
REMARK    5  A    between atoms: N_7  and  C_13 
REMARK       I    between atoms: N_7  and  C_16 
REMARK    6  A    between atoms: C_9  and  C_13 
REMARK    7  A    between atoms: C_16  and  C_17 
ROOT
HETATM    1  C   UNK N   1      36.140  14.909  10.525  0.00  0.00     0.066 A 
HETATM    2  C   UNK N   1      35.854  14.745  11.896  0.00  0.00     0.045 A 
HETATM    3  C   UNK N   1      37.094  14.040   9.924  0.00  0.00     0.084 A 
HETATM    4  C   UNK N   1      36.463  13.747  12.649  0.00  0.00     0.080 A 
HETATM    5  C   UNK N   1      37.667  13.016  10.689  0.00  0.00     0.039 A 
HETATM    6  C   UNK N   1      37.369  12.882  12.045  0.00  0.00     0.028 A 
ENDROOT
BRANCH   1   7
HETATM    7  C   UNK N   1      35.428  16.013   9.829  0.00  0.00     0.254 C 
HETATM    8  O   UNK N   1      35.479  17.170  10.234  0.00  0.00    -0.268 OA
HETATM    9  N   UNK N   1      34.686  15.711   8.748  0.00  0.00    -0.355 N 
HETATM   10  H   UNK N   1      34.750  14.794   8.394  0.00  0.00     0.162 HD
BRANCH   9  11
HETATM   11  C   UNK N   1      33.808  16.621   8.069  0.00  0.00     0.158 C 
BRANCH  11  12
HETATM   12  C   UNK N   1      32.528  15.856   7.687  0.00  0.00     0.240 C 
HETATM   13  N   UNK N   1      32.028  16.111   6.325  0.00  0.00     0.094 N 
HETATM   14  C   UNK N   1      31.304  17.369   6.417  0.00  0.00     0.273 C 
HETATM   15  C   UNK N   1      30.716  17.422   7.816  0.00  0.00     0.032 C 
HETATM   16  C   UNK N   1      31.408  16.314   8.592  0.00  0.00     0.039 C 
BRANCH  13  17
HETATM   17  C   UNK N   1      33.054  16.184   5.285  0.00  0.00     0.268 C 
HETATM   18  C   UNK N   1      32.941  17.479   4.505  0.00  0.00     0.037 C 
ENDBRANCH  13  17
ENDBRANCH  11  12
ENDBRANCH   9  11
ENDBRANCH   1   7
BRANCH   3  19
HETATM   19  O   UNK N   1      37.497  14.153   8.636  0.00  0.00    -0.355 OA
HETATM   20  C   UNK N   1      37.214  13.193   7.693  0.00  0.00     0.210 C 
ENDBRANCH   3  19
BRANCH   4  21
HETATM   21  S   UNK N   1      36.326  13.776  14.430  0.00  0.00     0.256 S 
HETATM   22  O   UNK N   1      37.025  12.447  14.716  0.00  0.00    -0.201 OA
HETATM   23  O   UNK N   1      34.981  13.415  15.081  0.00  0.00    -0.201 OA
BRANCH  21  24
HETATM   24  N   UNK N   1      37.274  14.768  15.543  0.00  0.00    -0.324 N 
HETATM   25  H   UNK N   1      36.844  15.234  16.342  0.00  0.00     0.169 HD
HETATM   26  H   UNK N   1      38.275  14.878  15.382  0.00  0.00     0.169 HD
ENDBRANCH  21  24
ENDBRANCH   4  21
TORSDOF 7
ENDMDL
MODEL 8
REMARK VINA RESULT:      -5.9      3.757      8.787
REMARK  7 active torsions:
REMARK  status: ('A' for Active; 'I' for Inactive)
REMARK    1  A    between atoms: S_1  and  N_8 
REMARK    2  A    between atoms: S_1  and  C_20 
REMARK    3  A    between atoms: O_3  and  C_19 
REMARK    4  A    between atoms: N_6  and  C_14 
REMARK    5  A    between atoms: N_7  and  C_13 
REMARK       I    between atoms: N_7  and  C_16 
REMARK    6  A    between atoms: C_9  and  C_13 
REMARK    7  A    between atoms: C_16  and  C_17 
ROOT
HETATM    1  C   UNK N   1      33.736  15.278   9.287  0.00  0.00     0.066 A 
HETATM    2  C   UNK N   1      34.151  14.152  10.028  0.00  0.00     0.045 A 
HETATM    3  C   UNK N   1      34.266  16.552   9.639  0.00  0.00     0.084 A 
HETATM    4  C   UNK N   1      35.074  14.265  11.062  0.00  0.00     0.080 A 
HETATM    5  C   UNK N   1      35.223  16.640  10.656  0.00  0.00     0.039 A 
HETATM    6  C   UNK N   1      35.611  15.509  11.375  0.00  0.00     0.028 A 
ENDROOT
BRANCH   1   7
HETATM    7  C   UNK N   1      32.743  15.029   8.209  0.00  0.00     0.254 C 
HETATM    8  O   UNK N   1      32.345  13.899   7.947  0.00  0.00    -0.268 OA
HETATM    9  N   UNK N   1      32.304  16.080   7.492  0.00  0.00    -0.355 N 
HETATM   10  H   UNK N   1      32.567  16.979   7.796  0.00  0.00     0.162 HD
BRANCH   9  11
HETATM   11  C   UNK N   1      31.483  15.993   6.318  0.00  0.00     0.158 C 
BRANCH  11  12
HETATM   12  C   UNK N   1      31.687  17.279   5.496  0.00  0.00     0.240 C 
HETATM   13  N   UNK N   1      30.833  17.402   4.302  0.00  0.00     0.094 N 
HETATM   14  C   UNK N   1      31.484  16.593   3.285  0.00  0.00     0.273 C 
HETATM   15  C   UNK N   1      32.974  16.673   3.564  0.00  0.00     0.032 C 
HETATM   16  C   UNK N   1      33.097  17.280   4.951  0.00  0.00     0.039 C 
BRANCH  13  17
HETATM   17  C   UNK N   1      29.444  16.981   4.481  0.00  0.00     0.268 C 
HETATM   18  C   UNK N   1      28.594  18.129   4.991  0.00  0.00     0.037 C 
ENDBRANCH  13  17
ENDBRANCH  11  12
ENDBRANCH   9  11
ENDBRANCH   1   7
BRANCH   3  19
HETATM   19  O   UNK N   1      33.883  17.706   9.043  0.00  0.00    -0.355 OA
HETATM   20  C   UNK N   1      34.743  18.451   8.270  0.00  0.00     0.210 C 
ENDBRANCH   3  19
BRANCH   4  21
HETATM   21  S   UNK N   1      35.326  12.891  12.176  0.00  0.00     0.256 S 
HETATM   22  O   UNK N   1      34.824  13.563  13.454  0.00  0.00    -0.201 OA
HETATM   23  O   UNK N   1      36.747  12.589  12.678  0.00  0.00    -0.201 OA
BRANCH  21  24
HETATM   24  N   UNK N   1      34.336  11.432  12.289  0.00  0.00    -0.324 N 
HETATM   25  H   UNK N   1      33.611  11.223  11.603  0.00  0.00     0.169 HD
HETATM   26  H   UNK N   1      34.493  10.783  13.060  0.00  0.00     0.169 HD
ENDBRANCH  21  24
ENDBRANCH   4  21
TORSDOF 7
ENDMDL
MODEL 9
REMARK VINA RESULT:      -5.8     19.109     22.396
REMARK  7 active torsions:
REMARK  status: ('A' for Active; 'I' for Inactive)
REMARK    1  A    between atoms: S_1  and  N_8 
REMARK    2  A    between atoms: S_1  and  C_20 
REMARK    3  A    between atoms: O_3  and  C_19 
REMARK    4  A    between atoms: N_6  and  C_14 
REMARK    5  A    between atoms: N_7  and  C_13 
REMARK       I    between atoms: N_7  and  C_16 
REMARK    6  A    between atoms: C_9  and  C_13 
REMARK    7  A    between atoms: C_16  and  C_17 
ROOT
HETATM    1  C   UNK N   1      28.231  23.403  -5.715  0.00  0.00     0.066 A 
HETATM    2  C   UNK N   1      27.117  23.280  -6.571  0.00  0.00     0.045 A 
HETATM    3  C   UNK N   1      29.259  22.422  -5.797  0.00  0.00     0.084 A 
HETATM    4  C   UNK N   1      27.025  22.246  -7.496  0.00  0.00     0.080 A 
HETATM    5  C   UNK N   1      29.168  21.411  -6.761  0.00  0.00     0.039 A 
HETATM    6  C   UNK N   1      28.052  21.311  -7.591  0.00  0.00     0.028 A 
ENDROOT
BRANCH   1   7
HETATM    7  C   UNK N   1      28.211  24.549  -4.768  0.00  0.00     0.254 C 
HETATM    8  O   UNK N   1      28.082  24.386  -3.559  0.00  0.00    -0.268 OA
HETATM    9  N   UNK N   1      28.307  25.793  -5.272  0.00  0.00    -0.355 N 
HETATM   10  H   UNK N   1      28.510  25.881  -6.232  0.00  0.00     0.162 HD
BRANCH   9  11
HETATM   11  C   UNK N   1      28.135  27.004  -4.521  0.00  0.00     0.158 C 
BRANCH  11  12
HETATM   12  C   UNK N   1      27.350  28.001  -5.393  0.00  0.00     0.240 C 
HETATM   13  N   UNK N   1      26.338  28.798  -4.678  0.00  0.00     0.094 N 
HETATM   14  C   UNK N   1      25.183  27.923  -4.556  0.00  0.00     0.273 C 
HETATM   15  C   UNK N   1      25.190  27.032  -5.785  0.00  0.00     0.032 C 
HETATM   16  C   UNK N   1      26.559  27.220  -6.417  0.00  0.00     0.039 C 
BRANCH  13  17
HETATM   17  C   UNK N   1      26.747  29.295  -3.365  0.00  0.00     0.268 C 
HETATM   18  C   UNK N   1      26.649  30.807  -3.306  0.00  0.00     0.037 C 
ENDBRANCH  13  17
ENDBRANCH  11  12
ENDBRANCH   9  11
ENDBRANCH   1   7
BRANCH   3  19
HETATM   19  O   UNK N   1      30.335  22.403  -4.975  0.00  0.00    -0.355 OA
HETATM   20  C   UNK N   1      30.496  21.443  -4.003  0.00  0.00     0.210 C 
ENDBRANCH   3  19
BRANCH   4  21
HETATM   21  S   UNK N   1      25.474  21.937  -8.326  0.00  0.00     0.256 S 
HETATM   22  O   UNK N   1      25.678  20.448  -8.606  0.00  0.00    -0.201 OA
HETATM   23  O   UNK N   1      25.312  22.374  -9.791  0.00  0.00    -0.201 OA
BRANCH  21  24
HETATM   24  N   UNK N   1      23.883  21.804  -7.569  0.00  0.00    -0.324 N 
HETATM   25  H   UNK N   1      23.224  21.072  -7.835  0.00  0.00     0.169 HD
HETATM   26  H   UNK N   1      23.617  22.475  -6.849  0.00  0.00     0.169 HD
ENDBRANCH  21  24
ENDBRANCH   4  21
TORSDOF 7
ENDMDL
