MODEL 1
REMARK VINA RESULT:      -6.1      0.000      0.000
REMARK  10 active torsions:
REMARK  status: ('A' for Active; 'I' for Inactive)
REMARK    1  A    between atoms: O_1  and  C_16 
REMARK    2  A    between atoms: O_1  and  C_24 
REMARK    3  A    between atoms: O_2  and  C_18 
REMARK    4  A    between atoms: O_2  and  C_26 
REMARK    5  A    between atoms: O_5  and  C_29 
REMARK    6  A    between atoms: N_9  and  C_22 
REMARK    7  A    between atoms: C_10  and  C_13 
REMARK    8  A    between atoms: C_11  and  C_16 
REMARK    9  A    between atoms: C_12  and  C_18 
REMARK   10  A    between atoms: C_26  and  C_29 
ROOT
HETATM    1  N   UNK N   1      26.765  18.620   5.707  0.00  0.00    -0.362 N 
HETATM    2  C   UNK N   1      24.675  17.580   4.057  0.00  0.00     0.101 C 
HETATM    3  C   UNK N   1      25.696  16.670   4.793  0.00  0.00     0.052 C 
HETATM    4  C   UNK N   1      24.990  19.101   4.144  0.00  0.00     0.052 C 
HETATM    5  C   UNK N   1      26.656  17.222   5.578  0.00  0.00     0.018 C 
HETATM    6  C   UNK N   1      25.992  19.534   4.965  0.00  0.00     0.018 C 
HETATM    7  C   UNK N   1      27.693  16.403   6.286  0.00  0.00     0.069 C 
HETATM    8  C   UNK N   1      26.382  20.975   5.091  0.00  0.00     0.069 C 
HETATM    9  H   UNK N   1      27.417  18.978   6.351  0.00  0.00     0.165 HD
ENDROOT
BRANCH   2  10
HETATM   10  C   UNK N   1      23.199  17.204   4.383  0.00  0.00    -0.042 A 
HETATM   11  C   UNK N   1      22.580  17.587   5.589  0.00  0.00     0.044 A 
HETATM   12  C   UNK N   1      21.208  17.359   5.818  0.00  0.00     0.103 A 
HETATM   13  C   UNK N   1      20.439  16.744   4.824  0.00  0.00     0.036 A 
HETATM   14  C   UNK N   1      21.030  16.350   3.630  0.00  0.00     0.003 A 
HETATM   15  C   UNK N   1      22.388  16.584   3.415  0.00  0.00     0.008 A 
BRANCH  12  16
HETATM   16  N   UNK N   1      20.594  17.768   7.034  0.00  0.00    -0.116 N 
HETATM   17  O   UNK N   1      20.811  18.975   7.513  0.00  0.00    -0.532 OA
HETATM   18  O   UNK N   1      19.891  17.015   7.640  0.00  0.00    -0.532 OA
ENDBRANCH  12  16
ENDBRANCH   2  10
BRANCH   3  19
HETATM   19  C   UNK N   1      25.624  15.175   4.641  0.00  0.00     0.292 C 
HETATM   20  O   UNK N   1      26.307  14.610   3.796  0.00  0.00    -0.259 OA
BRANCH  19  21
HETATM   21  O   UNK N   1      24.727  14.465   5.387  0.00  0.00    -0.313 OA
BRANCH  21  22
HETATM   22  C   UNK N   1      24.455  14.635   6.731  0.00  0.00     0.124 C 
HETATM   23  C   UNK N   1      25.345  13.765   7.595  0.00  0.00     0.040 C 
HETATM   24  C   UNK N   1      22.983  14.425   7.052  0.00  0.00     0.040 C 
ENDBRANCH  21  22
ENDBRANCH  19  21
ENDBRANCH   3  19
BRANCH   4  25
HETATM   25  C   UNK N   1      24.231  20.083   3.281  0.00  0.00     0.292 C 
HETATM   26  O   UNK N   1      24.786  20.615   2.331  0.00  0.00    -0.259 OA
BRANCH  25  27
HETATM   27  O   UNK N   1      22.947  20.417   3.577  0.00  0.00    -0.316 OA
BRANCH  27  28
HETATM   28  C   UNK N   1      21.914  20.346   2.670  0.00  0.00     0.205 C 
BRANCH  28  29
HETATM   29  C   UNK N   1      20.590  20.239   3.407  0.00  0.00     0.193 C 
BRANCH  29  30
HETATM   30  O   UNK N   1      19.681  19.505   2.644  0.00  0.00    -0.394 OA
HETATM   31  C   UNK N   1      20.388  19.152   1.494  0.00  0.00     0.201 C 
ENDBRANCH  29  30
ENDBRANCH  28  29
ENDBRANCH  27  28
ENDBRANCH  25  27
ENDBRANCH   4  25
TORSDOF 10
ENDMDL
MODEL 2
REMARK VINA RESULT:      -6.1      2.423      5.369
REMARK  10 active torsions:
REMARK  status: ('A' for Active; 'I' for Inactive)
REMARK    1  A    between atoms: O_1  and  C_16 
REMARK    2  A    between atoms: O_1  and  C_24 
REMARK    3  A    between atoms: O_2  and  C_18 
REMARK    4  A    between atoms: O_2  and  C_26 
REMARK    5  A    between atoms: O_5  and  C_29 
REMARK    6  A    between atoms: N_9  and  C_22 
REMARK    7  A    between atoms: C_10  and  C_13 
REMARK    8  A    between atoms: C_11  and  C_16 
REMARK    9  A    between atoms: C_12  and  C_18 
REMARK   10  A    between atoms: C_26  and  C_29 
ROOT
HETATM    1  N   UNK N   1      24.031  15.372   6.027  0.00  0.00    -0.362 N 
HETATM    2  C   UNK N   1      22.605  17.791   5.494  0.00  0.00     0.101 C 
HETATM    3  C   UNK N   1      24.105  17.605   5.138  0.00  0.00     0.052 C 
HETATM    4  C   UNK N   1      21.991  16.627   6.324  0.00  0.00     0.052 C 
HETATM    5  C   UNK N   1      24.723  16.424   5.399  0.00  0.00     0.018 C 
HETATM    6  C   UNK N   1      22.719  15.490   6.528  0.00  0.00     0.018 C 
HETATM    7  C   UNK N   1      26.176  16.192   5.114  0.00  0.00     0.069 C 
HETATM    8  C   UNK N   1      22.220  14.331   7.335  0.00  0.00     0.069 C 
HETATM    9  H   UNK N   1      24.488  14.505   6.120  0.00  0.00     0.165 HD
ENDROOT
BRANCH   2  10
HETATM   10  C   UNK N   1      21.752  18.233   4.268  0.00  0.00    -0.042 A 
HETATM   11  C   UNK N   1      21.472  17.359   3.199  0.00  0.00     0.044 A 
HETATM   12  C   UNK N   1      20.592  17.722   2.159  0.00  0.00     0.103 A 
HETATM   13  C   UNK N   1      19.975  18.977   2.191  0.00  0.00     0.036 A 
HETATM   14  C   UNK N   1      20.241  19.859   3.232  0.00  0.00     0.003 A 
HETATM   15  C   UNK N   1      21.112  19.486   4.254  0.00  0.00     0.008 A 
BRANCH  12  16
HETATM   16  N   UNK N   1      20.307  16.822   1.096  0.00  0.00    -0.116 N 
HETATM   17  O   UNK N   1      20.350  17.237  -0.153  0.00  0.00    -0.532 OA
HETATM   18  O   UNK N   1      20.010  15.688   1.327  0.00  0.00    -0.532 OA
ENDBRANCH  12  16
ENDBRANCH   2  10
BRANCH   3  19
HETATM   19  C   UNK N   1      24.877  18.728   4.501  0.00  0.00     0.292 C 
HETATM   20  O   UNK N   1      24.943  18.812   3.282  0.00  0.00    -0.259 OA
BRANCH  19  21
HETATM   21  O   UNK N   1      25.578  19.595   5.289  0.00  0.00    -0.313 OA
BRANCH  21  22
HETATM   22  C   UNK N   1      26.670  20.353   4.910  0.00  0.00     0.124 C 
HETATM   23  C   UNK N   1      27.888  19.490   4.654  0.00  0.00     0.040 C 
HETATM   24  C   UNK N   1      26.971  21.466   5.904  0.00  0.00     0.040 C 
ENDBRANCH  21  22
ENDBRANCH  19  21
ENDBRANCH   3  19
BRANCH   4  25
HETATM   25  C   UNK N   1      20.622  16.779   6.946  0.00  0.00     0.292 C 
HETATM   26  O   UNK N   1      20.429  17.644   7.789  0.00  0.00    -0.259 OA
BRANCH  25  27
HETATM   27  O   UNK N   1      19.611  15.935   6.612  0.00  0.00    -0.316 OA
BRANCH  27  28
HETATM   28  C   UNK N   1      18.955  15.972   5.403  0.00  0.00     0.205 C 
BRANCH  28  29
HETATM   29  C   UNK N   1      19.226  14.694   4.631  0.00  0.00     0.193 C 
BRANCH  29  30
HETATM   30  O   UNK N   1      18.168  13.801   4.804  0.00  0.00    -0.394 OA
HETATM   31  C   UNK N   1      18.576  12.638   4.146  0.00  0.00     0.201 C 
ENDBRANCH  29  30
ENDBRANCH  28  29
ENDBRANCH  27  28
ENDBRANCH  25  27
ENDBRANCH   4  25
TORSDOF 10
ENDMDL
MODEL 3
REMARK VINA RESULT:      -6.0     11.754     14.542
REMARK  10 active torsions:
REMARK  status: ('A' for Active; 'I' for Inactive)
REMARK    1  A    between atoms: O_1  and  C_16 
REMARK    2  A    between atoms: O_1  and  C_24 
REMARK    3  A    between atoms: O_2  and  C_18 
REMARK    4  A    between atoms: O_2  and  C_26 
REMARK    5  A    between atoms: O_5  and  C_29 
REMARK    6  A    between atoms: N_9  and  C_22 
REMARK    7  A    between atoms: C_10  and  C_13 
REMARK    8  A    between atoms: C_11  and  C_16 
REMARK    9  A    between atoms: C_12  and  C_18 
REMARK   10  A    between atoms: C_26  and  C_29 
ROOT
HETATM    1  N   UNK N   1      25.254  24.662  -6.530  0.00  0.00    -0.362 N 
HETATM    2  C   UNK N   1      28.076  25.117  -6.497  0.00  0.00     0.101 C 
HETATM    3  C   UNK N   1      27.041  26.233  -6.186  0.00  0.00     0.052 C 
HETATM    4  C   UNK N   1      27.452  23.784  -7.003  0.00  0.00     0.052 C 
HETATM    5  C   UNK N   1      25.713  25.951  -6.199  0.00  0.00     0.018 C 
HETATM    6  C   UNK N   1      26.096  23.624  -6.977  0.00  0.00     0.018 C 
HETATM    7  C   UNK N   1      24.663  26.989  -5.943  0.00  0.00     0.069 C 
HETATM    8  C   UNK N   1      25.407  22.389  -7.468  0.00  0.00     0.069 C 
HETATM    9  H   UNK N   1      24.292  24.475  -6.445  0.00  0.00     0.165 HD
ENDROOT
BRANCH   2  10
HETATM   10  C   UNK N   1      29.131  24.949  -5.364  0.00  0.00    -0.042 A 
HETATM   11  C   UNK N   1      28.844  24.251  -4.173  0.00  0.00     0.044 A 
HETATM   12  C   UNK N   1      29.841  23.990  -3.213  0.00  0.00     0.103 A 
HETATM   13  C   UNK N   1      31.149  24.427  -3.447  0.00  0.00     0.036 A 
HETATM   14  C   UNK N   1      31.455  25.124  -4.609  0.00  0.00     0.003 A 
HETATM   15  C   UNK N   1      30.459  25.374  -5.552  0.00  0.00     0.008 A 
BRANCH  12  16
HETATM   16  N   UNK N   1      29.539  23.270  -2.024  0.00  0.00    -0.116 N 
HETATM   17  O   UNK N   1      28.288  22.995  -1.716  0.00  0.00    -0.532 OA
HETATM   18  O   UNK N   1      30.414  22.923  -1.288  0.00  0.00    -0.532 OA
ENDBRANCH  12  16
ENDBRANCH   2  10
BRANCH   3  19
HETATM   19  C   UNK N   1      27.506  27.628  -5.866  0.00  0.00     0.292 C 
HETATM   20  O   UNK N   1      27.538  28.480  -6.744  0.00  0.00    -0.259 OA
BRANCH  19  21
HETATM   21  O   UNK N   1      27.977  27.910  -4.616  0.00  0.00    -0.313 OA
BRANCH  21  22
HETATM   22  C   UNK N   1      27.240  28.371  -3.542  0.00  0.00     0.124 C 
HETATM   23  C   UNK N   1      26.434  27.260  -2.900  0.00  0.00     0.040 C 
HETATM   24  C   UNK N   1      26.362  29.558  -3.911  0.00  0.00     0.040 C 
ENDBRANCH  21  22
ENDBRANCH  19  21
ENDBRANCH   3  19
BRANCH   4  25
HETATM   25  C   UNK N   1      28.338  22.700  -7.572  0.00  0.00     0.292 C 
HETATM   26  O   UNK N   1      28.618  22.705  -8.763  0.00  0.00    -0.259 OA
BRANCH  25  27
HETATM   27  O   UNK N   1      28.794  21.692  -6.783  0.00  0.00    -0.316 OA
BRANCH  27  28
HETATM   28  C   UNK N   1      29.475  20.597  -7.264  0.00  0.00     0.205 C 
BRANCH  28  29
HETATM   29  C   UNK N   1      30.629  20.262  -6.335  0.00  0.00     0.193 C 
BRANCH  29  30
HETATM   30  O   UNK N   1      30.838  21.311  -5.440  0.00  0.00    -0.394 OA
HETATM   31  C   UNK N   1      31.018  20.689  -4.203  0.00  0.00     0.201 C 
ENDBRANCH  29  30
ENDBRANCH  28  29
ENDBRANCH  27  28
ENDBRANCH  25  27
ENDBRANCH   4  25
TORSDOF 10
ENDMDL
MODEL 4
REMARK VINA RESULT:      -5.8      5.123      7.973
REMARK  10 active torsions:
REMARK  status: ('A' for Active; 'I' for Inactive)
REMARK    1  A    between atoms: O_1  and  C_16 
REMARK    2  A    between atoms: O_1  and  C_24 
REMARK    3  A    between atoms: O_2  and  C_18 
REMARK    4  A    between atoms: O_2  and  C_26 
REMARK    5  A    between atoms: O_5  and  C_29 
REMARK    6  A    between atoms: N_9  and  C_22 
REMARK    7  A    between atoms: C_10  and  C_13 
REMARK    8  A    between atoms: C_11  and  C_16 
REMARK    9  A    between atoms: C_12  and  C_18 
REMARK   10  A    between atoms: C_26  and  C_29 
ROOT
HETATM    1  N   UNK N   1      31.193  16.908   9.173  0.00  0.00    -0.362 N 
HETATM    2  C   UNK N   1      30.807  17.356   6.376  0.00  0.00     0.101 C 
HETATM    3  C   UNK N   1      32.203  17.078   6.997  0.00  0.00     0.052 C 
HETATM    4  C   UNK N   1      29.667  17.551   7.417  0.00  0.00     0.052 C 
HETATM    5  C   UNK N   1      32.320  16.853   8.331  0.00  0.00     0.018 C 
HETATM    6  C   UNK N   1      29.913  17.304   8.737  0.00  0.00     0.018 C 
HETATM    7  C   UNK N   1      33.641  16.615   8.998  0.00  0.00     0.069 C 
HETATM    8  C   UNK N   1      28.885  17.490   9.811  0.00  0.00     0.069 C 
HETATM    9  H   UNK N   1      31.306  16.656  10.117  0.00  0.00     0.165 HD
ENDROOT
BRANCH   2  10
HETATM   10  C   UNK N   1      30.464  16.376   5.216  0.00  0.00    -0.042 A 
HETATM   11  C   UNK N   1      30.081  15.041   5.454  0.00  0.00     0.044 A 
HETATM   12  C   UNK N   1      29.646  14.201   4.410  0.00  0.00     0.103 A 
HETATM   13  C   UNK N   1      29.585  14.703   3.106  0.00  0.00     0.036 A 
HETATM   14  C   UNK N   1      29.964  16.014   2.845  0.00  0.00     0.003 A 
HETATM   15  C   UNK N   1      30.392  16.835   3.888  0.00  0.00     0.008 A 
BRANCH  12  16
HETATM   16  N   UNK N   1      29.246  12.861   4.670  0.00  0.00    -0.116 N 
HETATM   17  O   UNK N   1      30.149  11.943   4.947  0.00  0.00    -0.532 OA
HETATM   18  O   UNK N   1      28.092  12.553   4.623  0.00  0.00    -0.532 OA
ENDBRANCH  12  16
ENDBRANCH   2  10
BRANCH   3  19
HETATM   19  C   UNK N   1      33.428  17.051   6.125  0.00  0.00     0.292 C 
HETATM   20  O   UNK N   1      34.157  18.033   6.060  0.00  0.00    -0.259 OA
BRANCH  19  21
HETATM   21  O   UNK N   1      33.670  15.963   5.337  0.00  0.00    -0.313 OA
BRANCH  21  22
HETATM   22  C   UNK N   1      33.807  14.654   5.759  0.00  0.00     0.124 C 
HETATM   23  C   UNK N   1      35.193  14.386   6.307  0.00  0.00     0.040 C 
HETATM   24  C   UNK N   1      33.431  13.656   4.673  0.00  0.00     0.040 C 
ENDBRANCH  21  22
ENDBRANCH  19  21
ENDBRANCH   3  19
BRANCH   4  25
HETATM   25  C   UNK N   1      28.316  18.066   6.975  0.00  0.00     0.292 C 
HETATM   26  O   UNK N   1      27.453  17.278   6.613  0.00  0.00    -0.259 OA
BRANCH  25  27
HETATM   27  O   UNK N   1      28.062  19.400   6.935  0.00  0.00    -0.316 OA
BRANCH  27  28
HETATM   28  C   UNK N   1      27.746  20.081   5.781  0.00  0.00     0.205 C 
BRANCH  28  29
HETATM   29  C   UNK N   1      26.312  20.574   5.851  0.00  0.00     0.193 C 
BRANCH  29  30
HETATM   30  O   UNK N   1      25.703  20.441   4.603  0.00  0.00    -0.394 OA
HETATM   31  C   UNK N   1      26.750  20.146   3.728  0.00  0.00     0.201 C 
ENDBRANCH  29  30
ENDBRANCH  28  29
ENDBRANCH  27  28
ENDBRANCH  25  27
ENDBRANCH   4  25
TORSDOF 10
ENDMDL
MODEL 5
REMARK VINA RESULT:      -5.8     11.980     14.569
REMARK  10 active torsions:
REMARK  status: ('A' for Active; 'I' for Inactive)
REMARK    1  A    between atoms: O_1  and  C_16 
REMARK    2  A    between atoms: O_1  and  C_24 
REMARK    3  A    between atoms: O_2  and  C_18 
REMARK    4  A    between atoms: O_2  and  C_26 
REMARK    5  A    between atoms: O_5  and  C_29 
REMARK    6  A    between atoms: N_9  and  C_22 
REMARK    7  A    between atoms: C_10  and  C_13 
REMARK    8  A    between atoms: C_11  and  C_16 
REMARK    9  A    between atoms: C_12  and  C_18 
REMARK   10  A    between atoms: C_26  and  C_29 
ROOT
HETATM    1  N   UNK N   1      28.248  27.955  -4.200  0.00  0.00    -0.362 N 
HETATM    2  C   UNK N   1      28.541  25.513  -5.656  0.00  0.00     0.101 C 
HETATM    3  C   UNK N   1      29.556  26.683  -5.765  0.00  0.00     0.052 C 
HETATM    4  C   UNK N   1      27.262  25.845  -4.834  0.00  0.00     0.052 C 
HETATM    5  C   UNK N   1      29.373  27.812  -5.033  0.00  0.00     0.018 C 
HETATM    6  C   UNK N   1      27.192  27.023  -4.147  0.00  0.00     0.018 C 
HETATM    7  C   UNK N   1      30.294  28.990  -5.120  0.00  0.00     0.069 C 
HETATM    8  C   UNK N   1      25.992  27.438  -3.353  0.00  0.00     0.069 C 
HETATM    9  H   UNK N   1      28.195  28.750  -3.622  0.00  0.00     0.165 HD
ENDROOT
BRANCH   2  10
HETATM   10  C   UNK N   1      29.223  24.165  -5.276  0.00  0.00    -0.042 A 
HETATM   11  C   UNK N   1      29.855  23.973  -4.031  0.00  0.00     0.044 A 
HETATM   12  C   UNK N   1      30.352  22.712  -3.643  0.00  0.00     0.103 A 
HETATM   13  C   UNK N   1      30.210  21.623  -4.510  0.00  0.00     0.036 A 
HETATM   14  C   UNK N   1      29.597  21.790  -5.745  0.00  0.00     0.003 A 
HETATM   15  C   UNK N   1      29.108  23.042  -6.116  0.00  0.00     0.008 A 
BRANCH  12  16
HETATM   16  N   UNK N   1      30.972  22.531  -2.376  0.00  0.00    -0.116 N 
HETATM   17  O   UNK N   1      32.059  21.795  -2.270  0.00  0.00    -0.532 OA
HETATM   18  O   UNK N   1      30.503  23.029  -1.397  0.00  0.00    -0.532 OA
ENDBRANCH  12  16
ENDBRANCH   2  10
BRANCH   3  19
HETATM   19  C   UNK N   1      30.747  26.569  -6.678  0.00  0.00     0.292 C 
HETATM   20  O   UNK N   1      31.824  26.189  -6.236  0.00  0.00    -0.259 OA
BRANCH  19  21
HETATM   21  O   UNK N   1      30.643  26.980  -7.975  0.00  0.00    -0.313 OA
BRANCH  21  22
HETATM   22  C   UNK N   1      30.219  26.219  -9.049  0.00  0.00     0.124 C 
HETATM   23  C   UNK N   1      28.722  26.322  -9.250  0.00  0.00     0.040 C 
HETATM   24  C   UNK N   1      30.673  24.771  -8.944  0.00  0.00     0.040 C 
ENDBRANCH  21  22
ENDBRANCH  19  21
ENDBRANCH   3  19
BRANCH   4  25
HETATM   25  C   UNK N   1      26.085  24.897  -4.846  0.00  0.00     0.292 C 
HETATM   26  O   UNK N   1      25.930  24.108  -3.924  0.00  0.00    -0.259 OA
BRANCH  25  27
HETATM   27  O   UNK N   1      25.219  24.880  -5.893  0.00  0.00    -0.316 OA
BRANCH  27  28
HETATM   28  C   UNK N   1      25.596  25.098  -7.198  0.00  0.00     0.205 C 
BRANCH  28  29
HETATM   29  C   UNK N   1      25.903  23.774  -7.873  0.00  0.00     0.193 C 
BRANCH  29  30
HETATM   30  O   UNK N   1      24.727  23.211  -8.371  0.00  0.00    -0.394 OA
HETATM   31  C   UNK N   1      24.763  21.883  -7.944  0.00  0.00     0.201 C 
ENDBRANCH  29  30
ENDBRANCH  28  29
ENDBRANCH  27  28
ENDBRANCH  25  27
ENDBRANCH   4  25
TORSDOF 10
ENDMDL
MODEL 6
REMARK VINA RESULT:      -5.6      5.738      9.570
REMARK  10 active torsions:
REMARK  status: ('A' for Active; 'I' for Inactive)
REMARK    1  A    between atoms: O_1  and  C_16 
REMARK    2  A    between atoms: O_1  and  C_24 
REMARK    3  A    between atoms: O_2  and  C_18 
REMARK    4  A    between atoms: O_2  and  C_26 
REMARK    5  A    between atoms: O_5  and  C_29 
REMARK    6  A    between atoms: N_9  and  C_22 
REMARK    7  A    between atoms: C_10  and  C_13 
REMARK    8  A    between atoms: C_11  and  C_16 
REMARK    9  A    between atoms: C_12  and  C_18 
REMARK   10  A    between atoms: C_26  and  C_29 
ROOT
HETATM    1  N   UNK N   1      32.039  17.390   9.096  0.00  0.00    -0.362 N 
HETATM    2  C   UNK N   1      30.807  15.885   7.001  0.00  0.00     0.101 C 
HETATM    3  C   UNK N   1      30.116  17.099   7.681  0.00  0.00     0.052 C 
HETATM    4  C   UNK N   1      32.140  15.444   7.671  0.00  0.00     0.052 C 
HETATM    5  C   UNK N   1      30.761  17.787   8.659  0.00  0.00     0.018 C 
HETATM    6  C   UNK N   1      32.685  16.218   8.656  0.00  0.00     0.018 C 
HETATM    7  C   UNK N   1      30.137  18.943   9.379  0.00  0.00     0.069 C 
HETATM    8  C   UNK N   1      33.949  15.859   9.375  0.00  0.00     0.069 C 
HETATM    9  H   UNK N   1      32.507  17.964   9.744  0.00  0.00     0.165 HD
ENDROOT
BRANCH   2  10
HETATM   10  C   UNK N   1      30.878  16.031   5.452  0.00  0.00    -0.042 A 
HETATM   11  C   UNK N   1      30.031  15.302   4.594  0.00  0.00     0.044 A 
HETATM   12  C   UNK N   1      30.010  15.536   3.204  0.00  0.00     0.103 A 
HETATM   13  C   UNK N   1      30.844  16.520   2.662  0.00  0.00     0.036 A 
HETATM   14  C   UNK N   1      31.693  17.246   3.488  0.00  0.00     0.003 A 
HETATM   15  C   UNK N   1      31.703  17.005   4.861  0.00  0.00     0.008 A 
BRANCH  12  16
HETATM   16  N   UNK N   1      29.136  14.804   2.354  0.00  0.00    -0.116 N 
HETATM   17  O   UNK N   1      27.933  15.266   2.084  0.00  0.00    -0.532 OA
HETATM   18  O   UNK N   1      29.479  13.756   1.892  0.00  0.00    -0.532 OA
ENDBRANCH  12  16
ENDBRANCH   2  10
BRANCH   3  19
HETATM   19  C   UNK N   1      28.735  17.519   7.258  0.00  0.00     0.292 C 
HETATM   20  O   UNK N   1      27.776  16.796   7.491  0.00  0.00    -0.259 OA
BRANCH  19  21
HETATM   21  O   UNK N   1      28.573  18.664   6.533  0.00  0.00    -0.313 OA
BRANCH  21  22
HETATM   22  C   UNK N   1      27.559  18.932   5.631  0.00  0.00     0.124 C 
HETATM   23  C   UNK N   1      27.861  18.352   4.265  0.00  0.00     0.040 C 
HETATM   24  C   UNK N   1      27.236  20.416   5.551  0.00  0.00     0.040 C 
ENDBRANCH  21  22
ENDBRANCH  19  21
ENDBRANCH   3  19
BRANCH   4  25
HETATM   25  C   UNK N   1      32.794  14.140   7.275  0.00  0.00     0.292 C 
HETATM   26  O   UNK N   1      32.458  13.100   7.823  0.00  0.00    -0.259 OA
BRANCH  25  27
HETATM   27  O   UNK N   1      33.784  14.116   6.344  0.00  0.00    -0.316 OA
BRANCH  27  28
HETATM   28  C   UNK N   1      33.610  13.659   5.058  0.00  0.00     0.205 C 
BRANCH  28  29
HETATM   29  C   UNK N   1      34.314  14.586   4.083  0.00  0.00     0.193 C 
BRANCH  29  30
HETATM   30  O   UNK N   1      34.101  14.149   2.775  0.00  0.00    -0.394 OA
HETATM   31  C   UNK N   1      32.928  13.395   2.840  0.00  0.00     0.201 C 
ENDBRANCH  29  30
ENDBRANCH  28  29
ENDBRANCH  27  28
ENDBRANCH  25  27
ENDBRANCH   4  25
TORSDOF 10
ENDMDL
MODEL 7
REMARK VINA RESULT:      -5.6      2.533      4.173
REMARK  10 active torsions:
REMARK  status: ('A' for Active; 'I' for Inactive)
REMARK    1  A    between atoms: O_1  and  C_16 
REMARK    2  A    between atoms: O_1  and  C_24 
REMARK    3  A    between atoms: O_2  and  C_18 
REMARK    4  A    between atoms: O_2  and  C_26 
REMARK    5  A    between atoms: O_5  and  C_29 
REMARK    6  A    between atoms: N_9  and  C_22 
REMARK    7  A    between atoms: C_10  and  C_13 
REMARK    8  A    between atoms: C_11  and  C_16 
REMARK    9  A    between atoms: C_12  and  C_18 
REMARK   10  A    between atoms: C_26  and  C_29 
ROOT
HETATM    1  N   UNK N   1      27.699  19.591   7.153  0.00  0.00    -0.362 N 
HETATM    2  C   UNK N   1      27.422  18.164   4.692  0.00  0.00     0.101 C 
HETATM    3  C   UNK N   1      28.451  17.763   5.784  0.00  0.00     0.052 C 
HETATM    4  C   UNK N   1      26.684  19.506   4.965  0.00  0.00     0.052 C 
HETATM    5  C   UNK N   1      28.523  18.469   6.942  0.00  0.00     0.018 C 
HETATM    6  C   UNK N   1      26.846  20.129   6.169  0.00  0.00     0.018 C 
HETATM    7  C   UNK N   1      29.516  18.157   8.019  0.00  0.00     0.069 C 
HETATM    8  C   UNK N   1      26.197  21.435   6.509  0.00  0.00     0.069 C 
HETATM    9  H   UNK N   1      27.720  20.023   8.036  0.00  0.00     0.165 HD
ENDROOT
BRANCH   2  10
HETATM   10  C   UNK N   1      26.491  16.982   4.288  0.00  0.00    -0.042 A 
HETATM   11  C   UNK N   1      25.634  16.356   5.215  0.00  0.00     0.044 A 
HETATM   12  C   UNK N   1      24.700  15.380   4.813  0.00  0.00     0.103 A 
HETATM   13  C   UNK N   1      24.616  15.026   3.463  0.00  0.00     0.036 A 
HETATM   14  C   UNK N   1      25.456  15.624   2.531  0.00  0.00     0.003 A 
HETATM   15  C   UNK N   1      26.373  16.590   2.942  0.00  0.00     0.008 A 
BRANCH  12  16
HETATM   16  N   UNK N   1      23.830  14.770   5.759  0.00  0.00    -0.116 N 
HETATM   17  O   UNK N   1      24.320  14.217   6.849  0.00  0.00    -0.532 OA
HETATM   18  O   UNK N   1      22.652  14.738   5.564  0.00  0.00    -0.532 OA
ENDBRANCH  12  16
ENDBRANCH   2  10
BRANCH   3  19
HETATM   19  C   UNK N   1      29.368  16.590   5.566  0.00  0.00     0.292 C 
HETATM   20  O   UNK N   1      29.038  15.475   5.947  0.00  0.00    -0.259 OA
BRANCH  19  21
HETATM   21  O   UNK N   1      30.606  16.794   5.027  0.00  0.00    -0.313 OA
BRANCH  21  22
HETATM   22  C   UNK N   1      31.064  16.320   3.812  0.00  0.00     0.124 C 
HETATM   23  C   UNK N   1      32.269  17.099   3.327  0.00  0.00     0.040 C 
HETATM   24  C   UNK N   1      29.966  16.274   2.760  0.00  0.00     0.040 C 
ENDBRANCH  21  22
ENDBRANCH  19  21
ENDBRANCH   3  19
BRANCH   4  25
HETATM   25  C   UNK N   1      25.841  20.141   3.883  0.00  0.00     0.292 C 
HETATM   26  O   UNK N   1      26.381  20.679   2.927  0.00  0.00    -0.259 OA
BRANCH  25  27
HETATM   27  O   UNK N   1      24.485  20.161   3.983  0.00  0.00    -0.316 OA
BRANCH  27  28
HETATM   28  C   UNK N   1      23.696  19.041   3.862  0.00  0.00     0.205 C 
BRANCH  28  29
HETATM   29  C   UNK N   1      22.280  19.446   3.494  0.00  0.00     0.193 C 
BRANCH  29  30
HETATM   30  O   UNK N   1      22.272  20.753   3.005  0.00  0.00    -0.394 OA
HETATM   31  C   UNK N   1      21.049  20.875   2.343  0.00  0.00     0.201 C 
ENDBRANCH  29  30
ENDBRANCH  28  29
ENDBRANCH  27  28
ENDBRANCH  25  27
ENDBRANCH   4  25
TORSDOF 10
ENDMDL
MODEL 8
REMARK VINA RESULT:      -5.6     11.682     14.215
REMARK  10 active torsions:
REMARK  status: ('A' for Active; 'I' for Inactive)
REMARK    1  A    between atoms: O_1  and  C_16 
REMARK    2  A    between atoms: O_1  and  C_24 
REMARK    3  A    between atoms: O_2  and  C_18 
REMARK    4  A    between atoms: O_2  and  C_26 
REMARK    5  A    between atoms: O_5  and  C_29 
REMARK    6  A    between atoms: N_9  and  C_22 
REMARK    7  A    between atoms: C_10  and  C_13 
REMARK    8  A    between atoms: C_11  and  C_16 
REMARK    9  A    between atoms: C_12  and  C_18 
REMARK   10  A    between atoms: C_26  and  C_29 
ROOT
HETATM    1  N   UNK N   1      28.328  27.924  -3.733  0.00  0.00    -0.362 N 
HETATM    2  C   UNK N   1      28.722  25.366  -4.947  0.00  0.00     0.101 C 
HETATM    3  C   UNK N   1      29.796  26.488  -4.983  0.00  0.00     0.052 C 
HETATM    4  C   UNK N   1      27.351  25.807  -4.358  0.00  0.00     0.052 C 
HETATM    5  C   UNK N   1      29.558  27.676  -4.371  0.00  0.00     0.018 C 
HETATM    6  C   UNK N   1      27.234  27.037  -3.776  0.00  0.00     0.018 C 
HETATM    7  C   UNK N   1      30.536  28.811  -4.399  0.00  0.00     0.069 C 
HETATM    8  C   UNK N   1      25.949  27.555  -3.208  0.00  0.00     0.069 C 
HETATM    9  H   UNK N   1      28.226  28.763  -3.229  0.00  0.00     0.165 HD
ENDROOT
BRANCH   2  10
HETATM   10  C   UNK N   1      29.275  24.029  -4.371  0.00  0.00    -0.042 A 
HETATM   11  C   UNK N   1      29.552  22.920  -5.193  0.00  0.00     0.044 A 
HETATM   12  C   UNK N   1      30.175  21.762  -4.685  0.00  0.00     0.103 A 
HETATM   13  C   UNK N   1      30.535  21.714  -3.334  0.00  0.00     0.036 A 
HETATM   14  C   UNK N   1      30.265  22.793  -2.502  0.00  0.00     0.003 A 
HETATM   15  C   UNK N   1      29.649  23.933  -3.018  0.00  0.00     0.008 A 
BRANCH  12  16
HETATM   16  N   UNK N   1      30.464  20.657  -5.533  0.00  0.00    -0.116 N 
HETATM   17  O   UNK N   1      31.493  19.876  -5.276  0.00  0.00    -0.532 OA
HETATM   18  O   UNK N   1      29.787  20.438  -6.493  0.00  0.00    -0.532 OA
ENDBRANCH  12  16
ENDBRANCH   2  10
BRANCH   3  19
HETATM   19  C   UNK N   1      31.104  26.261  -5.691  0.00  0.00     0.292 C 
HETATM   20  O   UNK N   1      31.178  26.404  -6.904  0.00  0.00    -0.259 OA
BRANCH  19  21
HETATM   21  O   UNK N   1      32.181  25.806  -4.986  0.00  0.00    -0.313 OA
BRANCH  21  22
HETATM   22  C   UNK N   1      33.270  25.123  -5.494  0.00  0.00     0.124 C 
HETATM   23  C   UNK N   1      33.286  23.679  -5.038  0.00  0.00     0.040 C 
HETATM   24  C   UNK N   1      34.585  25.824  -5.185  0.00  0.00     0.040 C 
ENDBRANCH  21  22
ENDBRANCH  19  21
ENDBRANCH   3  19
BRANCH   4  25
HETATM   25  C   UNK N   1      26.146  24.903  -4.482  0.00  0.00     0.292 C 
HETATM   26  O   UNK N   1      25.962  24.018  -3.658  0.00  0.00    -0.259 OA
BRANCH  25  27
HETATM   27  O   UNK N   1      25.286  25.034  -5.526  0.00  0.00    -0.316 OA
BRANCH  27  28
HETATM   28  C   UNK N   1      25.634  25.589  -6.736  0.00  0.00     0.205 C 
BRANCH  28  29
HETATM   29  C   UNK N   1      25.955  24.489  -7.732  0.00  0.00     0.193 C 
BRANCH  29  30
HETATM   30  O   UNK N   1      24.998  23.477  -7.647  0.00  0.00    -0.394 OA
HETATM   31  C   UNK N   1      25.463  22.479  -8.505  0.00  0.00     0.201 C 
ENDBRANCH  29  30
ENDBRANCH  28  29
ENDBRANCH  27  28
ENDBRANCH  25  27
ENDBRANCH   4  25
TORSDOF 10
ENDMDL
MODEL 9
REMARK VINA RESULT:      -5.6      4.200      7.774
REMARK  10 active torsions:
REMARK  status: ('A' for Active; 'I' for Inactive)
REMARK    1  A    between atoms: O_1  and  C_16 
REMARK    2  A    between atoms: O_1  and  C_24 
REMARK    3  A    between atoms: O_2  and  C_18 
REMARK    4  A    between atoms: O_2  and  C_26 
REMARK    5  A    between atoms: O_5  and  C_29 
REMARK    6  A    between atoms: N_9  and  C_22 
REMARK    7  A    between atoms: C_10  and  C_13 
REMARK    8  A    between atoms: C_11  and  C_16 
REMARK    9  A    between atoms: C_12  and  C_18 
REMARK   10  A    between atoms: C_26  and  C_29 
ROOT
HETATM    1  N   UNK N   1      29.827  13.610   3.459  0.00  0.00    -0.362 N 
HETATM    2  C   UNK N   1      29.109  16.375   3.544  0.00  0.00     0.101 C 
HETATM    3  C   UNK N   1      28.063  15.241   3.366  0.00  0.00     0.052 C 
HETATM    4  C   UNK N   1      30.589  15.900   3.490  0.00  0.00     0.052 C 
HETATM    5  C   UNK N   1      28.464  13.943   3.353  0.00  0.00     0.018 C 
HETATM    6  C   UNK N   1      30.865  14.562   3.468  0.00  0.00     0.018 C 
HETATM    7  C   UNK N   1      27.511  12.805   3.149  0.00  0.00     0.069 C 
HETATM    8  C   UNK N   1      32.257  14.014   3.389  0.00  0.00     0.069 C 
HETATM    9  H   UNK N   1      30.069  12.658   3.531  0.00  0.00     0.165 HD
ENDROOT
BRANCH   2  10
HETATM   10  C   UNK N   1      28.773  17.313   4.740  0.00  0.00    -0.042 A 
HETATM   11  C   UNK N   1      28.229  18.599   4.551  0.00  0.00     0.044 A 
HETATM   12  C   UNK N   1      27.805  19.388   5.639  0.00  0.00     0.103 A 
HETATM   13  C   UNK N   1      27.920  18.883   6.939  0.00  0.00     0.036 A 
HETATM   14  C   UNK N   1      28.460  17.621   7.151  0.00  0.00     0.003 A 
HETATM   15  C   UNK N   1      28.874  16.850   6.065  0.00  0.00     0.008 A 
BRANCH  12  16
HETATM   16  N   UNK N   1      27.242  20.678   5.430  0.00  0.00    -0.116 N 
HETATM   17  O   UNK N   1      27.521  21.664   6.257  0.00  0.00    -0.532 OA
HETATM   18  O   UNK N   1      26.499  20.872   4.515  0.00  0.00    -0.532 OA
ENDBRANCH  12  16
ENDBRANCH   2  10
BRANCH   3  19
HETATM   19  C   UNK N   1      26.604  15.573   3.213  0.00  0.00     0.292 C 
HETATM   20  O   UNK N   1      26.208  16.148   2.207  0.00  0.00    -0.259 OA
BRANCH  19  21
HETATM   21  O   UNK N   1      25.742  15.313   4.239  0.00  0.00    -0.313 OA
BRANCH  21  22
HETATM   22  C   UNK N   1      25.474  16.135   5.318  0.00  0.00     0.124 C 
HETATM   23  C   UNK N   1      25.429  15.356   6.616  0.00  0.00     0.040 C 
HETATM   24  C   UNK N   1      24.211  16.959   5.114  0.00  0.00     0.040 C 
ENDBRANCH  21  22
ENDBRANCH  19  21
ENDBRANCH   3  19
BRANCH   4  25
HETATM   25  C   UNK N   1      31.708  16.912   3.404  0.00  0.00     0.292 C 
HETATM   26  O   UNK N   1      32.270  17.109   2.335  0.00  0.00    -0.259 OA
BRANCH  25  27
HETATM   27  O   UNK N   1      32.129  17.576   4.512  0.00  0.00    -0.316 OA
BRANCH  27  28
HETATM   28  C   UNK N   1      32.398  16.961   5.713  0.00  0.00     0.205 C 
BRANCH  28  29
HETATM   29  C   UNK N   1      33.899  16.850   5.909  0.00  0.00     0.193 C 
BRANCH  29  30
HETATM   30  O   UNK N   1      34.396  18.035   6.454  0.00  0.00    -0.394 OA
HETATM   31  C   UNK N   1      34.136  17.931   7.822  0.00  0.00     0.201 C 
ENDBRANCH  29  30
ENDBRANCH  28  29
ENDBRANCH  27  28
ENDBRANCH  25  27
ENDBRANCH   4  25
TORSDOF 10
ENDMDL
