REMARK  10 active torsions:
REMARK  status: ('A' for Active; 'I' for Inactive)
REMARK    1  A    between atoms: O_1  and  C_16 
REMARK    2  A    between atoms: O_1  and  C_24 
REMARK    3  A    between atoms: O_2  and  C_18 
REMARK    4  A    between atoms: O_2  and  C_26 
REMARK    5  A    between atoms: O_5  and  C_29 
REMARK    6  A    between atoms: N_9  and  C_22 
REMARK    7  A    between atoms: C_10  and  C_13 
REMARK    8  A    between atoms: C_11  and  C_16 
REMARK    9  A    between atoms: C_12  and  C_18 
REMARK   10  A    between atoms: C_26  and  C_29 
ROOT
HETATM    1  N   UNK N   1       5.108  -3.347   1.063  0.00  0.00    -0.362 N 
HETATM    2  C   UNK N   1       5.208  -0.947  -0.486  0.00  0.00     0.101 C 
HETATM    3  C   UNK N   1       3.873  -1.618  -0.062  0.00  0.00     0.052 C 
HETATM    4  C   UNK N   1       6.480  -1.780  -0.157  0.00  0.00     0.052 C 
HETATM    5  C   UNK N   1       3.890  -2.748   0.691  0.00  0.00     0.018 C 
HETATM    6  C   UNK N   1       6.366  -2.909   0.603  0.00  0.00     0.018 C 
HETATM    7  C   UNK N   1       2.640  -3.464   1.103  0.00  0.00     0.069 C 
HETATM    8  C   UNK N   1       7.530  -3.786   0.947  0.00  0.00     0.069 C 
HETATM    9  H   UNK N   1       5.080  -4.114   1.679  0.00  0.00     0.165 HD
ENDROOT
BRANCH   2  10
HETATM   10  C   UNK N   1       5.285   0.549  -0.060  0.00  0.00    -0.042 A 
HETATM   11  C   UNK N   1       6.507   1.248  -0.005  0.00  0.00     0.044 A 
HETATM   12  C   UNK N   1       6.554   2.633   0.252  0.00  0.00     0.103 A 
HETATM   13  C   UNK N   1       5.360   3.334   0.451  0.00  0.00     0.036 A 
HETATM   14  C   UNK N   1       4.143   2.665   0.409  0.00  0.00     0.003 A 
HETATM   15  C   UNK N   1       4.111   1.295   0.152  0.00  0.00     0.008 A 
BRANCH  12  16
HETATM   16  N   UNK N   1       7.795   3.327   0.287  0.00  0.00    -0.116 N 
HETATM   17  O   UNK N   1       7.819   4.632   0.462  0.00  0.00    -0.532 OA
HETATM   18  O   UNK N   1       8.823   2.736   0.141  0.00  0.00    -0.532 OA
ENDBRANCH  12  16
ENDBRANCH   2  10
BRANCH   3  19
HETATM   19  C   UNK N   1       2.558  -1.018  -0.479  0.00  0.00     0.292 C 
HETATM   20  O   UNK N   1       2.505  -0.267  -1.444  0.00  0.00    -0.259 OA
BRANCH  19  21
HETATM   21  O   UNK N   1       1.445  -1.242   0.279  0.00  0.00    -0.313 OA
BRANCH  21  22
HETATM   22  C   UNK N   1       0.192  -0.690   0.087  0.00  0.00     0.124 C 
HETATM   23  C   UNK N   1      -0.466  -1.222  -1.169  0.00  0.00     0.040 C 
HETATM   24  C   UNK N   1       0.224   0.831   0.102  0.00  0.00     0.040 C 
ENDBRANCH  21  22
ENDBRANCH  19  21
ENDBRANCH   3  19
BRANCH   4  25
HETATM   25  C   UNK N   1       7.821  -1.373  -0.723  0.00  0.00     0.292 C 
HETATM   26  O   UNK N   1       7.885  -0.478  -1.554  0.00  0.00    -0.259 OA
BRANCH  25  27
HETATM   27  O   UNK N   1       8.956  -2.021  -0.351  0.00  0.00    -0.316 OA
BRANCH  27  28
HETATM   28  C   UNK N   1      10.200  -1.735  -0.865  0.00  0.00     0.205 C 
BRANCH  28  29
HETATM   29  C   UNK N   1      11.171  -1.450   0.267  0.00  0.00     0.193 C 
BRANCH  29  30
HETATM   30  O   UNK N   1      11.461  -0.086   0.312  0.00  0.00    -0.394 OA
HETATM   31  C   UNK N   1      12.786   0.008  -0.118  0.00  0.00     0.201 C 
ENDBRANCH  29  30
ENDBRANCH  28  29
ENDBRANCH  27  28
ENDBRANCH  25  27
ENDBRANCH   4  25
TORSDOF 10
