MODEL 1
REMARK VINA RESULT:      -5.2      0.000      0.000
REMARK  9 active torsions:
REMARK  status: ('A' for Active; 'I' for Inactive)
REMARK    1  A    between atoms: O_1  and  C_9 
REMARK    2  A    between atoms: O_1  and  C_14 
REMARK    3  A    between atoms: O_2  and  C_10 
REMARK    4  A    between atoms: O_2  and  C_16 
REMARK       I    between atoms: N_5  and  C_14 
REMARK    5  A    between atoms: N_5  and  C_15 
REMARK       I    between atoms: N_6  and  C_16 
REMARK    6  A    between atoms: C_7  and  C_8 
REMARK    7  A    between atoms: C_7  and  C_9 
REMARK    8  A    between atoms: C_7  and  C_10 
REMARK    9  A    between atoms: C_8  and  C_12 
ROOT
HETATM    1  C   UNK N   1      35.046  12.177  15.316  0.00  0.00     0.000 C 
HETATM    2  C   UNK N   1      36.147  11.295  15.871  0.00  0.00     0.019 C 
ENDROOT
BRANCH   1   3
HETATM    3  C   UNK N   1      33.924  11.249  14.808  0.00  0.00     0.013 C 
BRANCH   3   4
HETATM    4  C   UNK N   1      34.445  10.094  13.955  0.00  0.00    -0.004 C 
HETATM    5  C   UNK N   1      33.886  10.202  12.554  0.00  0.00     0.005 C 
ENDBRANCH   3   4
ENDBRANCH   1   3
BRANCH   1   6
HETATM    6  C   UNK N   1      35.680  13.036  14.206  0.00  0.00     0.192 C 
BRANCH   6   7
HETATM    7  O   UNK N   1      34.731  13.575  13.364  0.00  0.00    -0.303 OA
BRANCH   7   8
HETATM    8  C   UNK N   1      34.967  13.808  12.050  0.00  0.00     0.360 C 
HETATM    9  O   UNK N   1      35.925  13.278  11.514  0.00  0.00    -0.239 OA
HETATM   10  N   UNK N   1      34.131  14.609  11.332  0.00  0.00    -0.333 N 
HETATM   11  H   UNK N   1      33.358  15.011  11.791  0.00  0.00     0.165 HD
BRANCH  10  12
HETATM   12  C   UNK N   1      34.326  14.898   9.927  0.00  0.00     0.078 C 
HETATM   13  C   UNK N   1      33.021  14.780   9.155  0.00  0.00     0.032 C 
HETATM   14  C   UNK N   1      34.845  16.313   9.780  0.00  0.00     0.032 C 
ENDBRANCH  10  12
ENDBRANCH   7   8
ENDBRANCH   6   7
ENDBRANCH   1   6
BRANCH   1  15
HETATM   15  C   UNK N   1      34.557  13.088  16.451  0.00  0.00     0.192 C 
BRANCH  15  16
HETATM   16  O   UNK N   1      35.089  12.703  17.667  0.00  0.00    -0.303 OA
BRANCH  16  17
HETATM   17  C   UNK N   1      35.192  13.517  18.741  0.00  0.00     0.358 C 
HETATM   18  O   UNK N   1      35.331  14.724  18.603  0.00  0.00    -0.239 OA
HETATM   19  N   UNK N   1      35.159  12.988  19.979  0.00  0.00    -0.346 N 
HETATM   20  H   UNK N   1      35.261  12.021  20.140  0.00  0.00     0.161 HD
HETATM   21  H   UNK N   1      35.027  13.586  20.750  0.00  0.00     0.161 HD
ENDBRANCH  16  17
ENDBRANCH  15  16
ENDBRANCH   1  15
TORSDOF 9
ENDMDL
MODEL 2
REMARK VINA RESULT:      -5.1     21.940     24.981
REMARK  9 active torsions:
REMARK  status: ('A' for Active; 'I' for Inactive)
REMARK    1  A    between atoms: O_1  and  C_9 
REMARK    2  A    between atoms: O_1  and  C_14 
REMARK    3  A    between atoms: O_2  and  C_10 
REMARK    4  A    between atoms: O_2  and  C_16 
REMARK       I    between atoms: N_5  and  C_14 
REMARK    5  A    between atoms: N_5  and  C_15 
REMARK       I    between atoms: N_6  and  C_16 
REMARK    6  A    between atoms: C_7  and  C_8 
REMARK    7  A    between atoms: C_7  and  C_9 
REMARK    8  A    between atoms: C_7  and  C_10 
REMARK    9  A    between atoms: C_8  and  C_12 
ROOT
HETATM    1  C   UNK N   1      26.187  27.056  -4.759  0.00  0.00     0.000 C 
HETATM    2  C   UNK N   1      25.447  28.347  -4.471  0.00  0.00     0.019 C 
ENDROOT
BRANCH   1   3
HETATM    3  C   UNK N   1      27.453  27.419  -5.561  0.00  0.00     0.013 C 
BRANCH   3   4
HETATM    4  C   UNK N   1      27.413  28.835  -6.133  0.00  0.00    -0.004 C 
HETATM    5  C   UNK N   1      28.476  28.985  -7.198  0.00  0.00     0.005 C 
ENDBRANCH   3   4
ENDBRANCH   1   3
BRANCH   1   6
HETATM    6  C   UNK N   1      25.214  26.147  -5.532  0.00  0.00     0.192 C 
BRANCH   6   7
HETATM    7  O   UNK N   1      25.762  25.682  -6.707  0.00  0.00    -0.303 OA
BRANCH   7   8
HETATM    8  C   UNK N   1      26.110  24.384  -6.890  0.00  0.00     0.360 C 
HETATM    9  O   UNK N   1      27.282  24.063  -6.791  0.00  0.00    -0.239 OA
HETATM   10  N   UNK N   1      25.159  23.448  -7.162  0.00  0.00    -0.333 N 
HETATM   11  H   UNK N   1      24.219  23.738  -7.222  0.00  0.00     0.165 HD
BRANCH  10  12
HETATM   12  C   UNK N   1      25.464  22.048  -7.368  0.00  0.00     0.078 C 
HETATM   13  C   UNK N   1      24.357  21.159  -6.823  0.00  0.00     0.032 C 
HETATM   14  C   UNK N   1      25.604  21.785  -8.852  0.00  0.00     0.032 C 
ENDBRANCH  10  12
ENDBRANCH   7   8
ENDBRANCH   6   7
ENDBRANCH   1   6
BRANCH   1  15
HETATM   15  C   UNK N   1      26.536  26.404  -3.414  0.00  0.00     0.192 C 
BRANCH  15  16
HETATM   16  O   UNK N   1      26.355  25.034  -3.460  0.00  0.00    -0.303 OA
BRANCH  16  17
HETATM   17  C   UNK N   1      27.314  24.132  -3.151  0.00  0.00     0.358 C 
HETATM   18  O   UNK N   1      27.286  23.525  -2.090  0.00  0.00    -0.239 OA
HETATM   19  N   UNK N   1      28.321  23.914  -4.017  0.00  0.00    -0.346 N 
HETATM   20  H   UNK N   1      28.504  24.518  -4.774  0.00  0.00     0.161 HD
HETATM   21  H   UNK N   1      28.895  23.124  -3.892  0.00  0.00     0.161 HD
ENDBRANCH  16  17
ENDBRANCH  15  16
ENDBRANCH   1  15
TORSDOF 9
ENDMDL
MODEL 3
REMARK VINA RESULT:      -5.1      8.635     10.568
REMARK  9 active torsions:
REMARK  status: ('A' for Active; 'I' for Inactive)
REMARK    1  A    between atoms: O_1  and  C_9 
REMARK    2  A    between atoms: O_1  and  C_14 
REMARK    3  A    between atoms: O_2  and  C_10 
REMARK    4  A    between atoms: O_2  and  C_16 
REMARK       I    between atoms: N_5  and  C_14 
REMARK    5  A    between atoms: N_5  and  C_15 
REMARK       I    between atoms: N_6  and  C_16 
REMARK    6  A    between atoms: C_7  and  C_8 
REMARK    7  A    between atoms: C_7  and  C_9 
REMARK    8  A    between atoms: C_7  and  C_10 
REMARK    9  A    between atoms: C_8  and  C_12 
ROOT
HETATM    1  C   UNK N   1      32.917  16.762   5.458  0.00  0.00     0.000 C 
HETATM    2  C   UNK N   1      32.923  17.910   4.469  0.00  0.00     0.019 C 
ENDROOT
BRANCH   1   3
HETATM    3  C   UNK N   1      32.961  15.452   4.645  0.00  0.00     0.013 C 
BRANCH   3   4
HETATM    4  C   UNK N   1      33.254  15.678   3.164  0.00  0.00    -0.004 C 
HETATM    5  C   UNK N   1      34.097  14.541   2.631  0.00  0.00     0.005 C 
ENDBRANCH   3   4
ENDBRANCH   1   3
BRANCH   1   6
HETATM    6  C   UNK N   1      31.640  16.911   6.307  0.00  0.00     0.192 C 
BRANCH   6   7
HETATM    7  O   UNK N   1      30.560  16.277   5.733  0.00  0.00    -0.303 OA
BRANCH   7   8
HETATM    8  C   UNK N   1      29.301  16.777   5.792  0.00  0.00     0.360 C 
HETATM    9  O   UNK N   1      28.401  16.073   6.217  0.00  0.00    -0.239 OA
HETATM   10  N   UNK N   1      29.050  18.057   5.400  0.00  0.00    -0.333 N 
HETATM   11  H   UNK N   1      29.801  18.604   5.074  0.00  0.00     0.165 HD
BRANCH  10  12
HETATM   12  C   UNK N   1      27.730  18.650   5.438  0.00  0.00     0.078 C 
HETATM   13  C   UNK N   1      27.720  19.914   6.283  0.00  0.00     0.032 C 
HETATM   14  C   UNK N   1      27.309  19.011   4.029  0.00  0.00     0.032 C 
ENDBRANCH  10  12
ENDBRANCH   7   8
ENDBRANCH   6   7
ENDBRANCH   1   6
BRANCH   1  15
HETATM   15  C   UNK N   1      34.150  16.911   6.360  0.00  0.00     0.192 C 
BRANCH  15  16
HETATM   16  O   UNK N   1      34.179  18.153   6.967  0.00  0.00    -0.303 OA
BRANCH  16  17
HETATM   17  C   UNK N   1      34.560  18.362   8.248  0.00  0.00     0.358 C 
HETATM   18  O   UNK N   1      35.360  19.241   8.529  0.00  0.00    -0.239 OA
HETATM   19  N   UNK N   1      34.061  17.577   9.222  0.00  0.00    -0.346 N 
HETATM   20  H   UNK N   1      33.588  16.735   9.029  0.00  0.00     0.161 HD
HETATM   21  H   UNK N   1      34.172  17.854  10.161  0.00  0.00     0.161 HD
ENDBRANCH  16  17
ENDBRANCH  15  16
ENDBRANCH   1  15
TORSDOF 9
ENDMDL
MODEL 4
REMARK VINA RESULT:      -5.1      5.088      8.780
REMARK  9 active torsions:
REMARK  status: ('A' for Active; 'I' for Inactive)
REMARK    1  A    between atoms: O_1  and  C_9 
REMARK    2  A    between atoms: O_1  and  C_14 
REMARK    3  A    between atoms: O_2  and  C_10 
REMARK    4  A    between atoms: O_2  and  C_16 
REMARK       I    between atoms: N_5  and  C_14 
REMARK    5  A    between atoms: N_5  and  C_15 
REMARK       I    between atoms: N_6  and  C_16 
REMARK    6  A    between atoms: C_7  and  C_8 
REMARK    7  A    between atoms: C_7  and  C_9 
REMARK    8  A    between atoms: C_7  and  C_10 
REMARK    9  A    between atoms: C_8  and  C_12 
ROOT
HETATM    1  C   UNK N   1      31.468  16.409   7.326  0.00  0.00     0.000 C 
HETATM    2  C   UNK N   1      30.446  16.418   6.207  0.00  0.00     0.019 C 
ENDROOT
BRANCH   1   3
HETATM    3  C   UNK N   1      32.581  17.404   6.941  0.00  0.00     0.013 C 
BRANCH   3   4
HETATM    4  C   UNK N   1      33.072  18.238   8.123  0.00  0.00    -0.004 C 
HETATM    5  C   UNK N   1      34.580  18.164   8.208  0.00  0.00     0.005 C 
ENDBRANCH   3   4
ENDBRANCH   1   3
BRANCH   1   6
HETATM    6  C   UNK N   1      31.966  14.958   7.464  0.00  0.00     0.192 C 
BRANCH   6   7
HETATM    7  O   UNK N   1      32.274  14.639   8.769  0.00  0.00    -0.303 OA
BRANCH   7   8
HETATM    8  C   UNK N   1      33.548  14.585   9.228  0.00  0.00     0.360 C 
HETATM    9  O   UNK N   1      34.467  14.537   8.429  0.00  0.00    -0.239 OA
HETATM   10  N   UNK N   1      33.798  14.604  10.567  0.00  0.00    -0.333 N 
HETATM   11  H   UNK N   1      33.035  14.657  11.187  0.00  0.00     0.165 HD
BRANCH  10  12
HETATM   12  C   UNK N   1      35.134  14.549  11.122  0.00  0.00     0.078 C 
HETATM   13  C   UNK N   1      35.644  15.939  11.467  0.00  0.00     0.032 C 
HETATM   14  C   UNK N   1      35.110  13.719  12.389  0.00  0.00     0.032 C 
ENDBRANCH  10  12
ENDBRANCH   7   8
ENDBRANCH   6   7
ENDBRANCH   1   6
BRANCH   1  15
HETATM   15  C   UNK N   1      30.754  16.829   8.619  0.00  0.00     0.192 C 
BRANCH  15  16
HETATM   16  O   UNK N   1      29.595  17.530   8.345  0.00  0.00    -0.303 OA
BRANCH  16  17
HETATM   17  C   UNK N   1      28.960  18.322   9.238  0.00  0.00     0.358 C 
HETATM   18  O   UNK N   1      29.564  18.822  10.176  0.00  0.00    -0.239 OA
HETATM   19  N   UNK N   1      27.639  18.548   9.100  0.00  0.00    -0.346 N 
HETATM   20  H   UNK N   1      27.074  18.010   8.499  0.00  0.00     0.161 HD
HETATM   21  H   UNK N   1      27.224  19.277   9.616  0.00  0.00     0.161 HD
ENDBRANCH  16  17
ENDBRANCH  15  16
ENDBRANCH   1  15
TORSDOF 9
ENDMDL
MODEL 5
REMARK VINA RESULT:      -5.0      9.851     11.856
REMARK  9 active torsions:
REMARK  status: ('A' for Active; 'I' for Inactive)
REMARK    1  A    between atoms: O_1  and  C_9 
REMARK    2  A    between atoms: O_1  and  C_14 
REMARK    3  A    between atoms: O_2  and  C_10 
REMARK    4  A    between atoms: O_2  and  C_16 
REMARK       I    between atoms: N_5  and  C_14 
REMARK    5  A    between atoms: N_5  and  C_15 
REMARK       I    between atoms: N_6  and  C_16 
REMARK    6  A    between atoms: C_7  and  C_8 
REMARK    7  A    between atoms: C_7  and  C_9 
REMARK    8  A    between atoms: C_7  and  C_10 
REMARK    9  A    between atoms: C_8  and  C_12 
ROOT
HETATM    1  C   UNK N   1      31.705  16.651   6.601  0.00  0.00     0.000 C 
HETATM    2  C   UNK N   1      32.210  15.280   7.002  0.00  0.00     0.019 C 
ENDROOT
BRANCH   1   3
HETATM    3  C   UNK N   1      31.727  17.538   7.862  0.00  0.00     0.013 C 
BRANCH   3   4
HETATM    4  C   UNK N   1      30.457  17.415   8.701  0.00  0.00    -0.004 C 
HETATM    5  C   UNK N   1      29.983  18.791   9.114  0.00  0.00     0.005 C 
ENDBRANCH   3   4
ENDBRANCH   1   3
BRANCH   1   6
HETATM    6  C   UNK N   1      30.293  16.455   6.017  0.00  0.00     0.192 C 
BRANCH   6   7
HETATM    7  O   UNK N   1      29.898  17.525   5.245  0.00  0.00    -0.303 OA
BRANCH   7   8
HETATM    8  C   UNK N   1      28.693  18.127   5.390  0.00  0.00     0.360 C 
HETATM    9  O   UNK N   1      27.894  17.674   6.192  0.00  0.00    -0.239 OA
HETATM   10  N   UNK N   1      28.385  19.236   4.661  0.00  0.00    -0.333 N 
HETATM   11  H   UNK N   1      29.057  19.586   4.032  0.00  0.00     0.165 HD
BRANCH  10  12
HETATM   12  C   UNK N   1      27.116  19.925   4.768  0.00  0.00     0.078 C 
HETATM   13  C   UNK N   1      27.253  21.207   5.575  0.00  0.00     0.032 C 
HETATM   14  C   UNK N   1      26.628  20.282   3.380  0.00  0.00     0.032 C 
ENDBRANCH  10  12
ENDBRANCH   7   8
ENDBRANCH   6   7
ENDBRANCH   1   6
BRANCH   1  15
HETATM   15  C   UNK N   1      32.638  17.196   5.509  0.00  0.00     0.192 C 
BRANCH  15  16
HETATM   16  O   UNK N   1      32.863  16.251   4.527  0.00  0.00    -0.303 OA
BRANCH  16  17
HETATM   17  C   UNK N   1      32.739  16.490   3.202  0.00  0.00     0.358 C 
HETATM   18  O   UNK N   1      33.485  15.956   2.394  0.00  0.00    -0.239 OA
HETATM   19  N   UNK N   1      31.790  17.342   2.770  0.00  0.00    -0.346 N 
HETATM   20  H   UNK N   1      31.312  17.950   3.380  0.00  0.00     0.161 HD
HETATM   21  H   UNK N   1      31.565  17.359   1.812  0.00  0.00     0.161 HD
ENDBRANCH  16  17
ENDBRANCH  15  16
ENDBRANCH   1  15
TORSDOF 9
ENDMDL
MODEL 6
REMARK VINA RESULT:      -5.0      2.567      6.740
REMARK  9 active torsions:
REMARK  status: ('A' for Active; 'I' for Inactive)
REMARK    1  A    between atoms: O_1  and  C_9 
REMARK    2  A    between atoms: O_1  and  C_14 
REMARK    3  A    between atoms: O_2  and  C_10 
REMARK    4  A    between atoms: O_2  and  C_16 
REMARK       I    between atoms: N_5  and  C_14 
REMARK    5  A    between atoms: N_5  and  C_15 
REMARK       I    between atoms: N_6  and  C_16 
REMARK    6  A    between atoms: C_7  and  C_8 
REMARK    7  A    between atoms: C_7  and  C_9 
REMARK    8  A    between atoms: C_7  and  C_10 
REMARK    9  A    between atoms: C_8  and  C_12 
ROOT
HETATM    1  C   UNK N   1      36.048  13.540  11.395  0.00  0.00     0.000 C 
HETATM    2  C   UNK N   1      35.073  12.451  10.996  0.00  0.00     0.019 C 
ENDROOT
BRANCH   1   3
HETATM    3  C   UNK N   1      37.084  13.669  10.260  0.00  0.00     0.013 C 
BRANCH   3   4
HETATM    4  C   UNK N   1      38.428  13.029  10.601  0.00  0.00    -0.004 C 
HETATM    5  C   UNK N   1      39.172  12.693   9.328  0.00  0.00     0.005 C 
ENDBRANCH   3   4
ENDBRANCH   1   3
BRANCH   1   6
HETATM    6  C   UNK N   1      36.666  13.116  12.740  0.00  0.00     0.192 C 
BRANCH   6   7
HETATM    7  O   UNK N   1      36.172  13.856  13.793  0.00  0.00    -0.303 OA
BRANCH   7   8
HETATM    8  C   UNK N   1      35.410  13.314  14.774  0.00  0.00     0.360 C 
HETATM    9  O   UNK N   1      34.350  12.787  14.483  0.00  0.00    -0.239 OA
HETATM   10  N   UNK N   1      35.834  13.340  16.069  0.00  0.00    -0.333 N 
HETATM   11  H   UNK N   1      36.702  13.761  16.270  0.00  0.00     0.165 HD
BRANCH  10  12
HETATM   12  C   UNK N   1      35.069  12.780  17.163  0.00  0.00     0.078 C 
HETATM   13  C   UNK N   1      35.571  11.393  17.530  0.00  0.00     0.032 C 
HETATM   14  C   UNK N   1      35.208  13.677  18.374  0.00  0.00     0.032 C 
ENDBRANCH  10  12
ENDBRANCH   7   8
ENDBRANCH   6   7
ENDBRANCH   1   6
BRANCH   1  15
HETATM   15  C   UNK N   1      35.251  14.839  11.585  0.00  0.00     0.192 C 
BRANCH  15  16
HETATM   16  O   UNK N   1      34.893  15.388  10.369  0.00  0.00    -0.303 OA
BRANCH  16  17
HETATM   17  C   UNK N   1      34.941  16.711  10.091  0.00  0.00     0.358 C 
HETATM   18  O   UNK N   1      35.897  17.390  10.436  0.00  0.00    -0.239 OA
HETATM   19  N   UNK N   1      33.914  17.288   9.439  0.00  0.00    -0.346 N 
HETATM   20  H   UNK N   1      33.043  16.840   9.330  0.00  0.00     0.161 HD
HETATM   21  H   UNK N   1      34.036  18.188   9.059  0.00  0.00     0.161 HD
ENDBRANCH  16  17
ENDBRANCH  15  16
ENDBRANCH   1  15
TORSDOF 9
ENDMDL
MODEL 7
REMARK VINA RESULT:      -5.0      7.368     10.136
REMARK  9 active torsions:
REMARK  status: ('A' for Active; 'I' for Inactive)
REMARK    1  A    between atoms: O_1  and  C_9 
REMARK    2  A    between atoms: O_1  and  C_14 
REMARK    3  A    between atoms: O_2  and  C_10 
REMARK    4  A    between atoms: O_2  and  C_16 
REMARK       I    between atoms: N_5  and  C_14 
REMARK    5  A    between atoms: N_5  and  C_15 
REMARK       I    between atoms: N_6  and  C_16 
REMARK    6  A    between atoms: C_7  and  C_8 
REMARK    7  A    between atoms: C_7  and  C_9 
REMARK    8  A    between atoms: C_7  and  C_10 
REMARK    9  A    between atoms: C_8  and  C_12 
ROOT
HETATM    1  C   UNK N   1      32.931  16.278   5.757  0.00  0.00     0.000 C 
HETATM    2  C   UNK N   1      33.200  15.581   4.438  0.00  0.00     0.019 C 
ENDROOT
BRANCH   1   3
HETATM    3  C   UNK N   1      32.223  15.264   6.678  0.00  0.00     0.013 C 
BRANCH   3   4
HETATM    4  C   UNK N   1      33.187  14.281   7.339  0.00  0.00    -0.004 C 
HETATM    5  C   UNK N   1      32.815  14.101   8.794  0.00  0.00     0.005 C 
ENDBRANCH   3   4
ENDBRANCH   1   3
BRANCH   1   6
HETATM    6  C   UNK N   1      32.074  17.518   5.441  0.00  0.00     0.192 C 
BRANCH   6   7
HETATM    7  O   UNK N   1      30.962  17.201   4.691  0.00  0.00    -0.303 OA
BRANCH   7   8
HETATM    8  C   UNK N   1      29.705  17.542   5.066  0.00  0.00     0.360 C 
HETATM    9  O   UNK N   1      29.103  16.825   5.847  0.00  0.00    -0.239 OA
HETATM   10  N   UNK N   1      29.130  18.682   4.591  0.00  0.00    -0.333 N 
HETATM   11  H   UNK N   1      29.648  19.247   3.973  0.00  0.00     0.165 HD
BRANCH  10  12
HETATM   12  C   UNK N   1      27.792  19.102   4.952  0.00  0.00     0.078 C 
HETATM   13  C   UNK N   1      27.826  20.291   5.899  0.00  0.00     0.032 C 
HETATM   14  C   UNK N   1      27.046  19.507   3.699  0.00  0.00     0.032 C 
ENDBRANCH  10  12
ENDBRANCH   7   8
ENDBRANCH   6   7
ENDBRANCH   1   6
BRANCH   1  15
HETATM   15  C   UNK N   1      34.281  16.724   6.338  0.00  0.00     0.192 C 
BRANCH  15  16
HETATM   16  O   UNK N   1      34.196  17.991   6.883  0.00  0.00    -0.303 OA
BRANCH  16  17
HETATM   17  C   UNK N   1      34.480  18.282   8.172  0.00  0.00     0.358 C 
HETATM   18  O   UNK N   1      35.285  19.158   8.456  0.00  0.00    -0.239 OA
HETATM   19  N   UNK N   1      33.880  17.585   9.155  0.00  0.00    -0.346 N 
HETATM   20  H   UNK N   1      33.396  16.744   8.984  0.00  0.00     0.161 HD
HETATM   21  H   UNK N   1      33.925  17.926  10.078  0.00  0.00     0.161 HD
ENDBRANCH  16  17
ENDBRANCH  15  16
ENDBRANCH   1  15
TORSDOF 9
ENDMDL
MODEL 8
REMARK VINA RESULT:      -5.0     15.246     17.849
REMARK  9 active torsions:
REMARK  status: ('A' for Active; 'I' for Inactive)
REMARK    1  A    between atoms: O_1  and  C_9 
REMARK    2  A    between atoms: O_1  and  C_14 
REMARK    3  A    between atoms: O_2  and  C_10 
REMARK    4  A    between atoms: O_2  and  C_16 
REMARK       I    between atoms: N_5  and  C_14 
REMARK    5  A    between atoms: N_5  and  C_15 
REMARK       I    between atoms: N_6  and  C_16 
REMARK    6  A    between atoms: C_7  and  C_8 
REMARK    7  A    between atoms: C_7  and  C_9 
REMARK    8  A    between atoms: C_7  and  C_10 
REMARK    9  A    between atoms: C_8  and  C_12 
ROOT
HETATM    1  C   UNK N   1      21.518  18.389   4.084  0.00  0.00     0.000 C 
HETATM    2  C   UNK N   1      20.852  19.703   3.727  0.00  0.00     0.019 C 
ENDROOT
BRANCH   1   3
HETATM    3  C   UNK N   1      21.254  18.131   5.581  0.00  0.00     0.013 C 
BRANCH   3   4
HETATM    4  C   UNK N   1      21.019  16.656   5.900  0.00  0.00    -0.004 C 
HETATM    5  C   UNK N   1      22.263  16.066   6.527  0.00  0.00     0.005 C 
ENDBRANCH   3   4
ENDBRANCH   1   3
BRANCH   1   6
HETATM    6  C   UNK N   1      23.013  18.539   3.744  0.00  0.00     0.192 C 
BRANCH   6   7
HETATM    7  O   UNK N   1      23.308  19.791   3.250  0.00  0.00    -0.303 OA
BRANCH   7   8
HETATM    8  C   UNK N   1      24.562  20.305   3.260  0.00  0.00     0.360 C 
HETATM    9  O   UNK N   1      24.948  20.952   2.301  0.00  0.00    -0.239 OA
HETATM   10  N   UNK N   1      25.375  20.117   4.337  0.00  0.00    -0.333 N 
HETATM   11  H   UNK N   1      25.029  19.601   5.102  0.00  0.00     0.165 HD
BRANCH  10  12
HETATM   12  C   UNK N   1      26.724  20.638   4.410  0.00  0.00     0.078 C 
HETATM   13  C   UNK N   1      26.994  21.275   5.764  0.00  0.00     0.032 C 
HETATM   14  C   UNK N   1      27.705  19.503   4.210  0.00  0.00     0.032 C 
ENDBRANCH  10  12
ENDBRANCH   7   8
ENDBRANCH   6   7
ENDBRANCH   1   6
BRANCH   1  15
HETATM   15  C   UNK N   1      20.901  17.294   3.202  0.00  0.00     0.192 C 
BRANCH  15  16
HETATM   16  O   UNK N   1      20.359  17.827   2.048  0.00  0.00    -0.303 OA
BRANCH  16  17
HETATM   17  C   UNK N   1      20.047  17.100   0.952  0.00  0.00     0.358 C 
HETATM   18  O   UNK N   1      20.412  17.452  -0.160  0.00  0.00    -0.239 OA
HETATM   19  N   UNK N   1      19.309  15.982   1.087  0.00  0.00    -0.346 N 
HETATM   20  H   UNK N   1      18.818  15.773   1.916  0.00  0.00     0.161 HD
HETATM   21  H   UNK N   1      19.257  15.351   0.334  0.00  0.00     0.161 HD
ENDBRANCH  16  17
ENDBRANCH  15  16
ENDBRANCH   1  15
TORSDOF 9
ENDMDL
MODEL 9
REMARK VINA RESULT:      -4.9      1.768      2.304
REMARK  9 active torsions:
REMARK  status: ('A' for Active; 'I' for Inactive)
REMARK    1  A    between atoms: O_1  and  C_9 
REMARK    2  A    between atoms: O_1  and  C_14 
REMARK    3  A    between atoms: O_2  and  C_10 
REMARK    4  A    between atoms: O_2  and  C_16 
REMARK       I    between atoms: N_5  and  C_14 
REMARK    5  A    between atoms: N_5  and  C_15 
REMARK       I    between atoms: N_6  and  C_16 
REMARK    6  A    between atoms: C_7  and  C_8 
REMARK    7  A    between atoms: C_7  and  C_9 
REMARK    8  A    between atoms: C_7  and  C_10 
REMARK    9  A    between atoms: C_8  and  C_12 
ROOT
HETATM    1  C   UNK N   1      35.759  12.539  15.426  0.00  0.00     0.000 C 
HETATM    2  C   UNK N   1      36.871  13.564  15.331  0.00  0.00     0.019 C 
ENDROOT
BRANCH   1   3
HETATM    3  C   UNK N   1      36.389  11.222  15.924  0.00  0.00     0.013 C 
BRANCH   3   4
HETATM    4  C   UNK N   1      35.598   9.985  15.503  0.00  0.00    -0.004 C 
HETATM    5  C   UNK N   1      35.177   9.207  16.730  0.00  0.00     0.005 C 
ENDBRANCH   3   4
ENDBRANCH   1   3
BRANCH   1   6
HETATM    6  C   UNK N   1      35.134  12.425  14.023  0.00  0.00     0.192 C 
BRANCH   6   7
HETATM    7  O   UNK N   1      34.862  13.660  13.477  0.00  0.00    -0.303 OA
BRANCH   7   8
HETATM    8  C   UNK N   1      35.059  13.940  12.165  0.00  0.00     0.360 C 
HETATM    9  O   UNK N   1      34.244  14.629  11.575  0.00  0.00    -0.239 OA
HETATM   10  N   UNK N   1      36.164  13.473  11.520  0.00  0.00    -0.333 N 
HETATM   11  H   UNK N   1      36.810  12.931  12.028  0.00  0.00     0.165 HD
BRANCH  10  12
HETATM   12  C   UNK N   1      36.433  13.735  10.122  0.00  0.00     0.078 C 
HETATM   13  C   UNK N   1      37.911  14.001   9.887  0.00  0.00     0.032 C 
HETATM   14  C   UNK N   1      36.026  12.527   9.304  0.00  0.00     0.032 C 
ENDBRANCH  10  12
ENDBRANCH   7   8
ENDBRANCH   6   7
ENDBRANCH   1   6
BRANCH   1  15
HETATM   15  C   UNK N   1      34.709  13.072  16.412  0.00  0.00     0.192 C 
BRANCH  15  16
HETATM   16  O   UNK N   1      34.977  12.655  17.702  0.00  0.00    -0.303 OA
BRANCH  16  17
HETATM   17  C   UNK N   1      35.181  13.494  18.742  0.00  0.00     0.358 C 
HETATM   18  O   UNK N   1      35.317  14.696  18.563  0.00  0.00    -0.239 OA
HETATM   19  N   UNK N   1      35.251  12.995  19.991  0.00  0.00    -0.346 N 
HETATM   20  H   UNK N   1      35.359  12.032  20.166  0.00  0.00     0.161 HD
HETATM   21  H   UNK N   1      35.192  13.613  20.755  0.00  0.00     0.161 HD
ENDBRANCH  16  17
ENDBRANCH  15  16
ENDBRANCH   1  15
TORSDOF 9
ENDMDL
