MODEL 1
REMARK VINA RESULT:      -7.7      0.000      0.000
REMARK  1 active torsions:
REMARK  status: ('A' for Active; 'I' for Inactive)
REMARK    1  A    between atoms: C_8  and  C_19 
ROOT
HETATM    1  O   UNK N   1      35.211  19.555  -4.293  0.00  0.00    -0.293 OA
HETATM    2  C   UNK N   1      28.197  22.829  -5.412  0.00  0.00    -0.001 C 
HETATM    3  C   UNK N   1      28.129  24.118  -4.601  0.00  0.00    -0.030 C 
HETATM    4  C   UNK N   1      29.644  22.334  -5.557  0.00  0.00    -0.004 C 
HETATM    5  C   UNK N   1      30.259  22.101  -4.147  0.00  0.00     0.002 C 
HETATM    6  C   UNK N   1      31.769  21.754  -4.286  0.00  0.00    -0.016 C 
HETATM    7  C   UNK N   1      26.646  24.437  -4.756  0.00  0.00     0.063 C 
HETATM    8  C   UNK N   1      28.602  23.821  -3.178  0.00  0.00     0.011 C 
HETATM    9  C   UNK N   1      30.059  23.327  -3.217  0.00  0.00     0.007 C 
HETATM   10  C   UNK N   1      27.459  23.183  -6.697  0.00  0.00     0.006 C 
HETATM   11  C   UNK N   1      29.688  21.012  -6.325  0.00  0.00     0.010 C 
HETATM   12  C   UNK N   1      26.364  24.162  -6.242  0.00  0.00     0.013 C 
HETATM   13  C   UNK N   1      31.979  20.622  -5.289  0.00  0.00    -0.068 C 
HETATM   14  C   UNK N   1      28.982  25.252  -5.209  0.00  0.00     0.016 C 
HETATM   15  C   UNK N   1      31.115  20.504  -6.519  0.00  0.00     0.035 C 
HETATM   16  C   UNK N   1      32.333  21.333  -2.919  0.00  0.00     0.022 C 
HETATM   17  C   UNK N   1      32.544  22.980  -4.781  0.00  0.00     0.020 C 
HETATM   18  C   UNK N   1      33.812  20.933  -2.986  0.00  0.00     0.084 C 
HETATM   19  C   UNK N   1      33.128  19.926  -5.278  0.00  0.00     0.053 C 
HETATM   20  C   UNK N   1      34.119  20.092  -4.195  0.00  0.00     0.149 C 
ENDROOT
BRANCH   7  21
HETATM   21  C   UNK N   1      26.218  25.796  -4.254  0.00  0.00     0.128 C 
HETATM   22  O   UNK N   1      26.313  26.056  -3.065  0.00  0.00    -0.298 OA
HETATM   23  C   UNK N   1      25.666  26.829  -5.183  0.00  0.00     0.091 C 
ENDBRANCH   7  21
TORSDOF 1
ENDMDL
MODEL 2
REMARK VINA RESULT:      -7.3      1.606      2.468
REMARK  1 active torsions:
REMARK  status: ('A' for Active; 'I' for Inactive)
REMARK    1  A    between atoms: C_8  and  C_19 
ROOT
HETATM    1  O   UNK N   1      32.510  19.310  -7.169  0.00  0.00    -0.293 OA
HETATM    2  C   UNK N   1      26.681  24.302  -5.664  0.00  0.00    -0.001 C 
HETATM    3  C   UNK N   1      27.165  25.317  -4.635  0.00  0.00    -0.030 C 
HETATM    4  C   UNK N   1      27.856  23.539  -6.294  0.00  0.00    -0.004 C 
HETATM    5  C   UNK N   1      28.663  22.813  -5.180  0.00  0.00     0.002 C 
HETATM    6  C   UNK N   1      29.940  22.172  -5.793  0.00  0.00    -0.016 C 
HETATM    7  C   UNK N   1      25.843  26.002  -4.311  0.00  0.00     0.063 C 
HETATM    8  C   UNK N   1      27.825  24.561  -3.482  0.00  0.00     0.011 C 
HETATM    9  C   UNK N   1      29.032  23.769  -4.015  0.00  0.00     0.007 C 
HETATM   10  C   UNK N   1      25.821  25.139  -6.603  0.00  0.00     0.006 C 
HETATM   11  C   UNK N   1      27.348  22.488  -7.282  0.00  0.00     0.010 C 
HETATM   12  C   UNK N   1      25.181  26.194  -5.686  0.00  0.00     0.013 C 
HETATM   13  C   UNK N   1      29.593  21.320  -7.012  0.00  0.00    -0.068 C 
HETATM   14  C   UNK N   1      28.160  26.339  -5.226  0.00  0.00     0.016 C 
HETATM   15  C   UNK N   1      28.489  21.729  -7.956  0.00  0.00     0.035 C 
HETATM   16  C   UNK N   1      30.637  21.293  -4.741  0.00  0.00     0.022 C 
HETATM   17  C   UNK N   1      30.914  23.269  -6.239  0.00  0.00     0.020 C 
HETATM   18  C   UNK N   1      31.886  20.590  -5.289  0.00  0.00     0.084 C 
HETATM   19  C   UNK N   1      30.464  20.398  -7.452  0.00  0.00     0.053 C 
HETATM   20  C   UNK N   1      31.668  20.042  -6.674  0.00  0.00     0.149 C 
ENDROOT
BRANCH   7  21
HETATM   21  C   UNK N   1      25.945  27.246  -3.460  0.00  0.00     0.128 C 
HETATM   22  O   UNK N   1      26.025  27.140  -2.247  0.00  0.00    -0.298 OA
HETATM   23  C   UNK N   1      25.938  28.610  -4.073  0.00  0.00     0.091 C 
ENDBRANCH   7  21
TORSDOF 1
ENDMDL
MODEL 3
REMARK VINA RESULT:      -7.2      4.285      7.109
REMARK  1 active torsions:
REMARK  status: ('A' for Active; 'I' for Inactive)
REMARK    1  A    between atoms: C_8  and  C_19 
ROOT
HETATM    1  O   UNK N   1      28.085  31.061  -2.519  0.00  0.00    -0.293 OA
HETATM    2  C   UNK N   1      27.549  23.951  -5.731  0.00  0.00    -0.001 C 
HETATM    3  C   UNK N   1      26.384  23.949  -6.714  0.00  0.00    -0.030 C 
HETATM    4  C   UNK N   1      27.961  25.381  -5.352  0.00  0.00    -0.004 C 
HETATM    5  C   UNK N   1      26.747  26.127  -4.730  0.00  0.00     0.002 C 
HETATM    6  C   UNK N   1      27.115  27.619  -4.493  0.00  0.00    -0.016 C 
HETATM    7  C   UNK N   1      26.306  22.457  -7.014  0.00  0.00     0.063 C 
HETATM    8  C   UNK N   1      25.164  24.557  -6.022  0.00  0.00     0.011 C 
HETATM    9  C   UNK N   1      25.477  26.007  -5.614  0.00  0.00     0.007 C 
HETATM   10  C   UNK N   1      28.597  23.093  -6.428  0.00  0.00     0.006 C 
HETATM   11  C   UNK N   1      29.093  25.362  -4.324  0.00  0.00     0.010 C 
HETATM   12  C   UNK N   1      27.775  22.039  -7.186  0.00  0.00     0.013 C 
HETATM   13  C   UNK N   1      28.427  27.743  -3.721  0.00  0.00    -0.068 C 
HETATM   14  C   UNK N   1      26.694  24.734  -8.007  0.00  0.00     0.016 C 
HETATM   15  C   UNK N   1      29.555  26.768  -3.947  0.00  0.00     0.035 C 
HETATM   16  C   UNK N   1      25.993  28.312  -3.702  0.00  0.00     0.022 C 
HETATM   17  C   UNK N   1      27.283  28.336  -5.838  0.00  0.00     0.020 C 
HETATM   18  C   UNK N   1      26.307  29.782  -3.392  0.00  0.00     0.084 C 
HETATM   19  C   UNK N   1      28.726  28.892  -3.095  0.00  0.00     0.053 C 
HETATM   20  C   UNK N   1      27.735  29.979  -2.963  0.00  0.00     0.149 C 
ENDROOT
BRANCH   7  21
HETATM   21  C   UNK N   1      25.382  22.068  -8.144  0.00  0.00     0.128 C 
HETATM   22  O   UNK N   1      24.184  22.279  -8.042  0.00  0.00    -0.298 OA
HETATM   23  C   UNK N   1      25.903  21.415  -9.384  0.00  0.00     0.091 C 
ENDBRANCH   7  21
TORSDOF 1
ENDMDL
MODEL 4
REMARK VINA RESULT:      -7.2     20.862     24.188
REMARK  1 active torsions:
REMARK  status: ('A' for Active; 'I' for Inactive)
REMARK    1  A    between atoms: C_8  and  C_19 
ROOT
HETATM    1  O   UNK N   1      34.743   9.903  20.874  0.00  0.00    -0.293 OA
HETATM    2  C   UNK N   1      36.645  12.986  13.943  0.00  0.00    -0.001 C 
HETATM    3  C   UNK N   1      36.807  11.853  12.936  0.00  0.00    -0.030 C 
HETATM    4  C   UNK N   1      35.908  12.513  15.205  0.00  0.00    -0.004 C 
HETATM    5  C   UNK N   1      36.692  11.338  15.857  0.00  0.00     0.002 C 
HETATM    6  C   UNK N   1      35.869  10.754  17.041  0.00  0.00    -0.016 C 
HETATM    7  C   UNK N   1      37.407  12.631  11.771  0.00  0.00     0.063 C 
HETATM    8  C   UNK N   1      37.703  10.779  13.554  0.00  0.00     0.011 C 
HETATM    9  C   UNK N   1      37.038  10.230  14.828  0.00  0.00     0.007 C 
HETATM   10  C   UNK N   1      35.978  14.087  13.128  0.00  0.00     0.006 C 
HETATM   11  C   UNK N   1      35.805  13.648  16.226  0.00  0.00     0.010 C 
HETATM   12  C   UNK N   1      36.568  13.919  11.718  0.00  0.00     0.013 C 
HETATM   13  C   UNK N   1      35.428  11.860  17.998  0.00  0.00    -0.068 C 
HETATM   14  C   UNK N   1      35.458  11.229  12.518  0.00  0.00     0.016 C 
HETATM   15  C   UNK N   1      35.047  13.226  17.483  0.00  0.00     0.035 C 
HETATM   16  C   UNK N   1      36.719   9.728  17.808  0.00  0.00     0.022 C 
HETATM   17  C   UNK N   1      34.613  10.054  16.510  0.00  0.00     0.020 C 
HETATM   18  C   UNK N   1      35.986   9.140  19.021  0.00  0.00     0.084 C 
HETATM   19  C   UNK N   1      35.048  11.548  19.248  0.00  0.00     0.053 C 
HETATM   20  C   UNK N   1      35.230  10.188  19.792  0.00  0.00     0.149 C 
ENDROOT
BRANCH   7  21
HETATM   21  C   UNK N   1      37.516  11.872  10.469  0.00  0.00     0.128 C 
HETATM   22  O   UNK N   1      38.324  10.964  10.369  0.00  0.00    -0.298 OA
HETATM   23  C   UNK N   1      36.662  12.221   9.293  0.00  0.00     0.091 C 
ENDBRANCH   7  21
TORSDOF 1
ENDMDL
MODEL 5
REMARK VINA RESULT:      -6.8     13.148     16.791
REMARK  1 active torsions:
REMARK  status: ('A' for Active; 'I' for Inactive)
REMARK    1  A    between atoms: C_8  and  C_19 
ROOT
HETATM    1  O   UNK N   1      32.528  16.915   2.521  0.00  0.00    -0.293 OA
HETATM    2  C   UNK N   1      34.462  15.636   9.990  0.00  0.00    -0.001 C 
HETATM    3  C   UNK N   1      34.903  14.184  10.135  0.00  0.00    -0.030 C 
HETATM    4  C   UNK N   1      34.437  16.070   8.516  0.00  0.00    -0.004 C 
HETATM    5  C   UNK N   1      33.475  15.145   7.717  0.00  0.00     0.002 C 
HETATM    6  C   UNK N   1      33.569  15.480   6.201  0.00  0.00    -0.016 C 
HETATM    7  C   UNK N   1      34.980  14.092  11.654  0.00  0.00     0.063 C 
HETATM    8  C   UNK N   1      33.859  13.291   9.464  0.00  0.00     0.011 C 
HETATM    9  C   UNK N   1      33.770  13.643   7.969  0.00  0.00     0.007 C 
HETATM   10  C   UNK N   1      35.414  16.386  10.913  0.00  0.00     0.006 C 
HETATM   11  C   UNK N   1      33.939  17.510   8.387  0.00  0.00     0.010 C 
HETATM   12  C   UNK N   1      35.668  15.404  12.068  0.00  0.00     0.013 C 
HETATM   13  C   UNK N   1      33.392  16.977   5.959  0.00  0.00    -0.068 C 
HETATM   14  C   UNK N   1      36.292  13.918   9.517  0.00  0.00     0.016 C 
HETATM   15  C   UNK N   1      33.933  17.990   6.937  0.00  0.00     0.035 C 
HETATM   16  C   UNK N   1      32.483  14.709   5.431  0.00  0.00     0.022 C 
HETATM   17  C   UNK N   1      34.942  15.068   5.658  0.00  0.00     0.020 C 
HETATM   18  C   UNK N   1      32.486  15.023   3.929  0.00  0.00     0.084 C 
HETATM   19  C   UNK N   1      33.065  17.421   4.735  0.00  0.00     0.053 C 
HETATM   20  C   UNK N   1      32.676  16.491   3.656  0.00  0.00     0.149 C 
ENDROOT
BRANCH   7  21
HETATM   21  C   UNK N   1      35.607  12.830  12.199  0.00  0.00     0.128 C 
HETATM   22  O   UNK N   1      35.026  11.765  12.068  0.00  0.00    -0.298 OA
HETATM   23  C   UNK N   1      36.922  12.859  12.908  0.00  0.00     0.091 C 
ENDBRANCH   7  21
TORSDOF 1
ENDMDL
MODEL 6
REMARK VINA RESULT:      -6.8     15.233     18.921
REMARK  1 active torsions:
REMARK  status: ('A' for Active; 'I' for Inactive)
REMARK    1  A    between atoms: C_8  and  C_19 
ROOT
HETATM    1  O   UNK N   1      33.163  17.719   5.442  0.00  0.00    -0.293 OA
HETATM    2  C   UNK N   1      36.842  13.359  10.792  0.00  0.00    -0.001 C 
HETATM    3  C   UNK N   1      36.190  13.604  12.148  0.00  0.00    -0.030 C 
HETATM    4  C   UNK N   1      35.954  13.865   9.644  0.00  0.00    -0.004 C 
HETATM    5  C   UNK N   1      35.679  15.385   9.829  0.00  0.00     0.002 C 
HETATM    6  C   UNK N   1      34.654  15.864   8.762  0.00  0.00    -0.016 C 
HETATM    7  C   UNK N   1      37.191  12.884  13.045  0.00  0.00     0.063 C 
HETATM    8  C   UNK N   1      36.067  15.113  12.362  0.00  0.00     0.011 C 
HETATM    9  C   UNK N   1      35.177  15.714  11.260  0.00  0.00     0.007 C 
HETATM   10  C   UNK N   1      37.153  11.868  10.816  0.00  0.00     0.006 C 
HETATM   11  C   UNK N   1      36.648  13.662   8.297  0.00  0.00     0.010 C 
HETATM   12  C   UNK N   1      37.491  11.580  12.288  0.00  0.00     0.013 C 
HETATM   13  C   UNK N   1      35.088  15.441   7.359  0.00  0.00    -0.068 C 
HETATM   14  C   UNK N   1      34.800  12.945  12.270  0.00  0.00     0.016 C 
HETATM   15  C   UNK N   1      35.781  14.122   7.126  0.00  0.00     0.035 C 
HETATM   16  C   UNK N   1      34.527  17.395   8.814  0.00  0.00     0.022 C 
HETATM   17  C   UNK N   1      33.279  15.247   9.042  0.00  0.00     0.020 C 
HETATM   18  C   UNK N   1      33.563  17.947   7.755  0.00  0.00     0.084 C 
HETATM   19  C   UNK N   1      34.569  16.059   6.286  0.00  0.00     0.053 C 
HETATM   20  C   UNK N   1      33.736  17.271   6.422  0.00  0.00     0.149 C 
ENDROOT
BRANCH   7  21
HETATM   21  C   UNK N   1      36.770  12.717  14.486  0.00  0.00     0.128 C 
HETATM   22  O   UNK N   1      36.387  11.628  14.879  0.00  0.00    -0.298 OA
HETATM   23  C   UNK N   1      36.802  13.866  15.442  0.00  0.00     0.091 C 
ENDBRANCH   7  21
TORSDOF 1
ENDMDL
MODEL 7
REMARK VINA RESULT:      -6.5      1.415      2.606
REMARK  1 active torsions:
REMARK  status: ('A' for Active; 'I' for Inactive)
REMARK    1  A    between atoms: C_8  and  C_19 
ROOT
HETATM    1  O   UNK N   1      35.539  20.372  -4.893  0.00  0.00    -0.293 OA
HETATM    2  C   UNK N   1      28.828  24.253  -3.866  0.00  0.00    -0.001 C 
HETATM    3  C   UNK N   1      28.254  24.602  -5.235  0.00  0.00    -0.030 C 
HETATM    4  C   UNK N   1      29.919  23.176  -3.973  0.00  0.00    -0.004 C 
HETATM    5  C   UNK N   1      31.056  23.678  -4.907  0.00  0.00     0.002 C 
HETATM    6  C   UNK N   1      32.082  22.533  -5.143  0.00  0.00    -0.016 C 
HETATM    7  C   UNK N   1      27.132  25.541  -4.809  0.00  0.00     0.063 C 
HETATM    8  C   UNK N   1      29.364  25.227  -6.080  0.00  0.00     0.011 C 
HETATM    9  C   UNK N   1      30.507  24.212  -6.256  0.00  0.00     0.007 C 
HETATM   10  C   UNK N   1      27.592  23.902  -3.047  0.00  0.00     0.006 C 
HETATM   11  C   UNK N   1      30.519  22.880  -2.598  0.00  0.00     0.010 C 
HETATM   12  C   UNK N   1      26.500  24.833  -3.599  0.00  0.00     0.013 C 
HETATM   13  C   UNK N   1      32.540  21.927  -3.818  0.00  0.00    -0.068 C 
HETATM   14  C   UNK N   1      27.670  23.375  -5.967  0.00  0.00     0.016 C 
HETATM   15  C   UNK N   1      31.586  21.788  -2.658  0.00  0.00     0.035 C 
HETATM   16  C   UNK N   1      33.304  23.078  -5.901  0.00  0.00     0.022 C 
HETATM   17  C   UNK N   1      31.440  21.420  -5.980  0.00  0.00     0.020 C 
HETATM   18  C   UNK N   1      34.381  22.011  -6.133  0.00  0.00     0.084 C 
HETATM   19  C   UNK N   1      33.673  21.208  -3.770  0.00  0.00     0.053 C 
HETATM   20  C   UNK N   1      34.597  21.148  -4.919  0.00  0.00     0.149 C 
ENDROOT
BRANCH   7  21
HETATM   21  C   UNK N   1      26.170  25.943  -5.902  0.00  0.00     0.128 C 
HETATM   22  O   UNK N   1      25.038  25.487  -5.906  0.00  0.00    -0.298 OA
HETATM   23  C   UNK N   1      26.581  26.880  -6.992  0.00  0.00     0.091 C 
ENDBRANCH   7  21
TORSDOF 1
ENDMDL
MODEL 8
REMARK VINA RESULT:      -6.2     15.524     17.111
REMARK  1 active torsions:
REMARK  status: ('A' for Active; 'I' for Inactive)
REMARK    1  A    between atoms: C_8  and  C_19 
ROOT
HETATM    1  O   UNK N   1      20.892  15.558   0.533  0.00  0.00    -0.293 OA
HETATM    2  C   UNK N   1      23.511  14.078   7.752  0.00  0.00    -0.001 C 
HETATM    3  C   UNK N   1      22.451  13.276   8.498  0.00  0.00    -0.030 C 
HETATM    4  C   UNK N   1      23.252  14.078   6.238  0.00  0.00    -0.004 C 
HETATM    5  C   UNK N   1      21.844  14.671   5.949  0.00  0.00     0.002 C 
HETATM    6  C   UNK N   1      21.516  14.526   4.436  0.00  0.00    -0.016 C 
HETATM    7  C   UNK N   1      23.038  13.323   9.904  0.00  0.00     0.063 C 
HETATM    8  C   UNK N   1      21.101  13.968   8.314  0.00  0.00     0.011 C 
HETATM    9  C   UNK N   1      20.745  14.005   6.817  0.00  0.00     0.007 C 
HETATM   10  C   UNK N   1      24.819  13.459   8.228  0.00  0.00     0.006 C 
HETATM   11  C   UNK N   1      24.293  14.933   5.514  0.00  0.00     0.010 C 
HETATM   12  C   UNK N   1      24.537  13.061   9.686  0.00  0.00     0.013 C 
HETATM   13  C   UNK N   1      22.650  15.079   3.575  0.00  0.00    -0.068 C 
HETATM   14  C   UNK N   1      22.358  11.814   8.012  0.00  0.00     0.016 C 
HETATM   15  C   UNK N   1      24.090  14.930   4.000  0.00  0.00     0.035 C 
HETATM   16  C   UNK N   1      20.217  15.282   4.111  0.00  0.00     0.022 C 
HETATM   17  C   UNK N   1      21.325  13.047   4.082  0.00  0.00     0.020 C 
HETATM   18  C   UNK N   1      19.851  15.221   2.623  0.00  0.00     0.084 C 
HETATM   19  C   UNK N   1      22.419  15.395   2.291  0.00  0.00     0.053 C 
HETATM   20  C   UNK N   1      21.051  15.410   1.734  0.00  0.00     0.149 C 
ENDROOT
BRANCH   7  21
HETATM   21  C   UNK N   1      22.363  12.433  10.921  0.00  0.00     0.128 C 
HETATM   22  O   UNK N   1      21.145  12.405  10.982  0.00  0.00    -0.298 OA
HETATM   23  C   UNK N   1      23.159  11.593  11.867  0.00  0.00     0.091 C 
ENDBRANCH   7  21
TORSDOF 1
ENDMDL
MODEL 9
REMARK VINA RESULT:      -6.1      1.955      2.872
REMARK  1 active torsions:
REMARK  status: ('A' for Active; 'I' for Inactive)
REMARK    1  A    between atoms: C_8  and  C_19 
ROOT
HETATM    1  O   UNK N   1      35.658  22.280  -5.589  0.00  0.00    -0.293 OA
HETATM    2  C   UNK N   1      28.452  24.806  -3.901  0.00  0.00    -0.001 C 
HETATM    3  C   UNK N   1      28.123  25.981  -4.815  0.00  0.00    -0.030 C 
HETATM    4  C   UNK N   1      29.666  24.018  -4.416  0.00  0.00    -0.004 C 
HETATM    5  C   UNK N   1      30.896  24.964  -4.519  0.00  0.00     0.002 C 
HETATM    6  C   UNK N   1      32.081  24.210  -5.188  0.00  0.00    -0.016 C 
HETATM    7  C   UNK N   1      26.832  26.459  -4.161  0.00  0.00     0.063 C 
HETATM    8  C   UNK N   1      29.293  26.964  -4.779  0.00  0.00     0.011 C 
HETATM    9  C   UNK N   1      30.564  26.266  -5.294  0.00  0.00     0.007 C 
HETATM   10  C   UNK N   1      27.130  24.053  -3.810  0.00  0.00     0.006 C 
HETATM   11  C   UNK N   1      30.013  22.877  -3.459  0.00  0.00     0.010 C 
HETATM   12  C   UNK N   1      26.064  25.159  -3.871  0.00  0.00     0.013 C 
HETATM   13  C   UNK N   1      32.337  22.872  -4.497  0.00  0.00    -0.068 C 
HETATM   14  C   UNK N   1      27.851  25.548  -6.271  0.00  0.00     0.016 C 
HETATM   15  C   UNK N   1      31.197  22.048  -3.954  0.00  0.00     0.035 C 
HETATM   16  C   UNK N   1      33.353  25.071  -5.114  0.00  0.00     0.022 C 
HETATM   17  C   UNK N   1      31.760  23.933  -6.661  0.00  0.00     0.020 C 
HETATM   18  C   UNK N   1      34.578  24.372  -5.718  0.00  0.00     0.084 C 
HETATM   19  C   UNK N   1      33.518  22.253  -4.660  0.00  0.00     0.053 C 
HETATM   20  C   UNK N   1      34.652  22.921  -5.329  0.00  0.00     0.149 C 
ENDROOT
BRANCH   7  21
HETATM   21  C   UNK N   1      26.065  27.510  -4.928  0.00  0.00     0.128 C 
HETATM   22  O   UNK N   1      26.491  28.652  -4.974  0.00  0.00    -0.298 OA
HETATM   23  C   UNK N   1      24.782  27.183  -5.623  0.00  0.00     0.091 C 
ENDBRANCH   7  21
TORSDOF 1
ENDMDL
