REMARK  1 active torsions:
REMARK  status: ('A' for Active; 'I' for Inactive)
REMARK    1  A    between atoms: C_8  and  C_19 
ROOT
HETATM    1  O   UNK N   1       0.065  -4.071   0.511  0.00  0.00    -0.293 OA
HETATM    2  C   UNK N   1       6.992  -0.554  -0.388  0.00  0.00    -0.001 C 
HETATM    3  C   UNK N   1       6.841   0.917  -0.017  0.00  0.00    -0.030 C 
HETATM    4  C   UNK N   1       5.804  -1.385   0.120  0.00  0.00    -0.004 C 
HETATM    5  C   UNK N   1       4.482  -0.825  -0.478  0.00  0.00     0.002 C 
HETATM    6  C   UNK N   1       3.268  -1.561   0.157  0.00  0.00    -0.016 C 
HETATM    7  C   UNK N   1       8.190   1.440  -0.496  0.00  0.00     0.063 C 
HETATM    8  C   UNK N   1       5.614   1.475  -0.738  0.00  0.00     0.011 C 
HETATM    9  C   UNK N   1       4.360   0.709  -0.281  0.00  0.00     0.007 C 
HETATM   10  C   UNK N   1       8.368  -0.914   0.158  0.00  0.00     0.006 C 
HETATM   11  C   UNK N   1       5.946  -2.846  -0.309  0.00  0.00     0.010 C 
HETATM   12  C   UNK N   1       9.189   0.374  -0.017  0.00  0.00     0.013 C 
HETATM   13  C   UNK N   1       3.439  -3.076   0.067  0.00  0.00    -0.068 C 
HETATM   14  C   UNK N   1       6.697   1.137   1.504  0.00  0.00     0.016 C 
HETATM   15  C   UNK N   1       4.799  -3.713   0.207  0.00  0.00     0.035 C 
HETATM   16  C   UNK N   1       1.975  -1.152  -0.568  0.00  0.00     0.022 C 
HETATM   17  C   UNK N   1       3.142  -1.182   1.637  0.00  0.00     0.020 C 
HETATM   18  C   UNK N   1       0.736  -1.874  -0.023  0.00  0.00     0.084 C 
HETATM   19  C   UNK N   1       2.370  -3.877   0.203  0.00  0.00     0.053 C 
HETATM   20  C   UNK N   1       0.998  -3.332   0.241  0.00  0.00     0.149 C 
ENDROOT
BRANCH   7  21
HETATM   21  C   UNK N   1       8.515   2.861  -0.099  0.00  0.00     0.128 C 
HETATM   22  O   UNK N   1       7.791   3.770  -0.470  0.00  0.00    -0.298 OA
HETATM   23  C   UNK N   1       9.717   3.180   0.731  0.00  0.00     0.091 C 
ENDBRANCH   7  21
TORSDOF 1
