REMARK  6 active torsions:
REMARK  status: ('A' for Active; 'I' for Inactive)
REMARK    1  A    between atoms: O_5  and  C_18 
REMARK    2  A    between atoms: O_5  and  C_27 
REMARK    3  A    between atoms: N_8  and  C_13 
REMARK       I    between atoms: N_8  and  C_25 
REMARK    4  A    between atoms: N_9  and  C_16 
REMARK       I    between atoms: N_9  and  C_25 
REMARK       I    between atoms: N_12  and  C_32 
REMARK    5  A    between atoms: C_14  and  C_26 
REMARK    6  A    between atoms: C_29  and  C_32 
ROOT
HETATM    1  C   UNK N   1       5.461  -1.032   0.195  0.00  0.00     0.036 A 
HETATM    2  C   UNK N   1       4.931  -3.751  -0.118  0.00  0.00     0.076 A 
HETATM    3  C   UNK N   1       5.472  -1.602  -1.087  0.00  0.00     0.032 A 
HETATM    4  C   UNK N   1       5.122  -1.810   1.303  0.00  0.00     0.032 A 
HETATM    5  C   UNK N   1       5.232  -2.964  -1.239  0.00  0.00     0.039 A 
HETATM    6  C   UNK N   1       4.869  -3.168   1.151  0.00  0.00     0.039 A 
ENDROOT
BRANCH   1   7
HETATM    7  N   UNK N   1       5.569   0.363   0.368  0.00  0.00    -0.309 N 
HETATM    8  C   UNK N   1       4.667   1.171  -0.226  0.00  0.00     0.325 C 
HETATM    9  O   UNK N   1       3.836   0.697  -0.990  0.00  0.00    -0.247 OA
HETATM   10  N   UNK N   1       4.584   2.469   0.157  0.00  0.00    -0.309 N 
HETATM   11  H   UNK N   1       5.367   2.898   0.572  0.00  0.00     0.170 HD
HETATM   12  H   UNK N   1       6.293   0.742   0.917  0.00  0.00     0.170 HD
BRANCH  10  13
HETATM   13  C   UNK N   1       3.394   3.225  -0.025  0.00  0.00     0.037 A 
HETATM   14  C   UNK N   1       3.418   4.611   0.109  0.00  0.00     0.047 A 
HETATM   15  C   UNK N   1       2.226   5.351   0.024  0.00  0.00     0.071 A 
HETATM   16  C   UNK N   1       0.999   4.674  -0.175  0.00  0.00     0.049 A 
HETATM   17 Cl   UNK N   1      -0.534   5.523  -0.280  0.00  0.00    -0.083 Cl
HETATM   18  C   UNK N   1       0.980   3.290  -0.290  0.00  0.00     0.027 A 
HETATM   19  C   UNK N   1       2.162   2.575  -0.209  0.00  0.00     0.031 A 
BRANCH  15  20
HETATM   20  C   UNK N   1       2.271   6.846   0.148  0.00  0.00     0.419 C 
HETATM   21  F   UNK N   1       1.506   7.242   1.230  0.00  0.00    -0.166 F 
HETATM   22  F   UNK N   1       3.568   7.293   0.334  0.00  0.00    -0.166 F 
HETATM   23  F   UNK N   1       1.768   7.416  -1.007  0.00  0.00    -0.166 F 
ENDBRANCH  15  20
ENDBRANCH  10  13
ENDBRANCH   1   7
BRANCH   2  24
HETATM   24  O   UNK N   1       5.013  -5.094  -0.214  0.00  0.00    -0.311 OA
BRANCH  24  25
HETATM   25  C   UNK N   1       6.254  -5.648  -0.140  0.00  0.00     0.079 A 
HETATM   26  C   UNK N   1       7.370  -4.820   0.039  0.00  0.00     0.072 A 
HETATM   27  C   UNK N   1       8.643  -5.334   0.102  0.00  0.00     0.103 A 
HETATM   28  N   UNK N   1       8.825  -6.680  -0.005  0.00  0.00    -0.361 N 
HETATM   29  C   UNK N   1       7.762  -7.526  -0.170  0.00  0.00     0.091 A 
ATOM     30  HN  UNK N   1       9.769  -7.063   0.038  1.00  0.00     0.165 HD
HETATM   31  C   UNK N   1       6.451  -7.024  -0.243  0.00  0.00     0.054 A 
BRANCH  27  32
HETATM   32  C   UNK N   1       9.768  -4.390   0.263  0.00  0.00     0.267 C 
HETATM   33  O   UNK N   1       9.538  -3.190   0.372  0.00  0.00    -0.266 OA
HETATM   34  N   UNK N   1      11.042  -4.840   0.275  0.00  0.00    -0.360 N 
HETATM   35  C   UNK N   1      12.154  -3.931   0.408  0.00  0.00     0.149 C 
HETATM   36  H   UNK N   1      11.215  -5.805   0.192  0.00  0.00     0.162 HD
ENDBRANCH  27  32
ENDBRANCH  24  25
ENDBRANCH   2  24
TORSDOF 6
