MODEL 1
REMARK VINA RESULT:      -9.0      0.000      0.000
REMARK  6 active torsions:
REMARK  status: ('A' for Active; 'I' for Inactive)
REMARK    1  A    between atoms: O_5  and  C_18 
REMARK    2  A    between atoms: O_5  and  C_27 
REMARK    3  A    between atoms: N_8  and  C_13 
REMARK       I    between atoms: N_8  and  C_25 
REMARK    4  A    between atoms: N_9  and  C_16 
REMARK       I    between atoms: N_9  and  C_25 
REMARK       I    between atoms: N_12  and  C_32 
REMARK    5  A    between atoms: C_14  and  C_26 
REMARK    6  A    between atoms: C_29  and  C_32 
ROOT
HETATM    1  C   UNK N   1      34.504  15.711   9.214  0.00  0.00     0.036 A 
HETATM    2  C   UNK N   1      32.137  16.568   8.016  0.00  0.00     0.076 A 
HETATM    3  C   UNK N   1      34.272  17.082   9.030  0.00  0.00     0.032 A 
HETATM    4  C   UNK N   1      33.525  14.782   8.858  0.00  0.00     0.032 A 
HETATM    5  C   UNK N   1      33.102  17.507   8.409  0.00  0.00     0.039 A 
HETATM    6  C   UNK N   1      32.350  15.206   8.250  0.00  0.00     0.039 A 
ENDROOT
BRANCH   1   7
HETATM    7  N   UNK N   1      35.614  15.258   9.956  0.00  0.00    -0.309 N 
HETATM    8  C   UNK N   1      35.465  14.997  11.271  0.00  0.00     0.325 C 
HETATM    9  O   UNK N   1      34.405  15.257  11.825  0.00  0.00    -0.247 OA
HETATM   10  N   UNK N   1      36.427  14.299  11.923  0.00  0.00    -0.309 N 
HETATM   11  H   UNK N   1      37.344  14.297  11.566  0.00  0.00     0.170 HD
HETATM   12  H   UNK N   1      36.487  15.132   9.518  0.00  0.00     0.170 HD
BRANCH  10  13
HETATM   13  C   UNK N   1      36.142  13.569  13.109  0.00  0.00     0.037 A 
HETATM   14  C   UNK N   1      35.282  12.474  13.068  0.00  0.00     0.047 A 
HETATM   15  C   UNK N   1      34.925  11.810  14.254  0.00  0.00     0.071 A 
HETATM   16  C   UNK N   1      35.427  12.277  15.492  0.00  0.00     0.049 A 
HETATM   17 Cl   UNK N   1      35.019  11.511  17.018  0.00  0.00    -0.083 Cl
HETATM   18  C   UNK N   1      36.270  13.380  15.528  0.00  0.00     0.027 A 
HETATM   19  C   UNK N   1      36.617  14.022  14.352  0.00  0.00     0.031 A 
BRANCH  15  20
HETATM   20  C   UNK N   1      34.016  10.617  14.190  0.00  0.00     0.419 C 
HETATM   21  F   UNK N   1      34.686   9.501  14.656  0.00  0.00    -0.166 F 
HETATM   22  F   UNK N   1      32.884  10.811  14.965  0.00  0.00    -0.166 F 
HETATM   23  F   UNK N   1      33.625  10.410  12.880  0.00  0.00    -0.166 F 
ENDBRANCH  15  20
ENDBRANCH  10  13
ENDBRANCH   1   7
BRANCH   2  24
HETATM   24  O   UNK N   1      31.174  16.936   7.147  0.00  0.00    -0.311 OA
BRANCH  24  25
HETATM   25  C   UNK N   1      30.053  17.508   7.667  0.00  0.00     0.079 A 
HETATM   26  C   UNK N   1      29.240  18.302   6.848  0.00  0.00     0.072 A 
HETATM   27  C   UNK N   1      28.109  18.913   7.335  0.00  0.00     0.103 A 
HETATM   28  N   UNK N   1      27.766  18.737   8.642  0.00  0.00    -0.361 N 
HETATM   29  C   UNK N   1      28.526  17.961   9.474  0.00  0.00     0.091 A 
ATOM     30  HN  UNK N   1      26.929  19.192   9.006  1.00  0.00     0.165 HD
HETATM   31  C   UNK N   1      29.690  17.331   9.001  0.00  0.00     0.054 A 
BRANCH  27  32
HETATM   32  C   UNK N   1      27.322  19.758   6.413  0.00  0.00     0.267 C 
HETATM   33  O   UNK N   1      27.577  20.954   6.325  0.00  0.00    -0.266 OA
HETATM   34  N   UNK N   1      26.319  19.223   5.683  0.00  0.00    -0.360 N 
HETATM   35  C   UNK N   1      25.525  20.036   4.796  0.00  0.00     0.149 C 
HETATM   36  H   UNK N   1      26.126  18.261   5.758  0.00  0.00     0.162 HD
ENDBRANCH  27  32
ENDBRANCH  24  25
ENDBRANCH   2  24
TORSDOF 6
ENDMDL
MODEL 2
REMARK VINA RESULT:      -8.5      2.427      3.169
REMARK  6 active torsions:
REMARK  status: ('A' for Active; 'I' for Inactive)
REMARK    1  A    between atoms: O_5  and  C_18 
REMARK    2  A    between atoms: O_5  and  C_27 
REMARK    3  A    between atoms: N_8  and  C_13 
REMARK       I    between atoms: N_8  and  C_25 
REMARK    4  A    between atoms: N_9  and  C_16 
REMARK       I    between atoms: N_9  and  C_25 
REMARK       I    between atoms: N_12  and  C_32 
REMARK    5  A    between atoms: C_14  and  C_26 
REMARK    6  A    between atoms: C_29  and  C_32 
ROOT
HETATM    1  C   UNK N   1      34.694  15.781   9.218  0.00  0.00     0.036 A 
HETATM    2  C   UNK N   1      32.768  16.765   7.458  0.00  0.00     0.076 A 
HETATM    3  C   UNK N   1      33.874  14.889   8.510  0.00  0.00     0.032 A 
HETATM    4  C   UNK N   1      34.590  17.154   8.993  0.00  0.00     0.032 A 
HETATM    5  C   UNK N   1      32.897  15.382   7.652  0.00  0.00     0.039 A 
HETATM    6  C   UNK N   1      33.623  17.648   8.125  0.00  0.00     0.039 A 
ENDROOT
BRANCH   1   7
HETATM    7  N   UNK N   1      35.776  15.312   9.990  0.00  0.00    -0.309 N 
HETATM    8  C   UNK N   1      35.581  15.037  11.296  0.00  0.00     0.325 C 
HETATM    9  O   UNK N   1      34.504  15.297  11.819  0.00  0.00    -0.247 OA
HETATM   10  N   UNK N   1      36.516  14.325  11.973  0.00  0.00    -0.309 N 
HETATM   11  H   UNK N   1      37.445  14.322  11.646  0.00  0.00     0.170 HD
HETATM   12  H   UNK N   1      36.662  15.185   9.581  0.00  0.00     0.170 HD
BRANCH  10  13
HETATM   13  C   UNK N   1      36.187  13.583  13.140  0.00  0.00     0.037 A 
HETATM   14  C   UNK N   1      35.344  12.478  13.052  0.00  0.00     0.047 A 
HETATM   15  C   UNK N   1      34.942  11.801  14.216  0.00  0.00     0.071 A 
HETATM   16  C   UNK N   1      35.382  12.266  15.479  0.00  0.00     0.049 A 
HETATM   17 Cl   UNK N   1      34.915  11.484  16.980  0.00  0.00    -0.083 Cl
HETATM   18  C   UNK N   1      36.208  13.379  15.560  0.00  0.00     0.027 A 
HETATM   19  C   UNK N   1      36.600  14.033  14.405  0.00  0.00     0.031 A 
BRANCH  15  20
HETATM   20  C   UNK N   1      34.052  10.598  14.104  0.00  0.00     0.419 C 
HETATM   21  F   UNK N   1      33.733  10.383  12.776  0.00  0.00    -0.166 F 
HETATM   22  F   UNK N   1      34.676   9.466  14.600  0.00  0.00    -0.166 F 
HETATM   23  F   UNK N   1      32.894  10.817  14.828  0.00  0.00    -0.166 F 
ENDBRANCH  15  20
ENDBRANCH  10  13
ENDBRANCH   1   7
BRANCH   2  24
HETATM   24  O   UNK N   1      31.644  17.250   6.892  0.00  0.00    -0.311 OA
BRANCH  24  25
HETATM   25  C   UNK N   1      31.542  17.161   5.538  0.00  0.00     0.079 A 
HETATM   26  C   UNK N   1      30.346  16.708   4.964  0.00  0.00     0.072 A 
HETATM   27  C   UNK N   1      30.204  16.585   3.603  0.00  0.00     0.103 A 
HETATM   28  N   UNK N   1      31.246  16.919   2.791  0.00  0.00    -0.361 N 
HETATM   29  C   UNK N   1      32.427  17.376   3.308  0.00  0.00     0.091 A 
ATOM     30  HN  UNK N   1      31.143  16.826   1.780  1.00  0.00     0.165 HD
HETATM   31  C   UNK N   1      32.599  17.505   4.697  0.00  0.00     0.054 A 
BRANCH  27  32
HETATM   32  C   UNK N   1      28.921  16.072   3.080  0.00  0.00     0.267 C 
HETATM   33  O   UNK N   1      28.924  15.134   2.290  0.00  0.00    -0.266 OA
HETATM   34  N   UNK N   1      27.754  16.639   3.456  0.00  0.00    -0.360 N 
HETATM   35  C   UNK N   1      26.493  16.166   2.938  0.00  0.00     0.149 C 
HETATM   36  H   UNK N   1      27.763  17.388   4.094  0.00  0.00     0.162 HD
ENDBRANCH  27  32
ENDBRANCH  24  25
ENDBRANCH   2  24
TORSDOF 6
ENDMDL
MODEL 3
REMARK VINA RESULT:      -8.3      4.881     10.238
REMARK  6 active torsions:
REMARK  status: ('A' for Active; 'I' for Inactive)
REMARK    1  A    between atoms: O_5  and  C_18 
REMARK    2  A    between atoms: O_5  and  C_27 
REMARK    3  A    between atoms: N_8  and  C_13 
REMARK       I    between atoms: N_8  and  C_25 
REMARK    4  A    between atoms: N_9  and  C_16 
REMARK       I    between atoms: N_9  and  C_25 
REMARK       I    between atoms: N_12  and  C_32 
REMARK    5  A    between atoms: C_14  and  C_26 
REMARK    6  A    between atoms: C_29  and  C_32 
ROOT
HETATM    1  C   UNK N   1      35.659  15.367  10.032  0.00  0.00     0.036 A 
HETATM    2  C   UNK N   1      36.815  13.674  11.921  0.00  0.00     0.076 A 
HETATM    3  C   UNK N   1      35.439  15.593  11.399  0.00  0.00     0.032 A 
HETATM    4  C   UNK N   1      36.506  14.336   9.621  0.00  0.00     0.032 A 
HETATM    5  C   UNK N   1      35.996  14.733  12.339  0.00  0.00     0.039 A 
HETATM    6  C   UNK N   1      37.074  13.484  10.560  0.00  0.00     0.039 A 
ENDROOT
BRANCH   1   7
HETATM    7  N   UNK N   1      35.220  16.294   9.064  0.00  0.00    -0.309 N 
HETATM    8  C   UNK N   1      34.037  16.091   8.449  0.00  0.00     0.325 C 
HETATM    9  O   UNK N   1      33.413  15.058   8.655  0.00  0.00    -0.247 OA
HETATM   10  N   UNK N   1      33.474  17.101   7.742  0.00  0.00    -0.309 N 
HETATM   11  H   UNK N   1      34.049  17.816   7.385  0.00  0.00     0.170 HD
HETATM   12  H   UNK N   1      35.769  17.080   8.843  0.00  0.00     0.170 HD
BRANCH  10  13
HETATM   13  C   UNK N   1      32.073  17.154   7.504  0.00  0.00     0.037 A 
HETATM   14  C   UNK N   1      31.216  17.658   8.479  0.00  0.00     0.047 A 
HETATM   15  C   UNK N   1      29.824  17.624   8.285  0.00  0.00     0.071 A 
HETATM   16  C   UNK N   1      29.301  17.051   7.101  0.00  0.00     0.049 A 
HETATM   17 Cl   UNK N   1      27.576  16.958   6.788  0.00  0.00    -0.083 Cl
HETATM   18  C   UNK N   1      30.161  16.534   6.140  0.00  0.00     0.027 A 
HETATM   19  C   UNK N   1      31.529  16.580   6.343  0.00  0.00     0.031 A 
BRANCH  15  20
HETATM   20  C   UNK N   1      28.915  18.191   9.335  0.00  0.00     0.419 C 
HETATM   21  F   UNK N   1      28.165  17.172   9.895  0.00  0.00    -0.166 F 
HETATM   22  F   UNK N   1      29.638  18.813  10.339  0.00  0.00    -0.166 F 
HETATM   23  F   UNK N   1      28.072  19.121   8.756  0.00  0.00    -0.166 F 
ENDBRANCH  15  20
ENDBRANCH  10  13
ENDBRANCH   1   7
BRANCH   2  24
HETATM   24  O   UNK N   1      37.088  12.671  12.782  0.00  0.00    -0.311 OA
BRANCH  24  25
HETATM   25  C   UNK N   1      36.065  12.225  13.561  0.00  0.00     0.079 A 
HETATM   26  C   UNK N   1      36.035  12.564  14.920  0.00  0.00     0.072 A 
HETATM   27  C   UNK N   1      35.031  12.121  15.748  0.00  0.00     0.103 A 
HETATM   28  N   UNK N   1      34.038  11.342  15.236  0.00  0.00    -0.361 N 
HETATM   29  C   UNK N   1      34.023  10.997  13.911  0.00  0.00     0.091 A 
ATOM     30  HN  UNK N   1      33.294  11.010  15.849  1.00  0.00     0.165 HD
HETATM   31  C   UNK N   1      35.041  11.432  13.046  0.00  0.00     0.054 A 
BRANCH  27  32
HETATM   32  C   UNK N   1      35.089  12.499  17.176  0.00  0.00     0.267 C 
HETATM   33  O   UNK N   1      34.963  13.677  17.494  0.00  0.00    -0.266 OA
HETATM   34  N   UNK N   1      35.293  11.558  18.124  0.00  0.00    -0.360 N 
HETATM   35  C   UNK N   1      35.376  11.911  19.520  0.00  0.00     0.149 C 
HETATM   36  H   UNK N   1      35.388  10.616  17.858  0.00  0.00     0.162 HD
ENDBRANCH  27  32
ENDBRANCH  24  25
ENDBRANCH   2  24
TORSDOF 6
ENDMDL
MODEL 4
REMARK VINA RESULT:      -8.3      6.547     10.037
REMARK  6 active torsions:
REMARK  status: ('A' for Active; 'I' for Inactive)
REMARK    1  A    between atoms: O_5  and  C_18 
REMARK    2  A    between atoms: O_5  and  C_27 
REMARK    3  A    between atoms: N_8  and  C_13 
REMARK       I    between atoms: N_8  and  C_25 
REMARK    4  A    between atoms: N_9  and  C_16 
REMARK       I    between atoms: N_9  and  C_25 
REMARK       I    between atoms: N_12  and  C_32 
REMARK    5  A    between atoms: C_14  and  C_26 
REMARK    6  A    between atoms: C_29  and  C_32 
ROOT
HETATM    1  C   UNK N   1      26.067  17.320   3.668  0.00  0.00     0.036 A 
HETATM    2  C   UNK N   1      23.688  18.143   4.866  0.00  0.00     0.076 A 
HETATM    3  C   UNK N   1      25.570  18.608   3.419  0.00  0.00     0.032 A 
HETATM    4  C   UNK N   1      25.408  16.477   4.563  0.00  0.00     0.032 A 
HETATM    5  C   UNK N   1      24.370  19.008   3.997  0.00  0.00     0.039 A 
HETATM    6  C   UNK N   1      24.215  16.880   5.152  0.00  0.00     0.039 A 
ENDROOT
BRANCH   1   7
HETATM    7  N   UNK N   1      27.342  16.934   3.205  0.00  0.00    -0.309 N 
HETATM    8  C   UNK N   1      28.440  17.449   3.795  0.00  0.00     0.325 C 
HETATM    9  O   UNK N   1      28.320  18.320   4.647  0.00  0.00    -0.247 OA
HETATM   10  N   UNK N   1      29.648  16.881   3.561  0.00  0.00    -0.309 N 
HETATM   11  H   UNK N   1      29.784  16.364   2.734  0.00  0.00     0.170 HD
HETATM   12  H   UNK N   1      27.429  16.295   2.461  0.00  0.00     0.170 HD
BRANCH  10  13
HETATM   13  C   UNK N   1      30.725  17.013   4.480  0.00  0.00     0.037 A 
HETATM   14  C   UNK N   1      30.487  16.945   5.851  0.00  0.00     0.047 A 
HETATM   15  C   UNK N   1      31.532  17.170   6.763  0.00  0.00     0.071 A 
HETATM   16  C   UNK N   1      32.823  17.490   6.277  0.00  0.00     0.049 A 
HETATM   17 Cl   UNK N   1      34.179  17.798   7.349  0.00  0.00    -0.083 Cl
HETATM   18  C   UNK N   1      33.049  17.574   4.909  0.00  0.00     0.027 A 
HETATM   19  C   UNK N   1      32.011  17.345   4.023  0.00  0.00     0.031 A 
BRANCH  15  20
HETATM   20  C   UNK N   1      31.265  17.071   8.236  0.00  0.00     0.419 C 
HETATM   21  F   UNK N   1      32.035  16.057   8.777  0.00  0.00    -0.166 F 
HETATM   22  F   UNK N   1      31.576  18.256   8.881  0.00  0.00    -0.166 F 
HETATM   23  F   UNK N   1      29.926  16.794   8.440  0.00  0.00    -0.166 F 
ENDBRANCH  15  20
ENDBRANCH  10  13
ENDBRANCH   1   7
BRANCH   2  24
HETATM   24  O   UNK N   1      22.398  18.393   5.167  0.00  0.00    -0.311 OA
BRANCH  24  25
HETATM   25  C   UNK N   1      21.524  18.493   4.128  0.00  0.00     0.079 A 
HETATM   26  C   UNK N   1      21.234  17.359   3.359  0.00  0.00     0.072 A 
HETATM   27  C   UNK N   1      20.372  17.417   2.290  0.00  0.00     0.103 A 
HETATM   28  N   UNK N   1      19.780  18.602   1.975  0.00  0.00    -0.361 N 
HETATM   29  C   UNK N   1      20.027  19.733   2.706  0.00  0.00     0.091 A 
ATOM     30  HN  UNK N   1      19.142  18.648   1.180  1.00  0.00     0.165 HD
HETATM   31  C   UNK N   1      20.909  19.700   3.800  0.00  0.00     0.054 A 
BRANCH  27  32
HETATM   32  C   UNK N   1      20.142  16.182   1.513  0.00  0.00     0.267 C 
HETATM   33  O   UNK N   1      20.653  16.063   0.404  0.00  0.00    -0.266 OA
HETATM   34  N   UNK N   1      19.364  15.195   2.010  0.00  0.00    -0.360 N 
HETATM   35  C   UNK N   1      19.110  13.992   1.256  0.00  0.00     0.149 C 
HETATM   36  H   UNK N   1      18.964  15.298   2.903  0.00  0.00     0.162 HD
ENDBRANCH  27  32
ENDBRANCH  24  25
ENDBRANCH   2  24
TORSDOF 6
ENDMDL
MODEL 5
REMARK VINA RESULT:      -8.2      6.013     11.246
REMARK  6 active torsions:
REMARK  status: ('A' for Active; 'I' for Inactive)
REMARK    1  A    between atoms: O_5  and  C_18 
REMARK    2  A    between atoms: O_5  and  C_27 
REMARK    3  A    between atoms: N_8  and  C_13 
REMARK       I    between atoms: N_8  and  C_25 
REMARK    4  A    between atoms: N_9  and  C_16 
REMARK       I    between atoms: N_9  and  C_25 
REMARK       I    between atoms: N_12  and  C_32 
REMARK    5  A    between atoms: C_14  and  C_26 
REMARK    6  A    between atoms: C_29  and  C_32 
ROOT
HETATM    1  C   UNK N   1      32.920  16.826   6.866  0.00  0.00     0.036 A 
HETATM    2  C   UNK N   1      34.514  16.779   9.152  0.00  0.00     0.076 A 
HETATM    3  C   UNK N   1      33.692  17.948   7.201  0.00  0.00     0.032 A 
HETATM    4  C   UNK N   1      32.999  15.666   7.638  0.00  0.00     0.032 A 
HETATM    5  C   UNK N   1      34.468  17.932   8.356  0.00  0.00     0.039 A 
HETATM    6  C   UNK N   1      33.784  15.644   8.785  0.00  0.00     0.039 A 
ENDROOT
BRANCH   1   7
HETATM    7  N   UNK N   1      32.230  16.762   5.638  0.00  0.00    -0.309 N 
HETATM    8  C   UNK N   1      30.882  16.714   5.643  0.00  0.00     0.325 C 
HETATM    9  O   UNK N   1      30.281  16.617   6.705  0.00  0.00    -0.247 OA
HETATM   10  N   UNK N   1      30.204  16.940   4.490  0.00  0.00    -0.309 N 
HETATM   11  H   UNK N   1      30.656  16.786   3.630  0.00  0.00     0.170 HD
HETATM   12  H   UNK N   1      32.726  16.755   4.788  0.00  0.00     0.170 HD
BRANCH  10  13
HETATM   13  C   UNK N   1      28.858  17.397   4.495  0.00  0.00     0.037 A 
HETATM   14  C   UNK N   1      28.563  18.703   4.878  0.00  0.00     0.047 A 
HETATM   15  C   UNK N   1      27.227  19.128   4.974  0.00  0.00     0.071 A 
HETATM   16  C   UNK N   1      26.184  18.210   4.703  0.00  0.00     0.049 A 
HETATM   17 Cl   UNK N   1      24.490  18.658   4.813  0.00  0.00    -0.083 Cl
HETATM   18  C   UNK N   1      26.484  16.904   4.339  0.00  0.00     0.027 A 
HETATM   19  C   UNK N   1      27.805  16.502   4.243  0.00  0.00     0.031 A 
BRANCH  15  20
HETATM   20  C   UNK N   1      26.926  20.545   5.367  0.00  0.00     0.419 C 
HETATM   21  F   UNK N   1      26.386  21.217   4.285  0.00  0.00    -0.166 F 
HETATM   22  F   UNK N   1      26.022  20.592   6.414  0.00  0.00    -0.166 F 
HETATM   23  F   UNK N   1      28.095  21.168   5.762  0.00  0.00    -0.166 F 
ENDBRANCH  15  20
ENDBRANCH  10  13
ENDBRANCH   1   7
BRANCH   2  24
HETATM   24  O   UNK N   1      34.996  16.864  10.409  0.00  0.00    -0.311 OA
BRANCH  24  25
HETATM   25  C   UNK N   1      35.697  15.797  10.880  0.00  0.00     0.079 A 
HETATM   26  C   UNK N   1      35.346  15.229  12.112  0.00  0.00     0.072 A 
HETATM   27  C   UNK N   1      36.037  14.162  12.634  0.00  0.00     0.103 A 
HETATM   28  N   UNK N   1      37.084  13.640  11.936  0.00  0.00    -0.361 N 
HETATM   29  C   UNK N   1      37.455  14.157  10.724  0.00  0.00     0.091 A 
ATOM     30  HN  UNK N   1      37.600  12.850  12.323  1.00  0.00     0.165 HD
HETATM   31  C   UNK N   1      36.767  15.252  10.172  0.00  0.00     0.054 A 
BRANCH  27  32
HETATM   32  C   UNK N   1      35.621  13.640  13.952  0.00  0.00     0.267 C 
HETATM   33  O   UNK N   1      34.561  13.030  14.052  0.00  0.00    -0.266 OA
HETATM   34  N   UNK N   1      36.391  13.845  15.043  0.00  0.00    -0.360 N 
HETATM   35  C   UNK N   1      35.990  13.364  16.342  0.00  0.00     0.149 C 
HETATM   36  H   UNK N   1      37.241  14.332  14.950  0.00  0.00     0.162 HD
ENDBRANCH  27  32
ENDBRANCH  24  25
ENDBRANCH   2  24
TORSDOF 6
ENDMDL
MODEL 6
REMARK VINA RESULT:      -8.0      7.427     12.936
REMARK  6 active torsions:
REMARK  status: ('A' for Active; 'I' for Inactive)
REMARK    1  A    between atoms: O_5  and  C_18 
REMARK    2  A    between atoms: O_5  and  C_27 
REMARK    3  A    between atoms: N_8  and  C_13 
REMARK       I    between atoms: N_8  and  C_25 
REMARK    4  A    between atoms: N_9  and  C_16 
REMARK       I    between atoms: N_9  and  C_25 
REMARK       I    between atoms: N_12  and  C_32 
REMARK    5  A    between atoms: C_14  and  C_26 
REMARK    6  A    between atoms: C_29  and  C_32 
ROOT
HETATM    1  C   UNK N   1      28.146  18.443   6.010  0.00  0.00     0.036 A 
HETATM    2  C   UNK N   1      30.399  17.150   7.022  0.00  0.00     0.076 A 
HETATM    3  C   UNK N   1      28.306  18.303   7.396  0.00  0.00     0.032 A 
HETATM    4  C   UNK N   1      29.143  17.995   5.142  0.00  0.00     0.032 A 
HETATM    5  C   UNK N   1      29.418  17.635   7.899  0.00  0.00     0.039 A 
HETATM    6  C   UNK N   1      30.262  17.340   5.644  0.00  0.00     0.039 A 
ENDROOT
BRANCH   1   7
HETATM    7  N   UNK N   1      27.102  19.227   5.477  0.00  0.00    -0.309 N 
HETATM    8  C   UNK N   1      26.064  18.615   4.871  0.00  0.00     0.325 C 
HETATM    9  O   UNK N   1      26.090  17.403   4.696  0.00  0.00    -0.247 OA
HETATM   10  N   UNK N   1      24.935  19.320   4.615  0.00  0.00    -0.309 N 
HETATM   11  H   UNK N   1      24.988  20.299   4.533  0.00  0.00     0.170 HD
HETATM   12  H   UNK N   1      27.130  20.208   5.548  0.00  0.00     0.170 HD
BRANCH  10  13
HETATM   13  C   UNK N   1      23.675  18.679   4.462  0.00  0.00     0.037 A 
HETATM   14  C   UNK N   1      22.780  19.118   3.490  0.00  0.00     0.047 A 
HETATM   15  C   UNK N   1      21.497  18.549   3.400  0.00  0.00     0.071 A 
HETATM   16  C   UNK N   1      21.115  17.545   4.321  0.00  0.00     0.049 A 
HETATM   17 Cl   UNK N   1      19.529  16.793   4.285  0.00  0.00    -0.083 Cl
HETATM   18  C   UNK N   1      22.006  17.124   5.300  0.00  0.00     0.027 A 
HETATM   19  C   UNK N   1      23.267  17.690   5.373  0.00  0.00     0.031 A 
BRANCH  15  20
HETATM   20  C   UNK N   1      20.552  19.017   2.332  0.00  0.00     0.419 C 
HETATM   21  F   UNK N   1      19.382  19.467   2.917  0.00  0.00    -0.166 F 
HETATM   22  F   UNK N   1      21.105  20.049   1.593  0.00  0.00    -0.166 F 
HETATM   23  F   UNK N   1      20.268  17.965   1.481  0.00  0.00    -0.166 F 
ENDBRANCH  15  20
ENDBRANCH  10  13
ENDBRANCH   1   7
BRANCH   2  24
HETATM   24  O   UNK N   1      31.293  16.244   7.468  0.00  0.00    -0.311 OA
BRANCH  24  25
HETATM   25  C   UNK N   1      32.454  16.724   7.993  0.00  0.00     0.079 A 
HETATM   26  C   UNK N   1      33.133  15.977   8.965  0.00  0.00     0.072 A 
HETATM   27  C   UNK N   1      34.299  16.429   9.534  0.00  0.00     0.103 A 
HETATM   28  N   UNK N   1      34.812  17.629   9.140  0.00  0.00    -0.361 N 
HETATM   29  C   UNK N   1      34.187  18.386   8.186  0.00  0.00     0.091 A 
ATOM     30  HN  UNK N   1      35.675  17.968   9.563  1.00  0.00     0.165 HD
HETATM   31  C   UNK N   1      32.990  17.947   7.593  0.00  0.00     0.054 A 
BRANCH  27  32
HETATM   32  C   UNK N   1      34.937  15.595  10.573  0.00  0.00     0.267 C 
HETATM   33  O   UNK N   1      36.081  15.851  10.934  0.00  0.00    -0.266 OA
HETATM   34  N   UNK N   1      34.274  14.548  11.111  0.00  0.00    -0.360 N 
HETATM   35  C   UNK N   1      34.888  13.708  12.110  0.00  0.00     0.149 C 
HETATM   36  H   UNK N   1      33.355  14.355  10.818  0.00  0.00     0.162 HD
ENDBRANCH  27  32
ENDBRANCH  24  25
ENDBRANCH   2  24
TORSDOF 6
ENDMDL
MODEL 7
REMARK VINA RESULT:      -7.9      6.004     11.126
REMARK  6 active torsions:
REMARK  status: ('A' for Active; 'I' for Inactive)
REMARK    1  A    between atoms: O_5  and  C_18 
REMARK    2  A    between atoms: O_5  and  C_27 
REMARK    3  A    between atoms: N_8  and  C_13 
REMARK       I    between atoms: N_8  and  C_25 
REMARK    4  A    between atoms: N_9  and  C_16 
REMARK       I    between atoms: N_9  and  C_25 
REMARK       I    between atoms: N_12  and  C_32 
REMARK    5  A    between atoms: C_14  and  C_26 
REMARK    6  A    between atoms: C_29  and  C_32 
ROOT
HETATM    1  C   UNK N   1      32.594  15.792   8.744  0.00  0.00     0.036 A 
HETATM    2  C   UNK N   1      34.607  14.027   7.965  0.00  0.00     0.076 A 
HETATM    3  C   UNK N   1      33.850  16.289   8.365  0.00  0.00     0.032 A 
HETATM    4  C   UNK N   1      32.333  14.423   8.669  0.00  0.00     0.032 A 
HETATM    5  C   UNK N   1      34.861  15.406   8.000  0.00  0.00     0.039 A 
HETATM    6  C   UNK N   1      33.338  13.540   8.292  0.00  0.00     0.039 A 
ENDROOT
BRANCH   1   7
HETATM    7  N   UNK N   1      31.514  16.664   8.990  0.00  0.00    -0.309 N 
HETATM    8  C   UNK N   1      30.814  17.154   7.946  0.00  0.00     0.325 C 
HETATM    9  O   UNK N   1      31.186  16.924   6.802  0.00  0.00    -0.247 OA
HETATM   10  N   UNK N   1      29.617  17.751   8.170  0.00  0.00    -0.309 N 
HETATM   11  H   UNK N   1      29.432  18.138   9.057  0.00  0.00     0.170 HD
HETATM   12  H   UNK N   1      31.274  16.911   9.912  0.00  0.00     0.170 HD
BRANCH  10  13
HETATM   13  C   UNK N   1      28.623  17.830   7.158  0.00  0.00     0.037 A 
HETATM   14  C   UNK N   1      28.303  19.059   6.586  0.00  0.00     0.047 A 
HETATM   15  C   UNK N   1      27.255  19.155   5.654  0.00  0.00     0.071 A 
HETATM   16  C   UNK N   1      26.512  17.997   5.320  0.00  0.00     0.049 A 
HETATM   17 Cl   UNK N   1      25.182  18.035   4.176  0.00  0.00    -0.083 Cl
HETATM   18  C   UNK N   1      26.825  16.778   5.908  0.00  0.00     0.027 A 
HETATM   19  C   UNK N   1      27.862  16.698   6.820  0.00  0.00     0.031 A 
BRANCH  15  20
HETATM   20  C   UNK N   1      26.938  20.482   5.029  0.00  0.00     0.419 C 
HETATM   21  F   UNK N   1      27.207  20.430   3.674  0.00  0.00    -0.166 F 
HETATM   22  F   UNK N   1      25.604  20.810   5.204  0.00  0.00    -0.166 F 
HETATM   23  F   UNK N   1      27.715  21.462   5.618  0.00  0.00    -0.166 F 
ENDBRANCH  15  20
ENDBRANCH  10  13
ENDBRANCH   1   7
BRANCH   2  24
HETATM   24  O   UNK N   1      35.644  13.166   7.926  0.00  0.00    -0.311 OA
BRANCH  24  25
HETATM   25  C   UNK N   1      36.580  13.275   8.908  0.00  0.00     0.079 A 
HETATM   26  C   UNK N   1      36.202  13.094  10.245  0.00  0.00     0.072 A 
HETATM   27  C   UNK N   1      37.109  13.212  11.270  0.00  0.00     0.103 A 
HETATM   28  N   UNK N   1      38.408  13.505  10.982  0.00  0.00    -0.361 N 
HETATM   29  C   UNK N   1      38.823  13.679   9.689  0.00  0.00     0.091 A 
ATOM     30  HN  UNK N   1      39.082  13.596  11.741  1.00  0.00     0.165 HD
HETATM   31  C   UNK N   1      37.912  13.570   8.623  0.00  0.00     0.054 A 
BRANCH  27  32
HETATM   32  C   UNK N   1      36.623  13.034  12.654  0.00  0.00     0.267 C 
HETATM   33  O   UNK N   1      35.940  12.054  12.933  0.00  0.00    -0.266 OA
HETATM   34  N   UNK N   1      36.915  13.950  13.604  0.00  0.00    -0.360 N 
HETATM   35  C   UNK N   1      36.430  13.805  14.955  0.00  0.00     0.149 C 
HETATM   36  H   UNK N   1      37.468  14.729  13.371  0.00  0.00     0.162 HD
ENDBRANCH  27  32
ENDBRANCH  24  25
ENDBRANCH   2  24
TORSDOF 6
ENDMDL
MODEL 8
REMARK VINA RESULT:      -7.8      2.798      3.867
REMARK  6 active torsions:
REMARK  status: ('A' for Active; 'I' for Inactive)
REMARK    1  A    between atoms: O_5  and  C_18 
REMARK    2  A    between atoms: O_5  and  C_27 
REMARK    3  A    between atoms: N_8  and  C_13 
REMARK       I    between atoms: N_8  and  C_25 
REMARK    4  A    between atoms: N_9  and  C_16 
REMARK       I    between atoms: N_9  and  C_25 
REMARK       I    between atoms: N_12  and  C_32 
REMARK    5  A    between atoms: C_14  and  C_26 
REMARK    6  A    between atoms: C_29  and  C_32 
ROOT
HETATM    1  C   UNK N   1      35.754  14.736  11.164  0.00  0.00     0.036 A 
HETATM    2  C   UNK N   1      34.134  16.334   9.552  0.00  0.00     0.076 A 
HETATM    3  C   UNK N   1      34.736  14.149  10.397  0.00  0.00     0.032 A 
HETATM    4  C   UNK N   1      35.997  16.108  11.070  0.00  0.00     0.032 A 
HETATM    5  C   UNK N   1      33.913  14.950   9.613  0.00  0.00     0.039 A 
HETATM    6  C   UNK N   1      35.183  16.907  10.276  0.00  0.00     0.039 A 
ENDROOT
BRANCH   1   7
HETATM    7  N   UNK N   1      36.685  13.941  11.862  0.00  0.00    -0.309 N 
HETATM    8  C   UNK N   1      36.310  13.349  13.014  0.00  0.00     0.325 C 
HETATM    9  O   UNK N   1      35.210  13.592  13.494  0.00  0.00    -0.247 OA
HETATM   10  N   UNK N   1      37.084  12.366  13.539  0.00  0.00    -0.309 N 
HETATM   11  H   UNK N   1      38.040  12.333  13.307  0.00  0.00     0.170 HD
HETATM   12  H   UNK N   1      37.597  13.818  11.512  0.00  0.00     0.170 HD
BRANCH  10  13
HETATM   13  C   UNK N   1      36.547  11.383  14.415  0.00  0.00     0.037 A 
HETATM   14  C   UNK N   1      36.345  11.680  15.760  0.00  0.00     0.047 A 
HETATM   15  C   UNK N   1      35.905  10.681  16.646  0.00  0.00     0.071 A 
HETATM   16  C   UNK N   1      35.693   9.367  16.165  0.00  0.00     0.049 A 
HETATM   17 Cl   UNK N   1      35.157   8.062  17.209  0.00  0.00    -0.083 Cl
HETATM   18  C   UNK N   1      35.914   9.074  14.826  0.00  0.00     0.027 A 
HETATM   19  C   UNK N   1      36.342  10.068  13.964  0.00  0.00     0.031 A 
BRANCH  15  20
HETATM   20  C   UNK N   1      35.670  11.022  18.089  0.00  0.00     0.419 C 
HETATM   21  F   UNK N   1      36.729  10.561  18.850  0.00  0.00    -0.166 F 
HETATM   22  F   UNK N   1      35.557  12.390  18.267  0.00  0.00    -0.166 F 
HETATM   23  F   UNK N   1      34.499  10.423  18.515  0.00  0.00    -0.166 F 
ENDBRANCH  15  20
ENDBRANCH  10  13
ENDBRANCH   1   7
BRANCH   2  24
HETATM   24  O   UNK N   1      33.167  17.135   9.061  0.00  0.00    -0.311 OA
BRANCH  24  25
HETATM   25  C   UNK N   1      32.974  17.125   7.714  0.00  0.00     0.079 A 
HETATM   26  C   UNK N   1      31.672  17.045   7.204  0.00  0.00     0.072 A 
HETATM   27  C   UNK N   1      31.431  17.013   5.851  0.00  0.00     0.103 A 
HETATM   28  N   UNK N   1      32.482  17.069   4.985  0.00  0.00    -0.361 N 
HETATM   29  C   UNK N   1      33.769  17.158   5.441  0.00  0.00     0.091 A 
ATOM     30  HN  UNK N   1      32.305  17.042   3.981  1.00  0.00     0.165 HD
HETATM   31  C   UNK N   1      34.041  17.186   6.819  0.00  0.00     0.054 A 
BRANCH  27  32
HETATM   32  C   UNK N   1      30.030  16.899   5.395  0.00  0.00     0.267 C 
HETATM   33  O   UNK N   1      29.311  16.025   5.869  0.00  0.00    -0.266 OA
HETATM   34  N   UNK N   1      29.547  17.738   4.453  0.00  0.00    -0.360 N 
HETATM   35  C   UNK N   1      28.189  17.626   3.980  0.00  0.00     0.149 C 
HETATM   36  H   UNK N   1      30.131  18.438   4.084  0.00  0.00     0.162 HD
ENDBRANCH  27  32
ENDBRANCH  24  25
ENDBRANCH   2  24
TORSDOF 6
ENDMDL
MODEL 9
REMARK VINA RESULT:      -7.7      2.374      3.461
REMARK  6 active torsions:
REMARK  status: ('A' for Active; 'I' for Inactive)
REMARK    1  A    between atoms: O_5  and  C_18 
REMARK    2  A    between atoms: O_5  and  C_27 
REMARK    3  A    between atoms: N_8  and  C_13 
REMARK       I    between atoms: N_8  and  C_25 
REMARK    4  A    between atoms: N_9  and  C_16 
REMARK       I    between atoms: N_9  and  C_25 
REMARK       I    between atoms: N_12  and  C_32 
REMARK    5  A    between atoms: C_14  and  C_26 
REMARK    6  A    between atoms: C_29  and  C_32 
ROOT
HETATM    1  C   UNK N   1      36.032  15.639  10.664  0.00  0.00     0.036 A 
HETATM    2  C   UNK N   1      34.704  15.620   8.213  0.00  0.00     0.076 A 
HETATM    3  C   UNK N   1      35.170  16.695  10.329  0.00  0.00     0.032 A 
HETATM    4  C   UNK N   1      36.173  14.551   9.801  0.00  0.00     0.032 A 
HETATM    5  C   UNK N   1      34.528  16.696   9.095  0.00  0.00     0.039 A 
HETATM    6  C   UNK N   1      35.522  14.545   8.574  0.00  0.00     0.039 A 
ENDROOT
BRANCH   1   7
HETATM    7  N   UNK N   1      36.591  15.543  11.955  0.00  0.00    -0.309 N 
HETATM    8  C   UNK N   1      36.014  14.729  12.863  0.00  0.00     0.325 C 
HETATM    9  O   UNK N   1      34.959  14.170  12.594  0.00  0.00    -0.247 OA
HETATM   10  N   UNK N   1      36.691  14.409  13.993  0.00  0.00    -0.309 N 
HETATM   11  H   UNK N   1      37.399  15.013  14.316  0.00  0.00     0.170 HD
HETATM   12  H   UNK N   1      37.393  16.063  12.190  0.00  0.00     0.170 HD
BRANCH  10  13
HETATM   13  C   UNK N   1      36.406  13.222  14.722  0.00  0.00     0.037 A 
HETATM   14  C   UNK N   1      37.089  12.043  14.435  0.00  0.00     0.047 A 
HETATM   15  C   UNK N   1      36.743  10.848  15.088  0.00  0.00     0.071 A 
HETATM   16  C   UNK N   1      35.678  10.847  16.020  0.00  0.00     0.049 A 
HETATM   17 Cl   UNK N   1      35.174   9.394  16.868  0.00  0.00    -0.083 Cl
HETATM   18  C   UNK N   1      34.988  12.023  16.288  0.00  0.00     0.027 A 
HETATM   19  C   UNK N   1      35.344  13.193  15.641  0.00  0.00     0.031 A 
BRANCH  15  20
HETATM   20  C   UNK N   1      37.504   9.590  14.785  0.00  0.00     0.419 C 
HETATM   21  F   UNK N   1      36.643   8.646  14.256  0.00  0.00    -0.166 F 
HETATM   22  F   UNK N   1      38.518   9.827  13.873  0.00  0.00    -0.166 F 
HETATM   23  F   UNK N   1      38.063   9.102  15.951  0.00  0.00    -0.166 F 
ENDBRANCH  15  20
ENDBRANCH  10  13
ENDBRANCH   1   7
BRANCH   2  24
HETATM   24  O   UNK N   1      34.351  15.763   6.919  0.00  0.00    -0.311 OA
BRANCH  24  25
HETATM   25  C   UNK N   1      33.045  15.546   6.603  0.00  0.00     0.079 A 
HETATM   26  C   UNK N   1      32.067  16.442   7.056  0.00  0.00     0.072 A 
HETATM   27  C   UNK N   1      30.735  16.253   6.776  0.00  0.00     0.103 A 
HETATM   28  N   UNK N   1      30.356  15.174   6.035  0.00  0.00    -0.361 N 
HETATM   29  C   UNK N   1      31.279  14.280   5.564  0.00  0.00     0.091 A 
ATOM     30  HN  UNK N   1      29.368  15.030   5.829  1.00  0.00     0.165 HD
HETATM   31  C   UNK N   1      32.647  14.449   5.842  0.00  0.00     0.054 A 
BRANCH  27  32
HETATM   32  C   UNK N   1      29.765  17.228   7.315  0.00  0.00     0.267 C 
HETATM   33  O   UNK N   1      29.033  17.840   6.545  0.00  0.00    -0.266 OA
HETATM   34  N   UNK N   1      29.693  17.456   8.645  0.00  0.00    -0.360 N 
HETATM   35  C   UNK N   1      28.768  18.421   9.188  0.00  0.00     0.149 C 
HETATM   36  H   UNK N   1      30.281  16.955   9.255  0.00  0.00     0.162 HD
ENDBRANCH  27  32
ENDBRANCH  24  25
ENDBRANCH   2  24
TORSDOF 6
ENDMDL
