MODEL 1
REMARK VINA RESULT:      -6.3      0.000      0.000
REMARK  3 active torsions:
REMARK  status: ('A' for Active; 'I' for Inactive)
REMARK    1  A    between atoms: O_3  and  C_12 
REMARK    2  A    between atoms: O_6  and  C_18 
REMARK    3  A    between atoms: O_7  and  C_21 
ROOT
HETATM    1 Cl   UNK N   1      21.971  18.002   6.018  0.00  0.00    -0.078 Cl
HETATM    2  O   UNK N   1      22.099  15.257   7.428  0.00  0.00    -0.322 OA
HETATM    3  O   UNK N   1      20.747  12.097   7.109  0.00  0.00    -0.288 OA
HETATM    4  O   UNK N   1      24.520  12.335  10.816  0.00  0.00    -0.293 OA
HETATM    5  C   UNK N   1      22.149  13.947   7.899  0.00  0.00     0.184 A 
HETATM    6  C   UNK N   1      21.816  13.925   9.420  0.00  0.00     0.039 C 
HETATM    7  C   UNK N   1      22.295  12.653  10.094  0.00  0.00     0.091 C 
HETATM    8  C   UNK N   1      21.074  13.270   7.055  0.00  0.00     0.207 A 
HETATM    9  C   UNK N   1      23.553  13.428   7.590  0.00  0.00     0.092 C 
HETATM   10  C   UNK N   1      20.352  14.196   9.740  0.00  0.00     0.014 C 
HETATM   11  C   UNK N   1      20.529  14.262   6.167  0.00  0.00     0.082 A 
HETATM   12  C   UNK N   1      21.212  15.407   6.417  0.00  0.00     0.112 A 
HETATM   13  C   UNK N   1      23.772  12.585   9.887  0.00  0.00     0.152 C 
HETATM   14  C   UNK N   1      24.314  12.847   8.544  0.00  0.00     0.086 C 
HETATM   15  C   UNK N   1      19.519  14.213   5.193  0.00  0.00     0.087 A 
HETATM   16  C   UNK N   1      21.011  16.569   5.687  0.00  0.00     0.101 A 
HETATM   17  C   UNK N   1      19.289  15.380   4.431  0.00  0.00     0.076 A 
HETATM   18  C   UNK N   1      20.048  16.557   4.656  0.00  0.00     0.095 A 
ENDROOT
BRANCH   9  19
HETATM   19  O   UNK N   1      24.043  13.630   6.337  0.00  0.00    -0.356 OA
HETATM   20  C   UNK N   1      24.411  12.612   5.486  0.00  0.00     0.209 C 
ENDBRANCH   9  19
BRANCH  15  21
HETATM   21  O   UNK N   1      18.798  13.082   5.014  0.00  0.00    -0.355 OA
HETATM   22  C   UNK N   1      18.768  12.401   3.815  0.00  0.00     0.210 C 
ENDBRANCH  15  21
BRANCH  18  23
HETATM   23  O   UNK N   1      19.875  17.668   3.902  0.00  0.00    -0.354 OA
HETATM   24  C   UNK N   1      20.009  17.676   2.531  0.00  0.00     0.210 C 
ENDBRANCH  18  23
TORSDOF 3
ENDMDL
MODEL 2
REMARK VINA RESULT:      -6.3      2.803      6.554
REMARK  3 active torsions:
REMARK  status: ('A' for Active; 'I' for Inactive)
REMARK    1  A    between atoms: O_3  and  C_12 
REMARK    2  A    between atoms: O_6  and  C_18 
REMARK    3  A    between atoms: O_7  and  C_21 
ROOT
HETATM    1 Cl   UNK N   1      23.548  13.606   4.311  0.00  0.00    -0.078 Cl
HETATM    2  O   UNK N   1      22.455  16.495   4.299  0.00  0.00    -0.322 OA
HETATM    3  O   UNK N   1      21.049  18.759   6.491  0.00  0.00    -0.288 OA
HETATM    4  O   UNK N   1      22.116  20.893   1.765  0.00  0.00    -0.293 OA
HETATM    5  C   UNK N   1      22.037  17.814   4.457  0.00  0.00     0.184 A 
HETATM    6  C   UNK N   1      20.918  18.135   3.423  0.00  0.00     0.039 C 
HETATM    7  C   UNK N   1      20.743  19.627   3.211  0.00  0.00     0.091 C 
HETATM    8  C   UNK N   1      21.524  17.810   5.893  0.00  0.00     0.207 A 
HETATM    9  C   UNK N   1      23.279  18.687   4.279  0.00  0.00     0.092 C 
HETATM   10  C   UNK N   1      19.584  17.466   3.724  0.00  0.00     0.014 C 
HETATM   11  C   UNK N   1      21.720  16.487   6.422  0.00  0.00     0.082 A 
HETATM   12  C   UNK N   1      22.313  15.770   5.434  0.00  0.00     0.112 A 
HETATM   13  C   UNK N   1      22.057  20.150   2.729  0.00  0.00     0.152 C 
HETATM   14  C   UNK N   1      23.285  19.737   3.427  0.00  0.00     0.086 C 
HETATM   15  C   UNK N   1      21.427  15.907   7.666  0.00  0.00     0.087 A 
HETATM   16  C   UNK N   1      22.729  14.459   5.610  0.00  0.00     0.101 A 
HETATM   17  C   UNK N   1      21.837  14.573   7.879  0.00  0.00     0.076 A 
HETATM   18  C   UNK N   1      22.511  13.848   6.863  0.00  0.00     0.095 A 
ENDROOT
BRANCH   9  19
HETATM   19  O   UNK N   1      24.406  18.334   4.955  0.00  0.00    -0.356 OA
HETATM   20  C   UNK N   1      25.655  18.272   4.379  0.00  0.00     0.209 C 
ENDBRANCH   9  19
BRANCH  15  21
HETATM   21  O   UNK N   1      20.766  16.617   8.610  0.00  0.00    -0.355 OA
HETATM   22  C   UNK N   1      19.393  16.593   8.734  0.00  0.00     0.210 C 
ENDBRANCH  15  21
BRANCH  18  23
HETATM   23  O   UNK N   1      22.956  12.586   7.067  0.00  0.00    -0.354 OA
HETATM   24  C   UNK N   1      24.134  12.299   7.721  0.00  0.00     0.210 C 
ENDBRANCH  18  23
TORSDOF 3
ENDMDL
MODEL 3
REMARK VINA RESULT:      -6.3     14.145     16.510
REMARK  3 active torsions:
REMARK  status: ('A' for Active; 'I' for Inactive)
REMARK    1  A    between atoms: O_3  and  C_12 
REMARK    2  A    between atoms: O_6  and  C_18 
REMARK    3  A    between atoms: O_7  and  C_21 
ROOT
HETATM    1 Cl   UNK N   1      34.188  14.997  11.328  0.00  0.00    -0.078 Cl
HETATM    2  O   UNK N   1      35.089  13.538  13.896  0.00  0.00    -0.322 OA
HETATM    3  O   UNK N   1      37.422  11.193  14.881  0.00  0.00    -0.288 OA
HETATM    4  O   UNK N   1      34.841  13.341  18.974  0.00  0.00    -0.293 OA
HETATM    5  C   UNK N   1      35.663  12.897  14.992  0.00  0.00     0.184 A 
HETATM    6  C   UNK N   1      34.566  12.120  15.777  0.00  0.00     0.039 C 
HETATM    7  C   UNK N   1      34.995  11.796  17.195  0.00  0.00     0.091 C 
HETATM    8  C   UNK N   1      36.669  11.969  14.319  0.00  0.00     0.207 A 
HETATM    9  C   UNK N   1      36.335  13.984  15.829  0.00  0.00     0.092 C 
HETATM   10  C   UNK N   1      34.054  10.875  15.063  0.00  0.00     0.014 C 
HETATM   11  C   UNK N   1      36.583  12.189  12.900  0.00  0.00     0.082 A 
HETATM   12  C   UNK N   1      35.653  13.161  12.725  0.00  0.00     0.112 A 
HETATM   13  C   UNK N   1      35.286  13.098  17.865  0.00  0.00     0.152 C 
HETATM   14  C   UNK N   1      36.102  14.096  17.156  0.00  0.00     0.086 C 
HETATM   15  C   UNK N   1      37.250  11.614  11.807  0.00  0.00     0.087 A 
HETATM   16  C   UNK N   1      35.358  13.696  11.480  0.00  0.00     0.101 A 
HETATM   17  C   UNK N   1      36.973  12.135  10.524  0.00  0.00     0.076 A 
HETATM   18  C   UNK N   1      36.043  13.194  10.354  0.00  0.00     0.095 A 
ENDROOT
BRANCH   9  19
HETATM   19  O   UNK N   1      37.125  14.885  15.184  0.00  0.00    -0.356 OA
HETATM   20  C   UNK N   1      37.562  16.062  15.749  0.00  0.00     0.209 C 
ENDBRANCH   9  19
BRANCH  15  21
HETATM   21  O   UNK N   1      38.117  10.593  11.997  0.00  0.00    -0.355 OA
HETATM   22  C   UNK N   1      37.750   9.271  11.869  0.00  0.00     0.210 C 
ENDBRANCH  15  21
BRANCH  18  23
HETATM   23  O   UNK N   1      35.804  13.739   9.138  0.00  0.00    -0.354 OA
HETATM   24  C   UNK N   1      34.893  13.220   8.245  0.00  0.00     0.210 C 
ENDBRANCH  18  23
TORSDOF 3
ENDMDL
MODEL 4
REMARK VINA RESULT:      -6.2      8.834     12.054
REMARK  3 active torsions:
REMARK  status: ('A' for Active; 'I' for Inactive)
REMARK    1  A    between atoms: O_3  and  C_12 
REMARK    2  A    between atoms: O_6  and  C_18 
REMARK    3  A    between atoms: O_7  and  C_21 
ROOT
HETATM    1 Cl   UNK N   1      34.352  18.638   8.297  0.00  0.00    -0.078 Cl
HETATM    2  O   UNK N   1      32.033  17.452   6.638  0.00  0.00    -0.322 OA
HETATM    3  O   UNK N   1      30.534  14.397   6.063  0.00  0.00    -0.288 OA
HETATM    4  O   UNK N   1      27.894  18.410   3.838  0.00  0.00    -0.293 OA
HETATM    5  C   UNK N   1      30.955  16.811   6.031  0.00  0.00     0.184 A 
HETATM    6  C   UNK N   1      30.987  17.072   4.496  0.00  0.00     0.039 C 
HETATM    7  C   UNK N   1      29.641  16.822   3.843  0.00  0.00     0.091 C 
HETATM    8  C   UNK N   1      31.221  15.351   6.382  0.00  0.00     0.207 A 
HETATM    9  C   UNK N   1      29.694  17.356   6.700  0.00  0.00     0.092 C 
HETATM   10  C   UNK N   1      32.097  16.332   3.763  0.00  0.00     0.014 C 
HETATM   11  C   UNK N   1      32.420  15.306   7.176  0.00  0.00     0.082 A 
HETATM   12  C   UNK N   1      32.825  16.592   7.320  0.00  0.00     0.112 A 
HETATM   13  C   UNK N   1      28.665  17.739   4.503  0.00  0.00     0.152 C 
HETATM   14  C   UNK N   1      28.661  17.835   5.971  0.00  0.00     0.086 C 
HETATM   15  C   UNK N   1      33.136  14.247   7.756  0.00  0.00     0.087 A 
HETATM   16  C   UNK N   1      33.916  16.948   8.099  0.00  0.00     0.101 A 
HETATM   17  C   UNK N   1      34.252  14.574   8.557  0.00  0.00     0.076 A 
HETATM   18  C   UNK N   1      34.636  15.926   8.753  0.00  0.00     0.095 A 
ENDROOT
BRANCH   9  19
HETATM   19  O   UNK N   1      29.668  17.409   8.060  0.00  0.00    -0.356 OA
HETATM   20  C   UNK N   1      28.512  17.519   8.799  0.00  0.00     0.209 C 
ENDBRANCH   9  19
BRANCH  15  21
HETATM   21  O   UNK N   1      32.759  12.967   7.535  0.00  0.00    -0.355 OA
HETATM   22  C   UNK N   1      33.364  12.164   6.592  0.00  0.00     0.210 C 
ENDBRANCH  15  21
BRANCH  18  23
HETATM   23  O   UNK N   1      35.671  16.260   9.558  0.00  0.00    -0.354 OA
HETATM   24  C   UNK N   1      35.559  16.366  10.927  0.00  0.00     0.210 C 
ENDBRANCH  18  23
TORSDOF 3
ENDMDL
MODEL 5
REMARK VINA RESULT:      -6.2     15.183     17.661
REMARK  3 active torsions:
REMARK  status: ('A' for Active; 'I' for Inactive)
REMARK    1  A    between atoms: O_3  and  C_12 
REMARK    2  A    between atoms: O_6  and  C_18 
REMARK    3  A    between atoms: O_7  and  C_21 
ROOT
HETATM    1 Cl   UNK N   1      30.894  23.060  -5.159  0.00  0.00    -0.078 Cl
HETATM    2  O   UNK N   1      28.412  24.899  -5.150  0.00  0.00    -0.322 OA
HETATM    3  O   UNK N   1      25.187  24.932  -6.378  0.00  0.00    -0.288 OA
HETATM    4  O   UNK N   1      26.166  28.985  -3.114  0.00  0.00    -0.293 OA
HETATM    5  C   UNK N   1      27.196  25.578  -5.131  0.00  0.00     0.184 A 
HETATM    6  C   UNK N   1      27.400  27.031  -5.654  0.00  0.00     0.039 C 
HETATM    7  C   UNK N   1      26.271  27.955  -5.236  0.00  0.00     0.091 C 
HETATM    8  C   UNK N   1      26.350  24.730  -6.074  0.00  0.00     0.207 A 
HETATM    9  C   UNK N   1      26.695  25.531  -3.688  0.00  0.00     0.092 C 
HETATM   10  C   UNK N   1      27.655  27.121  -7.152  0.00  0.00     0.014 C 
HETATM   11  C   UNK N   1      27.165  23.633  -6.524  0.00  0.00     0.082 A 
HETATM   12  C   UNK N   1      28.364  23.776  -5.904  0.00  0.00     0.112 A 
HETATM   13  C   UNK N   1      26.235  27.943  -3.743  0.00  0.00     0.152 C 
HETATM   14  C   UNK N   1      26.305  26.652  -3.041  0.00  0.00     0.086 C 
HETATM   15  C   UNK N   1      26.921  22.565  -7.400  0.00  0.00     0.087 A 
HETATM   16  C   UNK N   1      29.387  22.850  -6.037  0.00  0.00     0.101 A 
HETATM   17  C   UNK N   1      27.942  21.602  -7.558  0.00  0.00     0.076 A 
HETATM   18  C   UNK N   1      29.172  21.725  -6.861  0.00  0.00     0.095 A 
ENDROOT
BRANCH   9  19
HETATM   19  O   UNK N   1      26.719  24.331  -3.046  0.00  0.00    -0.356 OA
HETATM   20  C   UNK N   1      27.821  23.840  -2.383  0.00  0.00     0.209 C 
ENDBRANCH   9  19
BRANCH  15  21
HETATM   21  O   UNK N   1      25.746  22.483  -8.066  0.00  0.00    -0.355 OA
HETATM   22  C   UNK N   1      24.812  21.502  -7.812  0.00  0.00     0.210 C 
ENDBRANCH  15  21
BRANCH  18  23
HETATM   23  O   UNK N   1      30.141  20.785  -6.961  0.00  0.00    -0.354 OA
HETATM   24  C   UNK N   1      29.913  19.515  -7.440  0.00  0.00     0.210 C 
ENDBRANCH  18  23
TORSDOF 3
ENDMDL
MODEL 6
REMARK VINA RESULT:      -6.2      7.402      9.141
REMARK  3 active torsions:
REMARK  status: ('A' for Active; 'I' for Inactive)
REMARK    1  A    between atoms: O_3  and  C_12 
REMARK    2  A    between atoms: O_6  and  C_18 
REMARK    3  A    between atoms: O_7  and  C_21 
ROOT
HETATM    1 Cl   UNK N   1      27.705  19.528   4.161  0.00  0.00    -0.078 Cl
HETATM    2  O   UNK N   1      29.966  17.927   5.526  0.00  0.00    -0.322 OA
HETATM    3  O   UNK N   1      30.801  14.646   6.193  0.00  0.00    -0.288 OA
HETATM    4  O   UNK N   1      34.680  18.028   7.437  0.00  0.00    -0.293 OA
HETATM    5  C   UNK N   1      30.964  17.085   6.010  0.00  0.00     0.184 A 
HETATM    6  C   UNK N   1      31.294  17.458   7.485  0.00  0.00     0.039 C 
HETATM    7  C   UNK N   1      32.647  16.929   7.922  0.00  0.00     0.091 C 
HETATM    8  C   UNK N   1      30.304  15.716   5.886  0.00  0.00     0.207 A 
HETATM    9  C   UNK N   1      32.161  17.247   5.073  0.00  0.00     0.092 C 
HETATM   10  C   UNK N   1      30.209  17.074   8.481  0.00  0.00     0.014 C 
HETATM   11  C   UNK N   1      28.996  15.912   5.322  0.00  0.00     0.082 A 
HETATM   12  C   UNK N   1      28.878  17.244   5.097  0.00  0.00     0.112 A 
HETATM   13  C   UNK N   1      33.660  17.523   6.999  0.00  0.00     0.152 C 
HETATM   14  C   UNK N   1      33.399  17.506   5.552  0.00  0.00     0.086 C 
HETATM   15  C   UNK N   1      27.955  15.025   5.004  0.00  0.00     0.087 A 
HETATM   16  C   UNK N   1      27.769  17.802   4.480  0.00  0.00     0.101 A 
HETATM   17  C   UNK N   1      26.810  15.560   4.374  0.00  0.00     0.076 A 
HETATM   18  C   UNK N   1      26.718  16.946   4.086  0.00  0.00     0.095 A 
ENDROOT
BRANCH   9  19
HETATM   19  O   UNK N   1      31.931  17.191   3.733  0.00  0.00    -0.356 OA
HETATM   20  C   UNK N   1      32.846  16.716   2.820  0.00  0.00     0.209 C 
ENDBRANCH   9  19
BRANCH  15  21
HETATM   21  O   UNK N   1      28.062  13.711   5.307  0.00  0.00    -0.355 OA
HETATM   22  C   UNK N   1      28.400  12.756   4.372  0.00  0.00     0.210 C 
ENDBRANCH  15  21
BRANCH  18  23
HETATM   23  O   UNK N   1      25.651  17.467   3.437  0.00  0.00    -0.354 OA
HETATM   24  C   UNK N   1      24.431  17.678   4.040  0.00  0.00     0.210 C 
ENDBRANCH  18  23
TORSDOF 3
ENDMDL
MODEL 7
REMARK VINA RESULT:      -6.1      6.816      9.699
REMARK  3 active torsions:
REMARK  status: ('A' for Active; 'I' for Inactive)
REMARK    1  A    between atoms: O_3  and  C_12 
REMARK    2  A    between atoms: O_6  and  C_18 
REMARK    3  A    between atoms: O_7  and  C_21 
ROOT
HETATM    1 Cl   UNK N   1      29.202  18.139   9.273  0.00  0.00    -0.078 Cl
HETATM    2  O   UNK N   1      27.748  17.998   6.552  0.00  0.00    -0.322 OA
HETATM    3  O   UNK N   1      28.379  17.008   3.306  0.00  0.00    -0.288 OA
HETATM    4  O   UNK N   1      23.299  18.274   4.097  0.00  0.00    -0.293 OA
HETATM    5  C   UNK N   1      27.178  17.779   5.299  0.00  0.00     0.184 A 
HETATM    6  C   UNK N   1      26.563  19.105   4.764  0.00  0.00     0.039 C 
HETATM    7  C   UNK N   1      25.545  18.865   3.666  0.00  0.00     0.091 C 
HETATM    8  C   UNK N   1      28.383  17.321   4.484  0.00  0.00     0.207 A 
HETATM    9  C   UNK N   1      26.138  16.674   5.483  0.00  0.00     0.092 C 
HETATM   10  C   UNK N   1      27.596  20.140   4.335  0.00  0.00     0.014 C 
HETATM   11  C   UNK N   1      29.522  17.305   5.362  0.00  0.00     0.082 A 
HETATM   12  C   UNK N   1      29.063  17.680   6.582  0.00  0.00     0.112 A 
HETATM   13  C   UNK N   1      24.477  18.000   4.252  0.00  0.00     0.152 C 
HETATM   14  C   UNK N   1      24.870  16.819   5.036  0.00  0.00     0.086 C 
HETATM   15  C   UNK N   1      30.874  16.987   5.158  0.00  0.00     0.087 A 
HETATM   16  C   UNK N   1      29.871  17.704   7.708  0.00  0.00     0.101 A 
HETATM   17  C   UNK N   1      31.726  17.001   6.285  0.00  0.00     0.076 A 
HETATM   18  C   UNK N   1      31.227  17.336   7.570  0.00  0.00     0.095 A 
ENDROOT
BRANCH   9  19
HETATM   19  O   UNK N   1      26.509  15.561   6.173  0.00  0.00    -0.356 OA
HETATM   20  C   UNK N   1      25.736  14.973   7.148  0.00  0.00     0.209 C 
ENDBRANCH   9  19
BRANCH  15  21
HETATM   21  O   UNK N   1      31.326  16.690   3.918  0.00  0.00    -0.355 OA
HETATM   22  C   UNK N   1      32.535  17.146   3.437  0.00  0.00     0.210 C 
ENDBRANCH  15  21
BRANCH  18  23
HETATM   23  O   UNK N   1      32.017  17.304   8.669  0.00  0.00    -0.354 OA
HETATM   24  C   UNK N   1      33.385  17.450   8.618  0.00  0.00     0.210 C 
ENDBRANCH  18  23
TORSDOF 3
ENDMDL
MODEL 8
REMARK VINA RESULT:      -6.1      7.632      9.801
REMARK  3 active torsions:
REMARK  status: ('A' for Active; 'I' for Inactive)
REMARK    1  A    between atoms: O_3  and  C_12 
REMARK    2  A    between atoms: O_6  and  C_18 
REMARK    3  A    between atoms: O_7  and  C_21 
ROOT
HETATM    1 Cl   UNK N   1      27.434  19.312   3.749  0.00  0.00    -0.078 Cl
HETATM    2  O   UNK N   1      29.644  17.211   4.234  0.00  0.00    -0.322 OA
HETATM    3  O   UNK N   1      31.228  15.655   6.877  0.00  0.00    -0.288 OA
HETATM    4  O   UNK N   1      32.591  13.601   2.192  0.00  0.00    -0.293 OA
HETATM    5  C   UNK N   1      30.540  16.205   4.590  0.00  0.00     0.184 A 
HETATM    6  C   UNK N   1      31.926  16.483   3.936  0.00  0.00     0.039 C 
HETATM    7  C   UNK N   1      32.794  15.240   3.880  0.00  0.00     0.091 C 
HETATM    8  C   UNK N   1      30.572  16.336   6.108  0.00  0.00     0.207 A 
HETATM    9  C   UNK N   1      29.918  14.887   4.126  0.00  0.00     0.092 C 
HETATM   10  C   UNK N   1      32.682  17.650   4.557  0.00  0.00     0.014 C 
HETATM   11  C   UNK N   1      29.671  17.397   6.473  0.00  0.00     0.082 A 
HETATM   12  C   UNK N   1      29.127  17.844   5.313  0.00  0.00     0.112 A 
HETATM   13  C   UNK N   1      32.041  14.225   3.083  0.00  0.00     0.152 C 
HETATM   14  C   UNK N   1      30.617  14.004   3.378  0.00  0.00     0.086 C 
HETATM   15  C   UNK N   1      29.315  17.959   7.708  0.00  0.00     0.087 A 
HETATM   16  C   UNK N   1      28.143  18.821   5.278  0.00  0.00     0.101 A 
HETATM   17  C   UNK N   1      28.316  18.957   7.709  0.00  0.00     0.076 A 
HETATM   18  C   UNK N   1      27.707  19.378   6.499  0.00  0.00     0.095 A 
ENDROOT
BRANCH   9  19
HETATM   19  O   UNK N   1      28.612  14.659   4.432  0.00  0.00    -0.356 OA
HETATM   20  C   UNK N   1      27.648  14.358   3.496  0.00  0.00     0.209 C 
ENDBRANCH   9  19
BRANCH  15  21
HETATM   21  O   UNK N   1      29.926  17.552   8.845  0.00  0.00    -0.355 OA
HETATM   22  C   UNK N   1      29.230  17.231   9.991  0.00  0.00     0.210 C 
ENDBRANCH  15  21
BRANCH  18  23
HETATM   23  O   UNK N   1      26.712  20.296   6.487  0.00  0.00    -0.354 OA
HETATM   24  C   UNK N   1      26.938  21.652   6.401  0.00  0.00     0.210 C 
ENDBRANCH  18  23
TORSDOF 3
ENDMDL
MODEL 9
REMARK VINA RESULT:      -6.0     15.887     18.211
REMARK  3 active torsions:
REMARK  status: ('A' for Active; 'I' for Inactive)
REMARK    1  A    between atoms: O_3  and  C_12 
REMARK    2  A    between atoms: O_6  and  C_18 
REMARK    3  A    between atoms: O_7  and  C_21 
ROOT
HETATM    1 Cl   UNK N   1      28.989  22.873  -1.554  0.00  0.00    -0.078 Cl
HETATM    2  O   UNK N   1      28.060  24.810  -3.772  0.00  0.00    -0.322 OA
HETATM    3  O   UNK N   1      29.187  26.054  -6.788  0.00  0.00    -0.288 OA
HETATM    4  O   UNK N   1      24.193  27.467  -5.741  0.00  0.00    -0.293 OA
HETATM    5  C   UNK N   1      27.715  25.569  -4.889  0.00  0.00     0.184 A 
HETATM    6  C   UNK N   1      27.340  27.014  -4.445  0.00  0.00     0.039 C 
HETATM    7  C   UNK N   1      26.525  27.744  -5.495  0.00  0.00     0.091 C 
HETATM    8  C   UNK N   1      29.001  25.524  -5.707  0.00  0.00     0.207 A 
HETATM    9  C   UNK N   1      26.559  24.838  -5.570  0.00  0.00     0.092 C 
HETATM   10  C   UNK N   1      28.528  27.853  -3.993  0.00  0.00     0.014 C 
HETATM   11  C   UNK N   1      29.950  24.722  -4.982  0.00  0.00     0.082 A 
HETATM   12  C   UNK N   1      29.310  24.300  -3.862  0.00  0.00     0.112 A 
HETATM   13  C   UNK N   1      25.290  26.936  -5.721  0.00  0.00     0.152 C 
HETATM   14  C   UNK N   1      25.416  25.481  -5.899  0.00  0.00     0.086 C 
HETATM   15  C   UNK N   1      31.280  24.355  -5.242  0.00  0.00     0.087 A 
HETATM   16  C   UNK N   1      29.893  23.432  -2.952  0.00  0.00     0.101 A 
HETATM   17  C   UNK N   1      31.904  23.471  -4.335  0.00  0.00     0.076 A 
HETATM   18  C   UNK N   1      31.209  22.985  -3.197  0.00  0.00     0.095 A 
ENDROOT
BRANCH   9  19
HETATM   19  O   UNK N   1      26.687  23.499  -5.775  0.00  0.00    -0.356 OA
HETATM   20  C   UNK N   1      26.117  22.829  -6.835  0.00  0.00     0.209 C 
ENDBRANCH   9  19
BRANCH  15  21
HETATM   21  O   UNK N   1      31.924  24.849  -6.324  0.00  0.00    -0.355 OA
HETATM   22  C   UNK N   1      32.137  24.108  -7.467  0.00  0.00     0.210 C 
ENDBRANCH  15  21
BRANCH  18  23
HETATM   23  O   UNK N   1      31.774  22.098  -2.346  0.00  0.00    -0.354 OA
HETATM   24  C   UNK N   1      32.840  21.296  -2.690  0.00  0.00     0.210 C 
ENDBRANCH  18  23
TORSDOF 3
ENDMDL
