MODEL 1
REMARK VINA RESULT:      -6.1      0.000      0.000
REMARK  8 active torsions:
REMARK  status: ('A' for Active; 'I' for Inactive)
REMARK    1  A    between atoms: O_1  and  C_15 
REMARK    2  A    between atoms: O_1  and  C_22 
REMARK    3  A    between atoms: O_2  and  C_19 
REMARK    4  A    between atoms: N_8  and  C_16 
REMARK    5  A    between atoms: C_9  and  C_12 
REMARK    6  A    between atoms: C_10  and  C_15 
REMARK    7  A    between atoms: C_11  and  C_19 
REMARK    8  A    between atoms: C_21  and  C_22 
ROOT
HETATM    1  N   UNK N   1      30.203  21.970  -3.751  0.00  0.00    -0.362 N 
HETATM    2  C   UNK N   1      28.545  23.179  -5.680  0.00  0.00     0.103 A 
HETATM    3  C   UNK N   1      28.439  23.558  -4.190  0.00  0.00     0.052 A 
HETATM    4  C   UNK N   1      29.552  22.081  -6.073  0.00  0.00     0.052 A 
HETATM    5  C   UNK N   1      29.270  22.939  -3.307  0.00  0.00     0.018 A 
HETATM    6  C   UNK N   1      30.310  21.526  -5.092  0.00  0.00     0.018 A 
HETATM    7  C   UNK N   1      29.193  23.156  -1.831  0.00  0.00     0.069 C 
HETATM    8  C   UNK N   1      31.323  20.457  -5.369  0.00  0.00     0.069 C 
HETATM    9  H   UNK N   1      30.815  21.581  -3.086  0.00  0.00     0.165 HD
ENDROOT
BRANCH   2  10
HETATM   10  C   UNK N   1      27.902  24.121  -6.698  0.00  0.00    -0.012 A 
HETATM   11  C   UNK N   1      26.611  23.935  -7.294  0.00  0.00     0.110 A 
HETATM   12  C   UNK N   1      26.150  24.889  -8.218  0.00  0.00     0.037 A 
HETATM   13  C   UNK N   1      26.902  26.019  -8.531  0.00  0.00     0.002 A 
HETATM   14  C   UNK N   1      28.149  26.205  -7.947  0.00  0.00     0.001 A 
HETATM   15  C   UNK N   1      28.647  25.259  -7.053  0.00  0.00     0.011 A 
BRANCH  11  16
HETATM   16  N   UNK N   1      25.767  22.815  -7.016  0.00  0.00    -0.115 N 
HETATM   17  O   UNK N   1      25.776  21.774  -7.823  0.00  0.00    -0.532 OA
HETATM   18  O   UNK N   1      25.054  22.801  -6.059  0.00  0.00    -0.532 OA
ENDBRANCH  11  16
ENDBRANCH   2  10
BRANCH   3  19
HETATM   19  C   UNK N   1      27.376  24.543  -3.748  0.00  0.00     0.292 C 
HETATM   20  O   UNK N   1      26.298  24.104  -3.381  0.00  0.00    -0.259 OA
BRANCH  19  21
HETATM   21  O   UNK N   1      27.543  25.893  -3.727  0.00  0.00    -0.317 OA
BRANCH  21  22
HETATM   22  C   UNK N   1      26.512  26.807  -3.734  0.00  0.00     0.183 C 
BRANCH  22  23
HETATM   23  C   UNK N   1      26.308  27.340  -5.144  0.00  0.00     0.002 C 
HETATM   24  C   UNK N   1      26.719  28.799  -5.224  0.00  0.00     0.011 C 
HETATM   25  C   UNK N   1      24.851  27.211  -5.537  0.00  0.00     0.011 C 
ENDBRANCH  22  23
ENDBRANCH  21  22
ENDBRANCH  19  21
ENDBRANCH   3  19
BRANCH   4  26
HETATM   26  C   UNK N   1      29.661  21.582  -7.485  0.00  0.00     0.291 C 
HETATM   27  O   UNK N   1      30.465  22.081  -8.258  0.00  0.00    -0.260 OA
BRANCH  26  28
HETATM   28  O   UNK N   1      28.797  20.635  -7.931  0.00  0.00    -0.323 OA
HETATM   29  C   UNK N   1      29.070  19.288  -7.864  0.00  0.00     0.213 C 
ENDBRANCH  26  28
ENDBRANCH   4  26
TORSDOF 8
ENDMDL
MODEL 2
REMARK VINA RESULT:      -6.0      2.577      5.574
REMARK  8 active torsions:
REMARK  status: ('A' for Active; 'I' for Inactive)
REMARK    1  A    between atoms: O_1  and  C_15 
REMARK    2  A    between atoms: O_1  and  C_22 
REMARK    3  A    between atoms: O_2  and  C_19 
REMARK    4  A    between atoms: N_8  and  C_16 
REMARK    5  A    between atoms: C_9  and  C_12 
REMARK    6  A    between atoms: C_10  and  C_15 
REMARK    7  A    between atoms: C_11  and  C_19 
REMARK    8  A    between atoms: C_21  and  C_22 
ROOT
HETATM    1  N   UNK N   1      27.535  27.982  -4.675  0.00  0.00    -0.362 N 
HETATM    2  C   UNK N   1      28.534  25.354  -4.505  0.00  0.00     0.103 A 
HETATM    3  C   UNK N   1      27.036  25.622  -4.750  0.00  0.00     0.052 A 
HETATM    4  C   UNK N   1      29.458  26.571  -4.305  0.00  0.00     0.052 A 
HETATM    5  C   UNK N   1      26.616  26.915  -4.824  0.00  0.00     0.018 A 
HETATM    6  C   UNK N   1      28.911  27.812  -4.383  0.00  0.00     0.018 A 
HETATM    7  C   UNK N   1      25.178  27.294  -4.964  0.00  0.00     0.069 C 
HETATM    8  C   UNK N   1      29.724  29.059  -4.212  0.00  0.00     0.069 C 
HETATM    9  H   UNK N   1      27.197  28.900  -4.781  0.00  0.00     0.165 HD
ENDROOT
BRANCH   2  10
HETATM   10  C   UNK N   1      29.060  23.949  -4.796  0.00  0.00    -0.012 A 
HETATM   11  C   UNK N   1      29.428  22.982  -3.803  0.00  0.00     0.110 A 
HETATM   12  C   UNK N   1      29.897  21.726  -4.224  0.00  0.00     0.037 A 
HETATM   13  C   UNK N   1      29.971  21.394  -5.574  0.00  0.00     0.002 A 
HETATM   14  C   UNK N   1      29.605  22.326  -6.538  0.00  0.00     0.001 A 
HETATM   15  C   UNK N   1      29.169  23.592  -6.152  0.00  0.00     0.011 A 
BRANCH  11  16
HETATM   16  N   UNK N   1      29.366  23.234  -2.397  0.00  0.00    -0.115 N 
HETATM   17  O   UNK N   1      28.210  23.161  -1.770  0.00  0.00    -0.532 OA
HETATM   18  O   UNK N   1      30.348  23.505  -1.774  0.00  0.00    -0.532 OA
ENDBRANCH  11  16
ENDBRANCH   2  10
BRANCH   3  19
HETATM   19  C   UNK N   1      26.075  24.452  -4.827  0.00  0.00     0.292 C 
HETATM   20  O   UNK N   1      25.761  23.893  -3.789  0.00  0.00    -0.259 OA
BRANCH  19  21
HETATM   21  O   UNK N   1      25.532  23.982  -5.982  0.00  0.00    -0.317 OA
BRANCH  21  22
HETATM   22  C   UNK N   1      25.601  22.671  -6.400  0.00  0.00     0.183 C 
BRANCH  22  23
HETATM   23  C   UNK N   1      25.641  22.618  -7.920  0.00  0.00     0.002 C 
HETATM   24  C   UNK N   1      26.489  21.450  -8.387  0.00  0.00     0.011 C 
HETATM   25  C   UNK N   1      26.225  23.906  -8.464  0.00  0.00     0.011 C 
ENDBRANCH  22  23
ENDBRANCH  21  22
ENDBRANCH  19  21
ENDBRANCH   3  19
BRANCH   4  26
HETATM   26  C   UNK N   1      30.913  26.407  -3.971  0.00  0.00     0.291 C 
HETATM   27  O   UNK N   1      31.307  26.565  -2.825  0.00  0.00    -0.260 OA
BRANCH  26  28
HETATM   28  O   UNK N   1      31.808  26.176  -4.966  0.00  0.00    -0.323 OA
HETATM   29  C   UNK N   1      32.627  25.071  -4.986  0.00  0.00     0.213 C 
ENDBRANCH  26  28
ENDBRANCH   4  26
TORSDOF 8
ENDMDL
MODEL 3
REMARK VINA RESULT:      -5.9      2.880      6.150
REMARK  8 active torsions:
REMARK  status: ('A' for Active; 'I' for Inactive)
REMARK    1  A    between atoms: O_1  and  C_15 
REMARK    2  A    between atoms: O_1  and  C_22 
REMARK    3  A    between atoms: O_2  and  C_19 
REMARK    4  A    between atoms: N_8  and  C_16 
REMARK    5  A    between atoms: C_9  and  C_12 
REMARK    6  A    between atoms: C_10  and  C_15 
REMARK    7  A    between atoms: C_11  and  C_19 
REMARK    8  A    between atoms: C_21  and  C_22 
ROOT
HETATM    1  N   UNK N   1      28.499  27.675  -3.711  0.00  0.00    -0.362 N 
HETATM    2  C   UNK N   1      28.979  25.081  -4.697  0.00  0.00     0.103 A 
HETATM    3  C   UNK N   1      30.087  26.153  -4.703  0.00  0.00     0.052 A 
HETATM    4  C   UNK N   1      27.586  25.491  -4.180  0.00  0.00     0.052 A 
HETATM    5  C   UNK N   1      29.792  27.387  -4.211  0.00  0.00     0.018 A 
HETATM    6  C   UNK N   1      27.416  26.762  -3.734  0.00  0.00     0.018 A 
HETATM    7  C   UNK N   1      30.755  28.528  -4.253  0.00  0.00     0.069 C 
HETATM    8  C   UNK N   1      26.104  27.257  -3.205  0.00  0.00     0.069 C 
HETATM    9  H   UNK N   1      28.342  28.566  -3.323  0.00  0.00     0.165 HD
ENDROOT
BRANCH   2  10
HETATM   10  C   UNK N   1      29.401  23.624  -4.886  0.00  0.00    -0.012 A 
HETATM   11  C   UNK N   1      29.795  22.735  -3.832  0.00  0.00     0.110 A 
HETATM   12  C   UNK N   1      30.158  21.417  -4.161  0.00  0.00     0.037 A 
HETATM   13  C   UNK N   1      30.104  20.955  -5.474  0.00  0.00     0.002 A 
HETATM   14  C   UNK N   1      29.712  21.813  -6.495  0.00  0.00     0.001 A 
HETATM   15  C   UNK N   1      29.380  23.135  -6.204  0.00  0.00     0.011 A 
BRANCH  11  16
HETATM   16  N   UNK N   1      29.861  23.121  -2.458  0.00  0.00    -0.115 N 
HETATM   17  O   UNK N   1      28.814  22.949  -1.678  0.00  0.00    -0.532 OA
HETATM   18  O   UNK N   1      30.855  23.596  -1.997  0.00  0.00    -0.532 OA
ENDBRANCH  11  16
ENDBRANCH   2  10
BRANCH   3  19
HETATM   19  C   UNK N   1      31.433  25.825  -5.317  0.00  0.00     0.292 C 
HETATM   20  O   UNK N   1      31.601  26.065  -6.502  0.00  0.00    -0.259 OA
BRANCH  19  21
HETATM   21  O   UNK N   1      32.476  25.283  -4.633  0.00  0.00    -0.317 OA
BRANCH  21  22
HETATM   22  C   UNK N   1      33.519  24.597  -5.215  0.00  0.00     0.183 C 
BRANCH  22  23
HETATM   23  C   UNK N   1      33.083  23.177  -5.539  0.00  0.00     0.002 C 
HETATM   24  C   UNK N   1      33.930  22.175  -4.777  0.00  0.00     0.011 C 
HETATM   25  C   UNK N   1      33.225  22.921  -7.025  0.00  0.00     0.011 C 
ENDBRANCH  22  23
ENDBRANCH  21  22
ENDBRANCH  19  21
ENDBRANCH   3  19
BRANCH   4  26
HETATM   26  C   UNK N   1      26.422  24.542  -4.220  0.00  0.00     0.291 C 
HETATM   27  O   UNK N   1      26.163  23.839  -3.255  0.00  0.00    -0.260 OA
BRANCH  26  28
HETATM   28  O   UNK N   1      25.712  24.399  -5.368  0.00  0.00    -0.323 OA
HETATM   29  C   UNK N   1      25.806  23.282  -6.166  0.00  0.00     0.213 C 
ENDBRANCH  26  28
ENDBRANCH   4  26
TORSDOF 8
ENDMDL
MODEL 4
REMARK VINA RESULT:      -5.8     12.113     14.419
REMARK  8 active torsions:
REMARK  status: ('A' for Active; 'I' for Inactive)
REMARK    1  A    between atoms: O_1  and  C_15 
REMARK    2  A    between atoms: O_1  and  C_22 
REMARK    3  A    between atoms: O_2  and  C_19 
REMARK    4  A    between atoms: N_8  and  C_16 
REMARK    5  A    between atoms: C_9  and  C_12 
REMARK    6  A    between atoms: C_10  and  C_15 
REMARK    7  A    between atoms: C_11  and  C_19 
REMARK    8  A    between atoms: C_21  and  C_22 
ROOT
HETATM    1  N   UNK N   1      19.956  18.213   1.849  0.00  0.00    -0.362 N 
HETATM    2  C   UNK N   1      21.194  16.290   3.493  0.00  0.00     0.103 A 
HETATM    3  C   UNK N   1      21.150  17.776   3.900  0.00  0.00     0.052 A 
HETATM    4  C   UNK N   1      20.583  15.900   2.133  0.00  0.00     0.052 A 
HETATM    5  C   UNK N   1      20.534  18.656   3.063  0.00  0.00     0.018 A 
HETATM    6  C   UNK N   1      20.015  16.878   1.380  0.00  0.00     0.018 A 
HETATM    7  C   UNK N   1      20.514  20.129   3.308  0.00  0.00     0.069 C 
HETATM    8  C   UNK N   1      19.388  16.601   0.048  0.00  0.00     0.069 C 
HETATM    9  H   UNK N   1      19.482  18.875   1.296  0.00  0.00     0.165 HD
ENDROOT
BRANCH   2  10
HETATM   10  C   UNK N   1      21.533  15.267   4.577  0.00  0.00    -0.012 A 
HETATM   11  C   UNK N   1      20.596  14.710   5.509  0.00  0.00     0.110 A 
HETATM   12  C   UNK N   1      21.057  13.776   6.453  0.00  0.00     0.037 A 
HETATM   13  C   UNK N   1      22.386  13.358   6.472  0.00  0.00     0.002 A 
HETATM   14  C   UNK N   1      23.293  13.890   5.563  0.00  0.00     0.001 A 
HETATM   15  C   UNK N   1      22.872  14.844   4.637  0.00  0.00     0.011 A 
BRANCH  11  16
HETATM   16  N   UNK N   1      19.213  15.069   5.547  0.00  0.00    -0.115 N 
HETATM   17  O   UNK N   1      18.341  14.393   4.829  0.00  0.00    -0.532 OA
HETATM   18  O   UNK N   1      18.829  15.974   6.225  0.00  0.00    -0.532 OA
ENDBRANCH  11  16
ENDBRANCH   2  10
BRANCH   3  19
HETATM   19  C   UNK N   1      21.848  18.219   5.170  0.00  0.00     0.292 C 
HETATM   20  O   UNK N   1      21.187  18.307   6.193  0.00  0.00    -0.259 OA
BRANCH  19  21
HETATM   21  O   UNK N   1      23.172  18.521   5.251  0.00  0.00    -0.317 OA
BRANCH  21  22
HETATM   22  C   UNK N   1      24.064  18.405   4.207  0.00  0.00     0.183 C 
BRANCH  22  23
HETATM   23  C   UNK N   1      24.828  19.709   4.037  0.00  0.00     0.002 C 
HETATM   24  C   UNK N   1      24.207  20.547   2.935  0.00  0.00     0.011 C 
HETATM   25  C   UNK N   1      26.272  19.417   3.688  0.00  0.00     0.011 C 
ENDBRANCH  22  23
ENDBRANCH  21  22
ENDBRANCH  19  21
ENDBRANCH   3  19
BRANCH   4  26
HETATM   26  C   UNK N   1      20.659  14.494   1.611  0.00  0.00     0.291 C 
HETATM   27  O   UNK N   1      19.914  13.630   2.047  0.00  0.00    -0.260 OA
BRANCH  26  28
HETATM   28  O   UNK N   1      21.625  14.161   0.717  0.00  0.00    -0.323 OA
HETATM   29  C   UNK N   1      22.967  14.296   0.988  0.00  0.00     0.213 C 
ENDBRANCH  26  28
ENDBRANCH   4  26
TORSDOF 8
ENDMDL
MODEL 5
REMARK VINA RESULT:      -5.8     11.693     14.491
REMARK  8 active torsions:
REMARK  status: ('A' for Active; 'I' for Inactive)
REMARK    1  A    between atoms: O_1  and  C_15 
REMARK    2  A    between atoms: O_1  and  C_22 
REMARK    3  A    between atoms: O_2  and  C_19 
REMARK    4  A    between atoms: N_8  and  C_16 
REMARK    5  A    between atoms: C_9  and  C_12 
REMARK    6  A    between atoms: C_10  and  C_15 
REMARK    7  A    between atoms: C_11  and  C_19 
REMARK    8  A    between atoms: C_21  and  C_22 
ROOT
HETATM    1  N   UNK N   1      32.100  17.813   9.201  0.00  0.00    -0.362 N 
HETATM    2  C   UNK N   1      31.660  16.694   6.655  0.00  0.00     0.103 A 
HETATM    3  C   UNK N   1      30.525  17.403   7.420  0.00  0.00     0.052 A 
HETATM    4  C   UNK N   1      33.029  16.573   7.352  0.00  0.00     0.052 A 
HETATM    5  C   UNK N   1      30.802  17.925   8.646  0.00  0.00     0.018 A 
HETATM    6  C   UNK N   1      33.171  17.121   8.587  0.00  0.00     0.018 A 
HETATM    7  C   UNK N   1      29.760  18.549   9.516  0.00  0.00     0.069 C 
HETATM    8  C   UNK N   1      34.463  17.064   9.345  0.00  0.00     0.069 C 
HETATM    9  H   UNK N   1      32.268  18.244  10.070  0.00  0.00     0.165 HD
ENDROOT
BRANCH   2  10
HETATM   10  C   UNK N   1      31.463  16.451   5.159  0.00  0.00    -0.012 A 
HETATM   11  C   UNK N   1      30.929  15.253   4.580  0.00  0.00     0.110 A 
HETATM   12  C   UNK N   1      30.807  15.175   3.181  0.00  0.00     0.037 A 
HETATM   13  C   UNK N   1      31.155  16.245   2.362  0.00  0.00     0.002 A 
HETATM   14  C   UNK N   1      31.662  17.412   2.922  0.00  0.00     0.001 A 
HETATM   15  C   UNK N   1      31.828  17.506   4.303  0.00  0.00     0.011 A 
BRANCH  11  16
HETATM   16  N   UNK N   1      30.532  14.115   5.348  0.00  0.00    -0.115 N 
HETATM   17  O   UNK N   1      31.426  13.467   6.068  0.00  0.00    -0.532 OA
HETATM   18  O   UNK N   1      29.399  13.739   5.355  0.00  0.00    -0.532 OA
ENDBRANCH  11  16
ENDBRANCH   2  10
BRANCH   3  19
HETATM   19  C   UNK N   1      29.133  17.433   6.822  0.00  0.00     0.292 C 
HETATM   20  O   UNK N   1      28.455  16.419   6.885  0.00  0.00    -0.259 OA
BRANCH  19  21
HETATM   21  O   UNK N   1      28.580  18.520   6.220  0.00  0.00    -0.317 OA
BRANCH  21  22
HETATM   22  C   UNK N   1      28.337  18.624   4.868  0.00  0.00     0.183 C 
BRANCH  22  23
HETATM   23  C   UNK N   1      27.923  20.048   4.529  0.00  0.00     0.002 C 
HETATM   24  C   UNK N   1      27.583  20.817   5.792  0.00  0.00     0.011 C 
HETATM   25  C   UNK N   1      26.714  20.028   3.617  0.00  0.00     0.011 C 
ENDBRANCH  22  23
ENDBRANCH  21  22
ENDBRANCH  19  21
ENDBRANCH   3  19
BRANCH   4  26
HETATM   26  C   UNK N   1      34.168  15.821   6.724  0.00  0.00     0.291 C 
HETATM   27  O   UNK N   1      34.887  16.363   5.898  0.00  0.00    -0.260 OA
BRANCH  26  28
HETATM   28  O   UNK N   1      34.340  14.505   7.006  0.00  0.00    -0.323 OA
HETATM   29  C   UNK N   1      35.578  13.945   7.220  0.00  0.00     0.213 C 
ENDBRANCH  26  28
ENDBRANCH   4  26
TORSDOF 8
ENDMDL
MODEL 6
REMARK VINA RESULT:      -5.7     12.082     14.814
REMARK  8 active torsions:
REMARK  status: ('A' for Active; 'I' for Inactive)
REMARK    1  A    between atoms: O_1  and  C_15 
REMARK    2  A    between atoms: O_1  and  C_22 
REMARK    3  A    between atoms: O_2  and  C_19 
REMARK    4  A    between atoms: N_8  and  C_16 
REMARK    5  A    between atoms: C_9  and  C_12 
REMARK    6  A    between atoms: C_10  and  C_15 
REMARK    7  A    between atoms: C_11  and  C_19 
REMARK    8  A    between atoms: C_21  and  C_22 
ROOT
HETATM    1  N   UNK N   1      19.952  17.943   0.715  0.00  0.00    -0.362 N 
HETATM    2  C   UNK N   1      20.963  16.664   3.011  0.00  0.00     0.103 A 
HETATM    3  C   UNK N   1      20.206  15.872   1.927  0.00  0.00     0.052 A 
HETATM    4  C   UNK N   1      21.103  18.187   2.821  0.00  0.00     0.052 A 
HETATM    5  C   UNK N   1      19.744  16.548   0.839  0.00  0.00     0.018 A 
HETATM    6  C   UNK N   1      20.579  18.745   1.699  0.00  0.00     0.018 A 
HETATM    7  C   UNK N   1      18.917  15.903  -0.225  0.00  0.00     0.069 C 
HETATM    8  C   UNK N   1      20.668  20.214   1.417  0.00  0.00     0.069 C 
HETATM    9  H   UNK N   1      19.640  18.383  -0.108  0.00  0.00     0.165 HD
ENDROOT
BRANCH   2  10
HETATM   10  C   UNK N   1      21.795  15.871   4.018  0.00  0.00    -0.012 A 
HETATM   11  C   UNK N   1      21.373  15.517   5.342  0.00  0.00     0.110 A 
HETATM   12  C   UNK N   1      22.252  14.782   6.157  0.00  0.00     0.037 A 
HETATM   13  C   UNK N   1      23.495  14.362   5.690  0.00  0.00     0.002 A 
HETATM   14  C   UNK N   1      23.901  14.696   4.404  0.00  0.00     0.001 A 
HETATM   15  C   UNK N   1      23.066  15.454   3.584  0.00  0.00     0.011 A 
BRANCH  11  16
HETATM   16  N   UNK N   1      20.109  15.891   5.893  0.00  0.00    -0.115 N 
HETATM   17  O   UNK N   1      19.058  15.120   5.702  0.00  0.00    -0.532 OA
HETATM   18  O   UNK N   1      19.985  16.893   6.531  0.00  0.00    -0.532 OA
ENDBRANCH  11  16
ENDBRANCH   2  10
BRANCH   3  19
HETATM   19  C   UNK N   1      19.939  14.395   2.137  0.00  0.00     0.292 C 
HETATM   20  O   UNK N   1      18.903  14.069   2.694  0.00  0.00    -0.259 OA
BRANCH  19  21
HETATM   21  O   UNK N   1      20.779  13.401   1.740  0.00  0.00    -0.317 OA
BRANCH  21  22
HETATM   22  C   UNK N   1      21.364  13.325   0.495  0.00  0.00     0.183 C 
BRANCH  22  23
HETATM   23  C   UNK N   1      22.768  12.754   0.622  0.00  0.00     0.002 C 
HETATM   24  C   UNK N   1      22.954  12.100   1.978  0.00  0.00     0.011 C 
HETATM   25  C   UNK N   1      23.789  13.860   0.457  0.00  0.00     0.011 C 
ENDBRANCH  22  23
ENDBRANCH  21  22
ENDBRANCH  19  21
ENDBRANCH   3  19
BRANCH   4  26
HETATM   26  C   UNK N   1      21.744  19.055   3.867  0.00  0.00     0.291 C 
HETATM   27  O   UNK N   1      21.055  19.699   4.644  0.00  0.00    -0.260 OA
BRANCH  26  28
HETATM   28  O   UNK N   1      23.094  19.196   3.887  0.00  0.00    -0.323 OA
HETATM   29  C   UNK N   1      23.746  20.204   3.217  0.00  0.00     0.213 C 
ENDBRANCH  26  28
ENDBRANCH   4  26
TORSDOF 8
ENDMDL
MODEL 7
REMARK VINA RESULT:      -5.7     12.213     14.785
REMARK  8 active torsions:
REMARK  status: ('A' for Active; 'I' for Inactive)
REMARK    1  A    between atoms: O_1  and  C_15 
REMARK    2  A    between atoms: O_1  and  C_22 
REMARK    3  A    between atoms: O_2  and  C_19 
REMARK    4  A    between atoms: N_8  and  C_16 
REMARK    5  A    between atoms: C_9  and  C_12 
REMARK    6  A    between atoms: C_10  and  C_15 
REMARK    7  A    between atoms: C_11  and  C_19 
REMARK    8  A    between atoms: C_21  and  C_22 
ROOT
HETATM    1  N   UNK N   1      27.783  17.901   7.347  0.00  0.00    -0.362 N 
HETATM    2  C   UNK N   1      29.988  16.716   6.057  0.00  0.00     0.103 A 
HETATM    3  C   UNK N   1      28.612  16.798   5.367  0.00  0.00     0.052 A 
HETATM    4  C   UNK N   1      30.104  17.258   7.494  0.00  0.00     0.052 A 
HETATM    5  C   UNK N   1      27.586  17.385   6.043  0.00  0.00     0.018 A 
HETATM    6  C   UNK N   1      28.999  17.802   8.066  0.00  0.00     0.018 A 
HETATM    7  C   UNK N   1      26.190  17.435   5.514  0.00  0.00     0.069 C 
HETATM    8  C   UNK N   1      29.008  18.364   9.456  0.00  0.00     0.069 C 
HETATM    9  H   UNK N   1      27.026  18.357   7.781  0.00  0.00     0.165 HD
ENDROOT
BRANCH   2  10
HETATM   10  C   UNK N   1      31.203  16.414   5.180  0.00  0.00    -0.012 A 
HETATM   11  C   UNK N   1      31.814  15.125   5.031  0.00  0.00     0.110 A 
HETATM   12  C   UNK N   1      32.931  15.001   4.186  0.00  0.00     0.037 A 
HETATM   13  C   UNK N   1      33.424  16.089   3.470  0.00  0.00     0.002 A 
HETATM   14  C   UNK N   1      32.827  17.337   3.606  0.00  0.00     0.001 A 
HETATM   15  C   UNK N   1      31.739  17.498   4.463  0.00  0.00     0.011 A 
BRANCH  11  16
HETATM   16  N   UNK N   1      31.361  13.954   5.714  0.00  0.00    -0.115 N 
HETATM   17  O   UNK N   1      31.913  13.612   6.860  0.00  0.00    -0.532 OA
HETATM   18  O   UNK N   1      30.485  13.278   5.267  0.00  0.00    -0.532 OA
ENDBRANCH  11  16
ENDBRANCH   2  10
BRANCH   3  19
HETATM   19  C   UNK N   1      28.426  16.164   4.003  0.00  0.00     0.292 C 
HETATM   20  O   UNK N   1      28.640  16.849   3.014  0.00  0.00    -0.259 OA
BRANCH  19  21
HETATM   21  O   UNK N   1      28.041  14.875   3.802  0.00  0.00    -0.317 OA
BRANCH  21  22
HETATM   22  C   UNK N   1      27.871  14.296   2.563  0.00  0.00     0.183 C 
BRANCH  22  23
HETATM   23  C   UNK N   1      26.392  14.047   2.311  0.00  0.00     0.002 C 
HETATM   24  C   UNK N   1      25.754  15.259   1.659  0.00  0.00     0.011 C 
HETATM   25  C   UNK N   1      25.689  13.758   3.622  0.00  0.00     0.011 C 
ENDBRANCH  22  23
ENDBRANCH  21  22
ENDBRANCH  19  21
ENDBRANCH   3  19
BRANCH   4  26
HETATM   26  C   UNK N   1      31.379  17.139   8.279  0.00  0.00     0.291 C 
HETATM   27  O   UNK N   1      31.599  16.147   8.957  0.00  0.00    -0.260 OA
BRANCH  26  28
HETATM   28  O   UNK N   1      32.248  18.182   8.310  0.00  0.00    -0.323 OA
HETATM   29  C   UNK N   1      33.500  18.124   7.742  0.00  0.00     0.213 C 
ENDBRANCH  26  28
ENDBRANCH   4  26
TORSDOF 8
ENDMDL
MODEL 8
REMARK VINA RESULT:      -5.7     12.249     15.035
REMARK  8 active torsions:
REMARK  status: ('A' for Active; 'I' for Inactive)
REMARK    1  A    between atoms: O_1  and  C_15 
REMARK    2  A    between atoms: O_1  and  C_22 
REMARK    3  A    between atoms: O_2  and  C_19 
REMARK    4  A    between atoms: N_8  and  C_16 
REMARK    5  A    between atoms: C_9  and  C_12 
REMARK    6  A    between atoms: C_10  and  C_15 
REMARK    7  A    between atoms: C_11  and  C_19 
REMARK    8  A    between atoms: C_21  and  C_22 
ROOT
HETATM    1  N   UNK N   1      25.057  18.660   4.062  0.00  0.00    -0.362 N 
HETATM    2  C   UNK N   1      22.584  17.464   4.681  0.00  0.00     0.103 A 
HETATM    3  C   UNK N   1      23.914  16.768   5.029  0.00  0.00     0.052 A 
HETATM    4  C   UNK N   1      22.652  18.812   3.937  0.00  0.00     0.052 A 
HETATM    5  C   UNK N   1      25.076  17.399   4.705  0.00  0.00     0.018 A 
HETATM    6  C   UNK N   1      23.877  19.327   3.653  0.00  0.00     0.018 A 
HETATM    7  C   UNK N   1      26.420  16.778   4.908  0.00  0.00     0.069 C 
HETATM    8  C   UNK N   1      24.051  20.634   2.941  0.00  0.00     0.069 C 
HETATM    9  H   UNK N   1      25.920  19.101   3.886  0.00  0.00     0.165 HD
ENDROOT
BRANCH   2  10
HETATM   10  C   UNK N   1      21.316  16.956   5.367  0.00  0.00    -0.012 A 
HETATM   11  C   UNK N   1      20.355  16.072   4.775  0.00  0.00     0.110 A 
HETATM   12  C   UNK N   1      19.233  15.689   5.532  0.00  0.00     0.037 A 
HETATM   13  C   UNK N   1      19.065  16.118   6.846  0.00  0.00     0.002 A 
HETATM   14  C   UNK N   1      20.001  16.966   7.425  0.00  0.00     0.001 A 
HETATM   15  C   UNK N   1      21.105  17.390   6.688  0.00  0.00     0.011 A 
BRANCH  11  16
HETATM   16  N   UNK N   1      20.460  15.573   3.440  0.00  0.00    -0.115 N 
HETATM   17  O   UNK N   1      21.038  14.410   3.220  0.00  0.00    -0.532 OA
HETATM   18  O   UNK N   1      20.027  16.190   2.514  0.00  0.00    -0.532 OA
ENDBRANCH  11  16
ENDBRANCH   2  10
BRANCH   3  19
HETATM   19  C   UNK N   1      23.888  15.385   5.648  0.00  0.00     0.292 C 
HETATM   20  O   UNK N   1      23.850  14.419   4.903  0.00  0.00    -0.259 OA
BRANCH  19  21
HETATM   21  O   UNK N   1      23.909  15.144   6.987  0.00  0.00    -0.317 OA
BRANCH  21  22
HETATM   22  C   UNK N   1      23.488  13.972   7.576  0.00  0.00     0.183 C 
BRANCH  22  23
HETATM   23  C   UNK N   1      21.997  14.050   7.865  0.00  0.00     0.002 C 
HETATM   24  C   UNK N   1      21.740  13.938   9.357  0.00  0.00     0.011 C 
HETATM   25  C   UNK N   1      21.274  12.928   7.149  0.00  0.00     0.011 C 
ENDBRANCH  22  23
ENDBRANCH  21  22
ENDBRANCH  19  21
ENDBRANCH   3  19
BRANCH   4  26
HETATM   26  C   UNK N   1      21.410  19.520   3.476  0.00  0.00     0.291 C 
HETATM   27  O   UNK N   1      20.753  20.191   4.258  0.00  0.00    -0.260 OA
BRANCH  26  28
HETATM   28  O   UNK N   1      20.965  19.337   2.207  0.00  0.00    -0.323 OA
HETATM   29  C   UNK N   1      20.876  20.363   1.295  0.00  0.00     0.213 C 
ENDBRANCH  26  28
ENDBRANCH   4  26
TORSDOF 8
ENDMDL
MODEL 9
REMARK VINA RESULT:      -5.6     13.895     16.379
REMARK  8 active torsions:
REMARK  status: ('A' for Active; 'I' for Inactive)
REMARK    1  A    between atoms: O_1  and  C_15 
REMARK    2  A    between atoms: O_1  and  C_22 
REMARK    3  A    between atoms: O_2  and  C_19 
REMARK    4  A    between atoms: N_8  and  C_16 
REMARK    5  A    between atoms: C_9  and  C_12 
REMARK    6  A    between atoms: C_10  and  C_15 
REMARK    7  A    between atoms: C_11  and  C_19 
REMARK    8  A    between atoms: C_21  and  C_22 
ROOT
HETATM    1  N   UNK N   1      21.661  13.205   7.866  0.00  0.00    -0.362 N 
HETATM    2  C   UNK N   1      21.360  15.513   6.280  0.00  0.00     0.103 A 
HETATM    3  C   UNK N   1      22.240  14.336   5.815  0.00  0.00     0.052 A 
HETATM    4  C   UNK N   1      20.692  15.406   7.664  0.00  0.00     0.052 A 
HETATM    5  C   UNK N   1      22.343  13.248   6.626  0.00  0.00     0.018 A 
HETATM    6  C   UNK N   1      20.890  14.273   8.387  0.00  0.00     0.018 A 
HETATM    7  C   UNK N   1      23.240  12.092   6.323  0.00  0.00     0.069 C 
HETATM    8  C   UNK N   1      20.279  14.068   9.740  0.00  0.00     0.069 C 
HETATM    9  H   UNK N   1      21.727  12.382   8.401  0.00  0.00     0.165 HD
ENDROOT
BRANCH   2  10
HETATM   10  C   UNK N   1      20.943  16.544   5.232  0.00  0.00    -0.012 A 
HETATM   11  C   UNK N   1      19.824  16.414   4.344  0.00  0.00     0.110 A 
HETATM   12  C   UNK N   1      19.564  17.450   3.430  0.00  0.00     0.037 A 
HETATM   13  C   UNK N   1      20.342  18.604   3.399  0.00  0.00     0.002 A 
HETATM   14  C   UNK N   1      21.421  18.736   4.266  0.00  0.00     0.001 A 
HETATM   15  C   UNK N   1      21.725  17.711   5.160  0.00  0.00     0.011 A 
BRANCH  11  16
HETATM   16  N   UNK N   1      18.965  15.272   4.321  0.00  0.00    -0.115 N 
HETATM   17  O   UNK N   1      19.083  14.385   3.355  0.00  0.00    -0.532 OA
HETATM   18  O   UNK N   1      18.140  15.103   5.167  0.00  0.00    -0.532 OA
ENDBRANCH  11  16
ENDBRANCH   2  10
BRANCH   3  19
HETATM   19  C   UNK N   1      23.012  14.455   4.516  0.00  0.00     0.292 C 
HETATM   20  O   UNK N   1      24.149  14.899   4.559  0.00  0.00    -0.259 OA
BRANCH  19  21
HETATM   21  O   UNK N   1      22.525  14.093   3.299  0.00  0.00    -0.317 OA
BRANCH  21  22
HETATM   22  C   UNK N   1      22.459  14.928   2.205  0.00  0.00     0.183 C 
BRANCH  22  23
HETATM   23  C   UNK N   1      22.275  14.105   0.940  0.00  0.00     0.002 C 
HETATM   24  C   UNK N   1      21.493  12.839   1.240  0.00  0.00     0.011 C 
HETATM   25  C   UNK N   1      23.626  13.732   0.368  0.00  0.00     0.011 C 
ENDBRANCH  22  23
ENDBRANCH  21  22
ENDBRANCH  19  21
ENDBRANCH   3  19
BRANCH   4  26
HETATM   26  C   UNK N   1      19.891  16.539   8.241  0.00  0.00     0.291 C 
HETATM   27  O   UNK N   1      20.448  17.457   8.823  0.00  0.00    -0.260 OA
BRANCH  26  28
HETATM   28  O   UNK N   1      18.535  16.494   8.196  0.00  0.00    -0.323 OA
HETATM   29  C   UNK N   1      17.739  17.115   9.129  0.00  0.00     0.213 C 
ENDBRANCH  26  28
ENDBRANCH   4  26
TORSDOF 8
ENDMDL
