MODEL 1
REMARK VINA RESULT:      -7.7      0.000      0.000
REMARK  3 active torsions:
REMARK  status: ('A' for Active; 'I' for Inactive)
REMARK    1  A    between atoms: C_18  and  O_2 
REMARK    2  A    between atoms: O_2  and  C_19 
REMARK       I    between atoms: N_5  and  C_19 
REMARK    3  A    between atoms: N_7  and  C_24 
ROOT
HETATM    1  O   UNK N   1      29.454  15.763   5.683  0.00  0.00    -0.265 OA
HETATM    2  N   UNK N   1      31.518  16.590   6.208  0.00  0.00    -0.264 N 
HETATM    3  N   UNK N   1      30.800  18.478   9.233  0.00  0.00    -0.362 N 
ATOM      4  HN  UNK N   1      31.626  18.943   9.610  1.00  0.00     0.165 HD
HETATM    5  N   UNK N   1      28.562  17.231   8.163  0.00  0.00    -0.358 N 
ATOM      6  HN  UNK N   1      27.748  16.773   7.754  1.00  0.00     0.165 HD
HETATM    7  C   UNK N   1      32.102  17.438   7.249  0.00  0.00     0.297 A 
HETATM    8  C   UNK N   1      30.890  17.710   8.118  0.00  0.00     0.092 A 
HETATM    9  C   UNK N   1      29.785  17.110   7.594  0.00  0.00     0.128 A 
HETATM   10  C   UNK N   1      30.189  16.414   6.410  0.00  0.00     0.280 A 
HETATM   11  C   UNK N   1      29.585  18.619   9.842  0.00  0.00     0.105 A 
HETATM   12  C   UNK N   1      28.445  17.984   9.298  0.00  0.00     0.105 A 
ENDROOT
BRANCH   7  13
HETATM   13  O   UNK N   1      33.178  16.782   7.830  0.00  0.00    -0.271 OA
BRANCH  13  14
HETATM   14  C   UNK N   1      34.081  17.155   8.775  0.00  0.00     0.365 C 
HETATM   15  O   UNK N   1      34.731  18.184   8.662  0.00  0.00    -0.238 OA
HETATM   16  N   UNK N   1      34.296  16.319   9.824  0.00  0.00    -0.325 N 
HETATM   17  C   UNK N   1      33.562  15.085   9.928  0.00  0.00     0.158 C 
HETATM   18  C   UNK N   1      35.356  16.543  10.772  0.00  0.00     0.158 C 
HETATM   19  C   UNK N   1      34.553  13.935   9.769  0.00  0.00     0.291 C 
HETATM   20  N   UNK N   1      35.695  14.056  10.688  0.00  0.00     0.087 N 
HETATM   21  C   UNK N   1      36.348  15.377  10.641  0.00  0.00     0.291 C 
HETATM   22  C   UNK N   1      35.274  13.746  12.047  0.00  0.00     0.310 C 
ENDBRANCH  13  14
ENDBRANCH   7  13
BRANCH   2  23
HETATM   23  C   UNK N   1      32.282  16.027   5.137  0.00  0.00     0.112 A 
HETATM   24  N   UNK N   1      32.933  14.837   5.292  0.00  0.00    -0.350 N 
HETATM   25  C   UNK N   1      33.701  14.307   4.301  0.00  0.00     0.113 A 
ATOM     26  HN  UNK N   1      32.840  14.332   6.174  1.00  0.00     0.166 HD
HETATM   27  C   UNK N   1      33.846  14.982   3.087  0.00  0.00     0.049 A 
HETATM   28 Cl   UNK N   1      34.847  14.319   1.816  0.00  0.00    -0.083 Cl
HETATM   29  C   UNK N   1      33.188  16.195   2.897  0.00  0.00     0.029 A 
HETATM   30  C   UNK N   1      32.404  16.719   3.921  0.00  0.00     0.050 A 
ENDBRANCH   2  23
TORSDOF 3
ENDMDL
MODEL 2
REMARK VINA RESULT:      -7.0     12.700     16.477
REMARK  3 active torsions:
REMARK  status: ('A' for Active; 'I' for Inactive)
REMARK    1  A    between atoms: C_18  and  O_2 
REMARK    2  A    between atoms: O_2  and  C_19 
REMARK       I    between atoms: N_5  and  C_19 
REMARK    3  A    between atoms: N_7  and  C_24 
ROOT
HETATM    1  O   UNK N   1      30.829  23.157  -1.692  0.00  0.00    -0.265 OA
HETATM    2  N   UNK N   1      30.163  23.219  -3.876  0.00  0.00    -0.264 N 
HETATM    3  N   UNK N   1      32.417  20.802  -5.397  0.00  0.00    -0.362 N 
ATOM      4  HN  UNK N   1      32.271  20.708  -6.402  1.00  0.00     0.165 HD
HETATM    5  N   UNK N   1      32.816  21.106  -2.665  0.00  0.00    -0.358 N 
ATOM      6  HN  UNK N   1      32.955  21.233  -1.663  1.00  0.00     0.165 HD
HETATM    7  C   UNK N   1      30.543  22.573  -5.135  0.00  0.00     0.297 A 
HETATM    8  C   UNK N   1      31.647  21.646  -4.664  0.00  0.00     0.092 A 
HETATM    9  C   UNK N   1      31.855  21.796  -3.326  0.00  0.00     0.128 A 
HETATM   10  C   UNK N   1      30.925  22.773  -2.848  0.00  0.00     0.280 A 
HETATM   11  C   UNK N   1      33.391  20.081  -4.766  0.00  0.00     0.105 A 
HETATM   12  C   UNK N   1      33.595  20.235  -3.375  0.00  0.00     0.105 A 
ENDROOT
BRANCH   7  13
HETATM   13  O   UNK N   1      29.422  21.998  -5.717  0.00  0.00    -0.271 OA
BRANCH  13  14
HETATM   14  C   UNK N   1      29.113  21.683  -7.003  0.00  0.00     0.365 C 
HETATM   15  O   UNK N   1      29.871  21.017  -7.693  0.00  0.00    -0.238 OA
HETATM   16  N   UNK N   1      27.967  22.185  -7.529  0.00  0.00    -0.325 N 
HETATM   17  C   UNK N   1      27.100  23.008  -6.725  0.00  0.00     0.158 C 
HETATM   18  C   UNK N   1      27.649  22.055  -8.928  0.00  0.00     0.158 C 
HETATM   19  C   UNK N   1      27.110  24.415  -7.318  0.00  0.00     0.291 C 
HETATM   20  N   UNK N   1      26.803  24.414  -8.756  0.00  0.00     0.087 N 
HETATM   21  C   UNK N   1      27.628  23.468  -9.530  0.00  0.00     0.291 C 
HETATM   22  C   UNK N   1      25.389  24.139  -8.963  0.00  0.00     0.310 C 
ENDBRANCH  13  14
ENDBRANCH   7  13
BRANCH   2  23
HETATM   23  C   UNK N   1      29.110  24.184  -3.780  0.00  0.00     0.112 A 
HETATM   24  N   UNK N   1      27.880  23.831  -3.305  0.00  0.00    -0.350 N 
HETATM   25  C   UNK N   1      26.853  24.723  -3.247  0.00  0.00     0.113 A 
ATOM     26  HN  UNK N   1      27.727  22.875  -2.984  1.00  0.00     0.166 HD
HETATM   27  C   UNK N   1      27.038  26.037  -3.684  0.00  0.00     0.049 A 
HETATM   28 Cl   UNK N   1      25.718  27.184  -3.632  0.00  0.00    -0.083 Cl
HETATM   29  C   UNK N   1      28.284  26.427  -4.167  0.00  0.00     0.029 A 
HETATM   30  C   UNK N   1      29.323  25.502  -4.216  0.00  0.00     0.050 A 
ENDBRANCH   2  23
TORSDOF 3
ENDMDL
MODEL 3
REMARK VINA RESULT:      -7.0      7.274     10.517
REMARK  3 active torsions:
REMARK  status: ('A' for Active; 'I' for Inactive)
REMARK    1  A    between atoms: C_18  and  O_2 
REMARK    2  A    between atoms: O_2  and  C_19 
REMARK       I    between atoms: N_5  and  C_19 
REMARK    3  A    between atoms: N_7  and  C_24 
ROOT
HETATM    1  O   UNK N   1      37.112  14.547  15.453  0.00  0.00    -0.265 OA
HETATM    2  N   UNK N   1      35.619  12.840  15.179  0.00  0.00    -0.264 N 
HETATM    3  N   UNK N   1      34.589  13.317  11.723  0.00  0.00    -0.362 N 
ATOM      4  HN  UNK N   1      33.892  12.634  11.424  1.00  0.00     0.165 HD
HETATM    5  N   UNK N   1      36.460  15.183  12.576  0.00  0.00    -0.358 N 
ATOM      6  HN  UNK N   1      37.141  15.866  12.906  1.00  0.00     0.165 HD
HETATM    7  C   UNK N   1      34.757  12.327  14.112  0.00  0.00     0.297 A 
HETATM    8  C   UNK N   1      35.102  13.273  12.979  0.00  0.00     0.092 A 
HETATM    9  C   UNK N   1      36.013  14.198  13.392  0.00  0.00     0.128 A 
HETATM   10  C   UNK N   1      36.328  13.917  14.759  0.00  0.00     0.280 A 
HETATM   11  C   UNK N   1      35.021  14.290  10.867  0.00  0.00     0.105 A 
HETATM   12  C   UNK N   1      35.973  15.240  11.300  0.00  0.00     0.105 A 
ENDROOT
BRANCH   7  13
HETATM   13  O   UNK N   1      35.009  10.975  13.924  0.00  0.00    -0.271 OA
BRANCH  13  14
HETATM   14  C   UNK N   1      35.985  10.307  13.254  0.00  0.00     0.365 C 
HETATM   15  O   UNK N   1      37.162  10.430  13.557  0.00  0.00    -0.238 OA
HETATM   16  N   UNK N   1      35.627   9.545  12.189  0.00  0.00    -0.325 N 
HETATM   17  C   UNK N   1      34.242   9.440  11.807  0.00  0.00     0.158 C 
HETATM   18  C   UNK N   1      36.603   8.949  11.315  0.00  0.00     0.158 C 
HETATM   19  C   UNK N   1      34.082  10.103  10.441  0.00  0.00     0.291 C 
HETATM   20  N   UNK N   1      35.037   9.578   9.454  0.00  0.00     0.087 N 
HETATM   21  C   UNK N   1      36.434   9.588   9.928  0.00  0.00     0.291 C 
HETATM   22  C   UNK N   1      34.649   8.234   9.051  0.00  0.00     0.310 C 
ENDBRANCH  13  14
ENDBRANCH   7  13
BRANCH   2  23
HETATM   23  C   UNK N   1      35.687  12.250  16.482  0.00  0.00     0.112 A 
HETATM   24  N   UNK N   1      36.228  11.010  16.660  0.00  0.00    -0.350 N 
HETATM   25  C   UNK N   1      36.261  10.413  17.883  0.00  0.00     0.113 A 
ATOM     26  HN  UNK N   1      36.618  10.518  15.856  1.00  0.00     0.166 HD
HETATM   27  C   UNK N   1      35.729  11.066  18.998  0.00  0.00     0.049 A 
HETATM   28 Cl   UNK N   1      35.749  10.298  20.569  0.00  0.00    -0.083 Cl
HETATM   29  C   UNK N   1      35.176  12.335  18.848  0.00  0.00     0.029 A 
HETATM   30  C   UNK N   1      35.155  12.931  17.589  0.00  0.00     0.050 A 
ENDBRANCH   2  23
TORSDOF 3
ENDMDL
MODEL 4
REMARK VINA RESULT:      -6.9     11.086     13.380
REMARK  3 active torsions:
REMARK  status: ('A' for Active; 'I' for Inactive)
REMARK    1  A    between atoms: C_18  and  O_2 
REMARK    2  A    between atoms: O_2  and  C_19 
REMARK       I    between atoms: N_5  and  C_19 
REMARK    3  A    between atoms: N_7  and  C_24 
ROOT
HETATM    1  O   UNK N   1      20.213  17.207  -0.410  0.00  0.00    -0.265 OA
HETATM    2  N   UNK N   1      20.229  16.205   1.642  0.00  0.00    -0.264 N 
HETATM    3  N   UNK N   1      20.627  19.067   3.852  0.00  0.00    -0.362 N 
ATOM      4  HN  UNK N   1      20.672  18.800   4.836  1.00  0.00     0.165 HD
HETATM    5  N   UNK N   1      20.537  19.761   1.165  0.00  0.00    -0.358 N 
ATOM      6  HN  UNK N   1      20.510  20.000   0.174  1.00  0.00     0.165 HD
HETATM    7  C   UNK N   1      20.354  16.621   3.041  0.00  0.00     0.297 A 
HETATM    8  C   UNK N   1      20.457  18.126   2.889  0.00  0.00     0.092 A 
HETATM    9  C   UNK N   1      20.424  18.474   1.572  0.00  0.00     0.128 A 
HETATM   10  C   UNK N   1      20.278  17.272   0.809  0.00  0.00     0.280 A 
HETATM   11  C   UNK N   1      20.736  20.378   3.483  0.00  0.00     0.105 A 
HETATM   12  C   UNK N   1      20.691  20.732   2.115  0.00  0.00     0.105 A 
ENDROOT
BRANCH   7  13
HETATM   13  O   UNK N   1      19.285  16.118   3.770  0.00  0.00    -0.271 OA
BRANCH  13  14
HETATM   14  C   UNK N   1      19.160  15.722   5.064  0.00  0.00     0.365 C 
HETATM   15  O   UNK N   1      18.163  15.989   5.718  0.00  0.00    -0.238 OA
HETATM   16  N   UNK N   1      20.206  15.075   5.642  0.00  0.00    -0.325 N 
HETATM   17  C   UNK N   1      21.398  14.804   4.881  0.00  0.00     0.158 C 
HETATM   18  C   UNK N   1      20.236  14.780   7.050  0.00  0.00     0.158 C 
HETATM   19  C   UNK N   1      22.536  15.624   5.484  0.00  0.00     0.291 C 
HETATM   20  N   UNK N   1      22.664  15.411   6.934  0.00  0.00     0.087 N 
HETATM   21  C   UNK N   1      21.395  15.579   7.666  0.00  0.00     0.291 C 
HETATM   22  C   UNK N   1      23.230  14.096   7.195  0.00  0.00     0.310 C 
ENDBRANCH  13  14
ENDBRANCH   7  13
BRANCH   2  23
HETATM   23  C   UNK N   1      20.067  14.839   1.244  0.00  0.00     0.112 A 
HETATM   24  N   UNK N   1      18.829  14.267   1.199  0.00  0.00    -0.350 N 
HETATM   25  C   UNK N   1      18.658  12.958   0.866  0.00  0.00     0.113 A 
ATOM     26  HN  UNK N   1      18.011  14.835   1.419  1.00  0.00     0.166 HD
HETATM   27  C   UNK N   1      19.763  12.160   0.564  0.00  0.00     0.049 A 
HETATM   28 Cl   UNK N   1      19.554  10.472   0.155  0.00  0.00    -0.083 Cl
HETATM   29  C   UNK N   1      21.038  12.718   0.595  0.00  0.00     0.029 A 
HETATM   30  C   UNK N   1      21.193  14.060   0.935  0.00  0.00     0.050 A 
ENDBRANCH   2  23
TORSDOF 3
ENDMDL
MODEL 5
REMARK VINA RESULT:      -6.9      4.927      8.216
REMARK  3 active torsions:
REMARK  status: ('A' for Active; 'I' for Inactive)
REMARK    1  A    between atoms: C_18  and  O_2 
REMARK    2  A    between atoms: O_2  and  C_19 
REMARK       I    between atoms: N_5  and  C_19 
REMARK    3  A    between atoms: N_7  and  C_24 
ROOT
HETATM    1  O   UNK N   1      27.940  18.865   7.986  0.00  0.00    -0.265 OA
HETATM    2  N   UNK N   1      28.386  18.268   5.827  0.00  0.00    -0.264 N 
HETATM    3  N   UNK N   1      31.409  16.284   6.226  0.00  0.00    -0.362 N 
ATOM      4  HN  UNK N   1      31.772  15.938   5.338  1.00  0.00     0.165 HD
HETATM    5  N   UNK N   1      30.420  17.270   8.627  0.00  0.00    -0.358 N 
ATOM      6  HN  UNK N   1      30.049  17.645   9.499  1.00  0.00     0.165 HD
HETATM    7  C   UNK N   1      29.404  17.492   5.115  0.00  0.00     0.297 A 
HETATM    8  C   UNK N   1      30.273  17.025   6.266  0.00  0.00     0.092 A 
HETATM    9  C   UNK N   1      29.800  17.513   7.447  0.00  0.00     0.128 A 
HETATM   10  C   UNK N   1      28.626  18.280   7.161  0.00  0.00     0.280 A 
HETATM   11  C   UNK N   1      32.060  16.010   7.396  0.00  0.00     0.105 A 
HETATM   12  C   UNK N   1      31.557  16.512   8.619  0.00  0.00     0.105 A 
ENDROOT
BRANCH   7  13
HETATM   13  O   UNK N   1      28.787  16.522   4.337  0.00  0.00    -0.271 OA
BRANCH  13  14
HETATM   14  C   UNK N   1      28.223  15.323   4.640  0.00  0.00     0.365 C 
HETATM   15  O   UNK N   1      28.802  14.508   5.342  0.00  0.00    -0.238 OA
HETATM   16  N   UNK N   1      27.021  15.020   4.085  0.00  0.00    -0.325 N 
HETATM   17  C   UNK N   1      26.364  15.966   3.220  0.00  0.00     0.158 C 
HETATM   18  C   UNK N   1      26.435  13.710   4.203  0.00  0.00     0.158 C 
HETATM   19  C   UNK N   1      26.325  15.367   1.816  0.00  0.00     0.291 C 
HETATM   20  N   UNK N   1      25.748  14.015   1.807  0.00  0.00     0.087 N 
HETATM   21  C   UNK N   1      26.364  13.107   2.792  0.00  0.00     0.291 C 
HETATM   22  C   UNK N   1      24.309  14.086   2.014  0.00  0.00     0.310 C 
ENDBRANCH  13  14
ENDBRANCH   7  13
BRANCH   2  23
HETATM   23  C   UNK N   1      27.288  18.908   5.168  0.00  0.00     0.112 A 
HETATM   24  N   UNK N   1      26.001  18.622   5.519  0.00  0.00    -0.350 N 
HETATM   25  C   UNK N   1      24.942  19.186   4.875  0.00  0.00     0.113 A 
ATOM     26  HN  UNK N   1      25.827  17.969   6.284  1.00  0.00     0.166 HD
HETATM   27  C   UNK N   1      25.155  20.079   3.823  0.00  0.00     0.049 A 
HETATM   28 Cl   UNK N   1      23.800  20.793   2.976  0.00  0.00    -0.083 Cl
HETATM   29  C   UNK N   1      26.458  20.395   3.447  0.00  0.00     0.029 A 
HETATM   30  C   UNK N   1      27.528  19.811   4.120  0.00  0.00     0.050 A 
ENDBRANCH   2  23
TORSDOF 3
ENDMDL
MODEL 6
REMARK VINA RESULT:      -6.9     10.649     12.763
REMARK  3 active torsions:
REMARK  status: ('A' for Active; 'I' for Inactive)
REMARK    1  A    between atoms: C_18  and  O_2 
REMARK    2  A    between atoms: O_2  and  C_19 
REMARK       I    between atoms: N_5  and  C_19 
REMARK    3  A    between atoms: N_7  and  C_24 
ROOT
HETATM    1  O   UNK N   1      21.610  18.448   6.861  0.00  0.00    -0.265 OA
HETATM    2  N   UNK N   1      21.016  16.418   5.999  0.00  0.00    -0.264 N 
HETATM    3  N   UNK N   1      20.324  17.271   2.531  0.00  0.00    -0.362 N 
ATOM      4  HN  UNK N   1      20.020  16.467   1.982  1.00  0.00     0.165 HD
HETATM    5  N   UNK N   1      21.118  19.451   4.058  0.00  0.00    -0.358 N 
ATOM      6  HN  UNK N   1      21.404  20.242   4.633  1.00  0.00     0.165 HD
HETATM    7  C   UNK N   1      20.590  15.884   4.704  0.00  0.00     0.297 A 
HETATM    8  C   UNK N   1      20.647  17.130   3.842  0.00  0.00     0.092 A 
HETATM    9  C   UNK N   1      21.026  18.206   4.586  0.00  0.00     0.128 A 
HETATM   10  C   UNK N   1      21.256  17.751   5.923  0.00  0.00     0.280 A 
HETATM   11  C   UNK N   1      20.412  18.509   1.959  0.00  0.00     0.105 A 
HETATM   12  C   UNK N   1      20.817  19.619   2.736  0.00  0.00     0.105 A 
ENDROOT
BRANCH   7  13
HETATM   13  O   UNK N   1      21.406  14.818   4.351  0.00  0.00    -0.271 OA
BRANCH  13  14
HETATM   14  C   UNK N   1      22.709  14.745   3.971  0.00  0.00     0.365 C 
HETATM   15  O   UNK N   1      23.561  15.454   4.483  0.00  0.00    -0.238 OA
HETATM   16  N   UNK N   1      23.034  13.907   2.952  0.00  0.00    -0.325 N 
HETATM   17  C   UNK N   1      22.016  13.107   2.320  0.00  0.00     0.158 C 
HETATM   18  C   UNK N   1      24.348  13.896   2.364  0.00  0.00     0.158 C 
HETATM   19  C   UNK N   1      21.865  13.595   0.881  0.00  0.00     0.291 C 
HETATM   20  N   UNK N   1      23.152  13.635   0.171  0.00  0.00     0.087 N 
HETATM   21  C   UNK N   1      24.206  14.359   0.906  0.00  0.00     0.291 C 
HETATM   22  C   UNK N   1      23.590  12.282  -0.141  0.00  0.00     0.310 C 
ENDBRANCH  13  14
ENDBRANCH   7  13
BRANCH   2  23
HETATM   23  C   UNK N   1      21.161  15.608   7.170  0.00  0.00     0.112 A 
HETATM   24  N   UNK N   1      22.258  14.814   7.339  0.00  0.00    -0.350 N 
HETATM   25  C   UNK N   1      22.392  14.002   8.424  0.00  0.00     0.113 A 
ATOM     26  HN  UNK N   1      22.995  14.829   6.634  1.00  0.00     0.166 HD
HETATM   27  C   UNK N   1      21.394  13.961   9.399  0.00  0.00     0.049 A 
HETATM   28 Cl   UNK N   1      21.549  12.906  10.786  0.00  0.00    -0.083 Cl
HETATM   29  C   UNK N   1      20.266  14.766   9.257  0.00  0.00     0.029 A 
HETATM   30  C   UNK N   1      20.148  15.592   8.142  0.00  0.00     0.050 A 
ENDBRANCH   2  23
TORSDOF 3
ENDMDL
MODEL 7
REMARK VINA RESULT:      -6.8      7.209     10.757
REMARK  3 active torsions:
REMARK  status: ('A' for Active; 'I' for Inactive)
REMARK    1  A    between atoms: C_18  and  O_2 
REMARK    2  A    between atoms: O_2  and  C_19 
REMARK       I    between atoms: N_5  and  C_19 
REMARK    3  A    between atoms: N_7  and  C_24 
ROOT
HETATM    1  O   UNK N   1      37.099  14.540  15.442  0.00  0.00    -0.265 OA
HETATM    2  N   UNK N   1      35.601  12.835  15.191  0.00  0.00    -0.264 N 
HETATM    3  N   UNK N   1      34.574  13.267  11.728  0.00  0.00    -0.362 N 
ATOM      4  HN  UNK N   1      33.876  12.583  11.437  1.00  0.00     0.165 HD
HETATM    5  N   UNK N   1      36.451  15.139  12.557  0.00  0.00    -0.358 N 
ATOM      6  HN  UNK N   1      37.135  15.824  12.878  1.00  0.00     0.165 HD
HETATM    7  C   UNK N   1      34.738  12.310  14.130  0.00  0.00     0.297 A 
HETATM    8  C   UNK N   1      35.087  13.239  12.984  0.00  0.00     0.092 A 
HETATM    9  C   UNK N   1      36.000  14.167  13.386  0.00  0.00     0.128 A 
HETATM   10  C   UNK N   1      36.314  13.903  14.757  0.00  0.00     0.280 A 
HETATM   11  C   UNK N   1      35.010  14.227  10.858  0.00  0.00     0.105 A 
HETATM   12  C   UNK N   1      35.965  15.181  11.280  0.00  0.00     0.105 A 
ENDROOT
BRANCH   7  13
HETATM   13  O   UNK N   1      34.986  10.955  13.961  0.00  0.00    -0.271 OA
BRANCH  13  14
HETATM   14  C   UNK N   1      35.172  10.186  12.855  0.00  0.00     0.365 C 
HETATM   15  O   UNK N   1      34.241   9.898  12.118  0.00  0.00    -0.238 OA
HETATM   16  N   UNK N   1      36.413   9.685  12.623  0.00  0.00    -0.325 N 
HETATM   17  C   UNK N   1      37.496   9.989  13.522  0.00  0.00     0.158 C 
HETATM   18  C   UNK N   1      36.663   8.719  11.585  0.00  0.00     0.158 C 
HETATM   19  C   UNK N   1      37.912   8.691  14.210  0.00  0.00     0.291 C 
HETATM   20  N   UNK N   1      38.191   7.617  13.245  0.00  0.00     0.087 N 
HETATM   21  C   UNK N   1      37.110   7.415  12.263  0.00  0.00     0.291 C 
HETATM   22  C   UNK N   1      39.452   7.875  12.565  0.00  0.00     0.310 C 
ENDBRANCH  13  14
ENDBRANCH   7  13
BRANCH   2  23
HETATM   23  C   UNK N   1      35.666  12.262  16.501  0.00  0.00     0.112 A 
HETATM   24  N   UNK N   1      36.181  11.014  16.694  0.00  0.00    -0.350 N 
HETATM   25  C   UNK N   1      36.211  10.434  17.925  0.00  0.00     0.113 A 
ATOM     26  HN  UNK N   1      36.554  10.502  15.894  1.00  0.00     0.166 HD
HETATM   27  C   UNK N   1      35.702  11.114  19.034  0.00  0.00     0.049 A 
HETATM   28 Cl   UNK N   1      35.717  10.368  20.616  0.00  0.00    -0.083 Cl
HETATM   29  C   UNK N   1      35.176  12.392  18.870  0.00  0.00     0.029 A 
HETATM   30  C   UNK N   1      35.158  12.970  17.603  0.00  0.00     0.050 A 
ENDBRANCH   2  23
TORSDOF 3
ENDMDL
MODEL 8
REMARK VINA RESULT:      -6.8      3.957      7.025
REMARK  3 active torsions:
REMARK  status: ('A' for Active; 'I' for Inactive)
REMARK    1  A    between atoms: C_18  and  O_2 
REMARK    2  A    between atoms: O_2  and  C_19 
REMARK       I    between atoms: N_5  and  C_19 
REMARK    3  A    between atoms: N_7  and  C_24 
ROOT
HETATM    1  O   UNK N   1      36.365  16.753  10.848  0.00  0.00    -0.265 OA
HETATM    2  N   UNK N   1      35.157  14.842  10.524  0.00  0.00    -0.264 N 
HETATM    3  N   UNK N   1      32.756  15.912   8.009  0.00  0.00    -0.362 N 
ATOM      4  HN  UNK N   1      32.106  15.170   7.746  1.00  0.00     0.165 HD
HETATM    5  N   UNK N   1      34.516  17.921   8.768  0.00  0.00    -0.358 N 
ATOM      6  HN  UNK N   1      35.166  18.650   9.062  1.00  0.00     0.165 HD
HETATM    7  C   UNK N   1      34.022  14.414   9.703  0.00  0.00     0.297 A 
HETATM    8  C   UNK N   1      33.735  15.680   8.920  0.00  0.00     0.092 A 
HETATM    9  C   UNK N   1      34.589  16.674   9.294  0.00  0.00     0.128 A 
HETATM   10  C   UNK N   1      35.469  16.140  10.288  0.00  0.00     0.280 A 
HETATM   11  C   UNK N   1      32.656  17.154   7.448  0.00  0.00     0.105 A 
HETATM   12  C   UNK N   1      33.552  18.177   7.834  0.00  0.00     0.105 A 
ENDROOT
BRANCH   7  13
HETATM   13  O   UNK N   1      34.371  13.278   8.987  0.00  0.00    -0.271 OA
BRANCH  13  14
HETATM   14  C   UNK N   1      33.633  12.309   8.384  0.00  0.00     0.365 C 
HETATM   15  O   UNK N   1      32.797  12.582   7.536  0.00  0.00    -0.238 OA
HETATM   16  N   UNK N   1      33.800  11.025   8.795  0.00  0.00    -0.325 N 
HETATM   17  C   UNK N   1      34.754  10.714   9.828  0.00  0.00     0.158 C 
HETATM   18  C   UNK N   1      32.939   9.962   8.344  0.00  0.00     0.158 C 
HETATM   19  C   UNK N   1      33.979  10.219  11.047  0.00  0.00     0.291 C 
HETATM   20  N   UNK N   1      33.053   9.128  10.711  0.00  0.00     0.087 N 
HETATM   21  C   UNK N   1      32.173   9.437   9.568  0.00  0.00     0.291 C 
HETATM   22  C   UNK N   1      33.798   7.903  10.460  0.00  0.00     0.310 C 
ENDBRANCH  13  14
ENDBRANCH   7  13
BRANCH   2  23
HETATM   23  C   UNK N   1      35.833  13.972  11.438  0.00  0.00     0.112 A 
HETATM   24  N   UNK N   1      36.927  13.258  11.044  0.00  0.00    -0.350 N 
HETATM   25  C   UNK N   1      37.557  12.392  11.885  0.00  0.00     0.113 A 
ATOM     26  HN  UNK N   1      37.282  13.377  10.095  1.00  0.00     0.166 HD
HETATM   27  C   UNK N   1      37.086  12.210  13.187  0.00  0.00     0.049 A 
HETATM   28 Cl   UNK N   1      37.876  11.085  14.268  0.00  0.00    -0.083 Cl
HETATM   29  C   UNK N   1      35.975  12.930  13.620  0.00  0.00     0.029 A 
HETATM   30  C   UNK N   1      35.347  13.814  12.746  0.00  0.00     0.050 A 
ENDBRANCH   2  23
TORSDOF 3
ENDMDL
MODEL 9
REMARK VINA RESULT:      -6.7      7.612     10.816
REMARK  3 active torsions:
REMARK  status: ('A' for Active; 'I' for Inactive)
REMARK    1  A    between atoms: C_18  and  O_2 
REMARK    2  A    between atoms: O_2  and  C_19 
REMARK       I    between atoms: N_5  and  C_19 
REMARK    3  A    between atoms: N_7  and  C_24 
ROOT
HETATM    1  O   UNK N   1      24.827  20.890   2.331  0.00  0.00    -0.265 OA
HETATM    2  N   UNK N   1      24.538  19.170   3.807  0.00  0.00    -0.264 N 
HETATM    3  N   UNK N   1      20.911  18.927   3.945  0.00  0.00    -0.362 N 
ATOM      4  HN  UNK N   1      20.591  18.201   4.586  1.00  0.00     0.165 HD
HETATM    5  N   UNK N   1      21.811  20.921   2.234  0.00  0.00    -0.358 N 
ATOM      6  HN  UNK N   1      22.157  21.653   1.615  1.00  0.00     0.165 HD
HETATM    7  C   UNK N   1      23.415  18.452   4.413  0.00  0.00     0.297 A 
HETATM    8  C   UNK N   1      22.237  19.141   3.752  0.00  0.00     0.092 A 
HETATM    9  C   UNK N   1      22.671  20.128   2.918  0.00  0.00     0.128 A 
HETATM   10  C   UNK N   1      24.101  20.133   2.958  0.00  0.00     0.280 A 
HETATM   11  C   UNK N   1      20.012  19.700   3.265  0.00  0.00     0.105 A 
HETATM   12  C   UNK N   1      20.470  20.715   2.394  0.00  0.00     0.105 A 
ENDROOT
BRANCH   7  13
HETATM   13  O   UNK N   1      23.568  17.089   4.199  0.00  0.00    -0.271 OA
BRANCH  13  14
HETATM   14  C   UNK N   1      22.682  16.099   3.912  0.00  0.00     0.365 C 
HETATM   15  O   UNK N   1      22.172  16.004   2.806  0.00  0.00    -0.238 OA
HETATM   16  N   UNK N   1      22.323  15.250   4.909  0.00  0.00    -0.325 N 
HETATM   17  C   UNK N   1      22.893  15.395   6.224  0.00  0.00     0.158 C 
HETATM   18  C   UNK N   1      21.263  14.289   4.748  0.00  0.00     0.158 C 
HETATM   19  C   UNK N   1      21.772  15.803   7.178  0.00  0.00     0.291 C 
HETATM   20  N   UNK N   1      20.619  14.893   7.099  0.00  0.00     0.087 N 
HETATM   21  C   UNK N   1      20.139  14.673   5.722  0.00  0.00     0.291 C 
HETATM   22  C   UNK N   1      20.943  13.623   7.733  0.00  0.00     0.310 C 
ENDBRANCH  13  14
ENDBRANCH   7  13
BRANCH   2  23
HETATM   23  C   UNK N   1      25.907  18.862   4.088  0.00  0.00     0.112 A 
HETATM   24  N   UNK N   1      26.490  17.739   3.577  0.00  0.00    -0.350 N 
HETATM   25  C   UNK N   1      27.777  17.405   3.869  0.00  0.00     0.113 A 
ATOM     26  HN  UNK N   1      25.947  17.135   2.959  1.00  0.00     0.166 HD
HETATM   27  C   UNK N   1      28.538  18.215   4.715  0.00  0.00     0.049 A 
HETATM   28 Cl   UNK N   1      30.186  17.782   5.112  0.00  0.00    -0.083 Cl
HETATM   29  C   UNK N   1      27.973  19.370   5.247  0.00  0.00     0.029 A 
HETATM   30  C   UNK N   1      26.656  19.698   4.934  0.00  0.00     0.050 A 
ENDBRANCH   2  23
TORSDOF 3
ENDMDL
