REMARK  3 active torsions:
REMARK  status: ('A' for Active; 'I' for Inactive)
REMARK    1  A    between atoms: C_18  and  O_2 
REMARK    2  A    between atoms: O_2  and  C_19 
REMARK       I    between atoms: N_5  and  C_19 
REMARK    3  A    between atoms: N_7  and  C_24 
ROOT
HETATM    1  O   UNK N   1       3.964  -4.757   0.676  0.00  0.00    -0.265 OA
HETATM    2  N   UNK N   1       4.366  -2.715  -0.265  0.00  0.00    -0.264 N 
HETATM    3  N   UNK N   1       0.990  -1.552  -0.959  0.00  0.00    -0.362 N 
ATOM      4  HN  UNK N   1       0.975  -0.636  -1.408  1.00  0.00     0.165 HD
HETATM    5  N   UNK N   1       1.062  -4.060   0.231  0.00  0.00    -0.358 N 
ATOM      6  HN  UNK N   1       1.105  -4.983   0.662  1.00  0.00     0.165 HD
HETATM    7  C   UNK N   1       3.577  -1.615  -0.824  0.00  0.00     0.297 A 
HETATM    8  C   UNK N   1       2.167  -2.129  -0.608  0.00  0.00     0.092 A 
HETATM    9  C   UNK N   1       2.194  -3.364  -0.033  0.00  0.00     0.128 A 
HETATM   10  C   UNK N   1       3.565  -3.715   0.178  0.00  0.00     0.280 A 
HETATM   11  C   UNK N   1      -0.175  -2.218  -0.701  0.00  0.00     0.105 A 
HETATM   12  C   UNK N   1      -0.139  -3.495  -0.095  0.00  0.00     0.105 A 
ENDROOT
BRANCH   7  13
HETATM   13  O   UNK N   1       3.933  -0.427  -0.201  0.00  0.00    -0.271 OA
BRANCH  13  14
HETATM   14  C   UNK N   1       3.204   0.549   0.402  0.00  0.00     0.365 C 
HETATM   15  O   UNK N   1       2.008   0.412   0.610  0.00  0.00    -0.238 OA
HETATM   16  N   UNK N   1       3.825   1.717   0.710  0.00  0.00    -0.325 N 
HETATM   17  C   UNK N   1       5.225   1.891   0.420  0.00  0.00     0.158 C 
HETATM   18  C   UNK N   1       3.097   2.866   1.182  0.00  0.00     0.158 C 
HETATM   19  C   UNK N   1       5.350   2.970  -0.653  0.00  0.00     0.291 C 
HETATM   20  N   UNK N   1       4.636   4.202  -0.286  0.00  0.00     0.087 N 
HETATM   21  C   UNK N   1       3.238   3.970   0.123  0.00  0.00     0.291 C 
HETATM   22  C   UNK N   1       5.361   4.904   0.763  0.00  0.00     0.310 C 
ENDBRANCH  13  14
ENDBRANCH   7  13
BRANCH   2  23
HETATM   23  C   UNK N   1       5.796  -2.698  -0.201  0.00  0.00     0.112 A 
HETATM   24  N   UNK N   1       6.483  -3.738   0.355  0.00  0.00    -0.350 N 
HETATM   25  C   UNK N   1       7.840  -3.721   0.466  0.00  0.00     0.113 A 
ATOM     26  HN  UNK N   1       5.966  -4.549   0.696  1.00  0.00     0.166 HD
HETATM   27  C   UNK N   1       8.568  -2.620   0.010  0.00  0.00     0.049 A 
HETATM   28 Cl   UNK N   1      10.310  -2.581   0.167  0.00  0.00    -0.083 Cl
HETATM   29  C   UNK N   1       7.895  -1.547  -0.568  0.00  0.00     0.029 A 
HETATM   30  C   UNK N   1       6.507  -1.584  -0.676  0.00  0.00     0.050 A 
ENDBRANCH   2  23
TORSDOF 3
