MODEL 1
REMARK VINA RESULT:      -7.4      0.000      0.000
REMARK  1 active torsions:
REMARK  status: ('A' for Active; 'I' for Inactive)
REMARK    1  A    between atoms: C_12  and  C_17 
ROOT
HETATM    1 Cl   UNK N   1      28.655  14.835   2.143  0.00  0.00    -0.084 Cl
HETATM    2  N   UNK N   1      30.342  17.312   7.350  0.00  0.00    -0.286 N 
HETATM    3  N   UNK N   1      27.607  18.663   7.156  0.00  0.00    -0.381 N 
ATOM      4  HN  UNK N   1      27.050  19.500   7.327  1.00  0.00     0.160 HD
HETATM    5  N   UNK N   1      30.418  18.334   9.316  0.00  0.00    -0.286 N 
ATOM      6  HN  UNK N   1      30.116  18.834  10.153  1.00  0.00     0.188 HD
HETATM    7  N   UNK N   1      31.652  17.948   9.033  0.00  0.00    -0.287 N 
ATOM      8  HN  UNK N   1      32.481  18.101   9.606  1.00  0.00     0.188 HD
HETATM    9  C   UNK N   1      29.852  16.729   6.122  0.00  0.00     0.054 A 
HETATM   10  C   UNK N   1      28.649  17.165   5.460  0.00  0.00     0.020 A 
HETATM   11  C   UNK N   1      29.634  17.945   8.292  0.00  0.00     0.122 A 
HETATM   12  C   UNK N   1      27.726  18.297   5.919  0.00  0.00     0.051 C 
HETATM   13  C   UNK N   1      28.169  18.026   8.310  0.00  0.00     0.198 C 
HETATM   14  C   UNK N   1      31.603  17.314   7.847  0.00  0.00     0.100 A 
HETATM   15  C   UNK N   1      30.637  15.730   5.515  0.00  0.00     0.033 A 
HETATM   16  C   UNK N   1      28.329  16.545   4.237  0.00  0.00     0.040 A 
HETATM   17  C   UNK N   1      30.274  15.140   4.311  0.00  0.00     0.026 A 
HETATM   18  C   UNK N   1      29.115  15.549   3.672  0.00  0.00     0.035 A 
HETATM   19  C   UNK N   1      32.807  16.712   7.202  0.00  0.00     0.091 C 
ENDROOT
BRANCH  12  20
HETATM   20  C   UNK N   1      26.815  19.005   4.943  0.00  0.00    -0.009 A 
HETATM   21  C   UNK N   1      27.274  19.993   4.053  0.00  0.00     0.014 A 
HETATM   22  C   UNK N   1      26.407  20.596   3.136  0.00  0.00     0.001 A 
HETATM   23  C   UNK N   1      25.065  20.219   3.093  0.00  0.00     0.000 A 
HETATM   24  C   UNK N   1      24.586  19.249   3.976  0.00  0.00     0.001 A 
HETATM   25  C   UNK N   1      25.453  18.651   4.894  0.00  0.00     0.014 A 
ENDBRANCH  12  20
TORSDOF 1
ENDMDL
MODEL 2
REMARK VINA RESULT:      -7.0      2.913      5.941
REMARK  1 active torsions:
REMARK  status: ('A' for Active; 'I' for Inactive)
REMARK    1  A    between atoms: C_12  and  C_17 
ROOT
HETATM    1 Cl   UNK N   1      31.271  16.944   9.149  0.00  0.00    -0.084 Cl
HETATM    2  N   UNK N   1      27.248  19.226   5.315  0.00  0.00    -0.286 N 
HETATM    3  N   UNK N   1      28.478  17.184   3.402  0.00  0.00    -0.381 N 
ATOM      4  HN  UNK N   1      28.762  16.967   2.446  1.00  0.00     0.160 HD
HETATM    5  N   UNK N   1      25.870  19.597   3.618  0.00  0.00    -0.286 N 
ATOM      6  HN  UNK N   1      25.373  19.469   2.735  1.00  0.00     0.188 HD
HETATM    7  N   UNK N   1      25.735  20.613   4.455  0.00  0.00    -0.287 N 
ATOM      8  HN  UNK N   1      25.122  21.420   4.336  1.00  0.00     0.188 HD
HETATM    9  C   UNK N   1      28.214  18.602   6.189  0.00  0.00     0.054 A 
HETATM   10  C   UNK N   1      29.212  17.668   5.733  0.00  0.00     0.020 A 
HETATM   11  C   UNK N   1      26.786  18.764   4.147  0.00  0.00     0.122 A 
HETATM   12  C   UNK N   1      29.423  17.207   4.288  0.00  0.00     0.051 C 
HETATM   13  C   UNK N   1      27.082  17.430   3.610  0.00  0.00     0.198 C 
HETATM   14  C   UNK N   1      26.560  20.380   5.492  0.00  0.00     0.100 A 
HETATM   15  C   UNK N   1      28.215  18.988   7.543  0.00  0.00     0.033 A 
HETATM   16  C   UNK N   1      30.127  17.189   6.689  0.00  0.00     0.040 A 
HETATM   17  C   UNK N   1      29.133  18.479   8.452  0.00  0.00     0.026 A 
HETATM   18  C   UNK N   1      30.091  17.576   8.023  0.00  0.00     0.035 A 
HETATM   19  C   UNK N   1      26.671  21.303   6.660  0.00  0.00     0.091 C 
ENDROOT
BRANCH  12  20
HETATM   20  C   UNK N   1      30.754  16.656   3.832  0.00  0.00    -0.009 A 
HETATM   21  C   UNK N   1      31.904  17.455   3.702  0.00  0.00     0.014 A 
HETATM   22  C   UNK N   1      33.128  16.898   3.316  0.00  0.00     0.001 A 
HETATM   23  C   UNK N   1      33.223  15.532   3.056  0.00  0.00     0.000 A 
HETATM   24  C   UNK N   1      32.090  14.723   3.168  0.00  0.00     0.001 A 
HETATM   25  C   UNK N   1      30.867  15.281   3.549  0.00  0.00     0.014 A 
ENDBRANCH  12  20
TORSDOF 1
ENDMDL
MODEL 3
REMARK VINA RESULT:      -6.9     11.501     14.500
REMARK  1 active torsions:
REMARK  status: ('A' for Active; 'I' for Inactive)
REMARK    1  A    between atoms: C_12  and  C_17 
ROOT
HETATM    1 Cl   UNK N   1      37.463  15.935  16.558  0.00  0.00    -0.084 Cl
HETATM    2  N   UNK N   1      35.063  11.711  13.024  0.00  0.00    -0.286 N 
HETATM    3  N   UNK N   1      34.215  10.495  15.696  0.00  0.00    -0.381 N 
ATOM      4  HN  UNK N   1      34.060   9.647  16.242  1.00  0.00     0.160 HD
HETATM    5  N   UNK N   1      33.889  10.029  12.182  0.00  0.00    -0.286 N 
ATOM      6  HN  UNK N   1      33.235   9.248  12.120  1.00  0.00     0.188 HD
HETATM    7  N   UNK N   1      34.634  10.510  11.200  0.00  0.00    -0.287 N 
ATOM      8  HN  UNK N   1      34.670  10.164  10.241  1.00  0.00     0.188 HD
HETATM    9  C   UNK N   1      35.580  12.706  13.935  0.00  0.00     0.054 A 
HETATM   10  C   UNK N   1      35.610  12.533  15.366  0.00  0.00     0.020 A 
HETATM   11  C   UNK N   1      34.155  10.763  13.280  0.00  0.00     0.122 A 
HETATM   12  C   UNK N   1      35.132  11.299  16.136  0.00  0.00     0.051 C 
HETATM   13  C   UNK N   1      33.396  10.661  14.533  0.00  0.00     0.198 C 
HETATM   14  C   UNK N   1      35.336  11.540  11.707  0.00  0.00     0.100 A 
HETATM   15  C   UNK N   1      36.145  13.870  13.381  0.00  0.00     0.033 A 
HETATM   16  C   UNK N   1      36.201  13.561  16.124  0.00  0.00     0.040 A 
HETATM   17  C   UNK N   1      36.709  14.862  14.172  0.00  0.00     0.026 A 
HETATM   18  C   UNK N   1      36.735  14.707  15.548  0.00  0.00     0.035 A 
HETATM   19  C   UNK N   1      36.280  12.356  10.889  0.00  0.00     0.091 C 
ENDROOT
BRANCH  12  20
HETATM   20  C   UNK N   1      35.649  10.996  17.522  0.00  0.00    -0.009 A 
HETATM   21  C   UNK N   1      35.284  11.749  18.653  0.00  0.00     0.014 A 
HETATM   22  C   UNK N   1      35.752  11.411  19.927  0.00  0.00     0.001 A 
HETATM   23  C   UNK N   1      36.594  10.312  20.092  0.00  0.00     0.000 A 
HETATM   24  C   UNK N   1      36.979   9.558  18.982  0.00  0.00     0.001 A 
HETATM   25  C   UNK N   1      36.513   9.900  17.709  0.00  0.00     0.014 A 
ENDBRANCH  12  20
TORSDOF 1
ENDMDL
MODEL 4
REMARK VINA RESULT:      -6.9      7.160     11.221
REMARK  1 active torsions:
REMARK  status: ('A' for Active; 'I' for Inactive)
REMARK    1  A    between atoms: C_12  and  C_17 
ROOT
HETATM    1 Cl   UNK N   1      34.219   9.057  10.659  0.00  0.00    -0.084 Cl
HETATM    2  N   UNK N   1      34.446  15.045  10.222  0.00  0.00    -0.286 N 
HETATM    3  N   UNK N   1      36.258  14.774  12.669  0.00  0.00    -0.381 N 
ATOM      4  HN  UNK N   1      36.558  15.166  13.562  1.00  0.00     0.160 HD
HETATM    5  N   UNK N   1      34.978  17.191  10.390  0.00  0.00    -0.286 N 
ATOM      6  HN  UNK N   1      35.466  18.042  10.670  1.00  0.00     0.188 HD
HETATM    7  N   UNK N   1      33.926  17.114   9.590  0.00  0.00    -0.287 N 
ATOM      8  HN  UNK N   1      33.446  17.895   9.144  1.00  0.00     0.188 HD
HETATM    9  C   UNK N   1      34.470  13.608  10.368  0.00  0.00     0.054 A 
HETATM   10  C   UNK N   1      35.051  12.934  11.503  0.00  0.00     0.020 A 
HETATM   11  C   UNK N   1      35.284  15.934  10.766  0.00  0.00     0.122 A 
HETATM   12  C   UNK N   1      35.702  13.604  12.715  0.00  0.00     0.051 C 
HETATM   13  C   UNK N   1      36.500  15.578  11.508  0.00  0.00     0.198 C 
HETATM   14  C   UNK N   1      33.613  15.810   9.476  0.00  0.00     0.100 A 
HETATM   15  C   UNK N   1      33.828  12.839   9.378  0.00  0.00     0.033 A 
HETATM   16  C   UNK N   1      34.944  11.530  11.538  0.00  0.00     0.040 A 
HETATM   17  C   UNK N   1      33.757  11.454   9.453  0.00  0.00     0.026 A 
HETATM   18  C   UNK N   1      34.319  10.799  10.536  0.00  0.00     0.035 A 
HETATM   19  C   UNK N   1      32.485  15.320   8.631  0.00  0.00     0.091 C 
ENDROOT
BRANCH  12  20
HETATM   20  C   UNK N   1      35.814  12.884  14.038  0.00  0.00    -0.009 A 
HETATM   21  C   UNK N   1      34.840  12.991  15.047  0.00  0.00     0.014 A 
HETATM   22  C   UNK N   1      34.960  12.275  16.243  0.00  0.00     0.001 A 
HETATM   23  C   UNK N   1      36.057  11.439  16.449  0.00  0.00     0.000 A 
HETATM   24  C   UNK N   1      37.041  11.328  15.465  0.00  0.00     0.001 A 
HETATM   25  C   UNK N   1      36.922  12.047  14.273  0.00  0.00     0.014 A 
ENDBRANCH  12  20
TORSDOF 1
ENDMDL
MODEL 5
REMARK VINA RESULT:      -6.8      5.300      8.446
REMARK  1 active torsions:
REMARK  status: ('A' for Active; 'I' for Inactive)
REMARK    1  A    between atoms: C_12  and  C_17 
ROOT
HETATM    1 Cl   UNK N   1      26.847  20.407   4.126  0.00  0.00    -0.084 Cl
HETATM    2  N   UNK N   1      21.201  18.596   3.161  0.00  0.00    -0.286 N 
HETATM    3  N   UNK N   1      22.021  16.308   5.013  0.00  0.00    -0.381 N 
ATOM      4  HN  UNK N   1      21.942  15.316   5.238  1.00  0.00     0.160 HD
HETATM    5  N   UNK N   1      19.214  17.617   3.259  0.00  0.00    -0.286 N 
ATOM      6  HN  UNK N   1      18.453  17.012   3.572  1.00  0.00     0.188 HD
HETATM    7  N   UNK N   1      19.181  18.456   2.236  0.00  0.00    -0.287 N 
ATOM      8  HN  UNK N   1      18.395  18.614   1.606  1.00  0.00     0.188 HD
HETATM    9  C   UNK N   1      22.556  18.987   3.469  0.00  0.00     0.054 A 
HETATM   10  C   UNK N   1      23.484  18.145   4.183  0.00  0.00     0.020 A 
HETATM   11  C   UNK N   1      20.439  17.710   3.811  0.00  0.00     0.122 A 
HETATM   12  C   UNK N   1      23.205  16.731   4.700  0.00  0.00     0.051 C 
HETATM   13  C   UNK N   1      20.812  17.073   5.080  0.00  0.00     0.198 C 
HETATM   14  C   UNK N   1      20.382  19.061   2.185  0.00  0.00     0.100 A 
HETATM   15  C   UNK N   1      23.005  20.230   2.983  0.00  0.00     0.033 A 
HETATM   16  C   UNK N   1      24.792  18.634   4.356  0.00  0.00     0.040 A 
HETATM   17  C   UNK N   1      24.305  20.674   3.189  0.00  0.00     0.026 A 
HETATM   18  C   UNK N   1      25.200  19.874   3.879  0.00  0.00     0.035 A 
HETATM   19  C   UNK N   1      20.723  20.099   1.169  0.00  0.00     0.091 C 
ENDROOT
BRANCH  12  20
HETATM   20  C   UNK N   1      24.332  15.761   4.965  0.00  0.00    -0.009 A 
HETATM   21  C   UNK N   1      25.053  15.132   3.933  0.00  0.00     0.014 A 
HETATM   22  C   UNK N   1      26.117  14.271   4.219  0.00  0.00     0.001 A 
HETATM   23  C   UNK N   1      26.481  14.026   5.543  0.00  0.00     0.000 A 
HETATM   24  C   UNK N   1      25.771  14.631   6.582  0.00  0.00     0.001 A 
HETATM   25  C   UNK N   1      24.705  15.487   6.295  0.00  0.00     0.014 A 
ENDBRANCH  12  20
TORSDOF 1
ENDMDL
MODEL 6
REMARK VINA RESULT:      -6.7      2.322      6.535
REMARK  1 active torsions:
REMARK  status: ('A' for Active; 'I' for Inactive)
REMARK    1  A    between atoms: C_12  and  C_17 
ROOT
HETATM    1 Cl   UNK N   1      33.438  15.804   3.125  0.00  0.00    -0.084 Cl
HETATM    2  N   UNK N   1      29.430  17.866   7.098  0.00  0.00    -0.286 N 
HETATM    3  N   UNK N   1      31.641  17.198   9.101  0.00  0.00    -0.381 N 
ATOM      4  HN  UNK N   1      31.880  16.854  10.031  1.00  0.00     0.160 HD
HETATM    5  N   UNK N   1      28.402  18.661   8.894  0.00  0.00    -0.286 N 
ATOM      6  HN  UNK N   1      28.249  19.001   9.844  1.00  0.00     0.188 HD
HETATM    7  N   UNK N   1      27.486  18.540   7.946  0.00  0.00    -0.287 N 
ATOM      8  HN  UNK N   1      26.494  18.761   8.029  1.00  0.00     0.188 HD
HETATM    9  C   UNK N   1      30.458  17.392   6.200  0.00  0.00     0.054 A 
HETATM   10  C   UNK N   1      31.679  16.769   6.647  0.00  0.00     0.020 A 
HETATM   11  C   UNK N   1      29.573  18.251   8.371  0.00  0.00     0.122 A 
HETATM   12  C   UNK N   1      32.072  16.495   8.101  0.00  0.00     0.051 C 
HETATM   13  C   UNK N   1      30.866  18.403   9.048  0.00  0.00     0.198 C 
HETATM   14  C   UNK N   1      28.114  18.072   6.851  0.00  0.00     0.100 A 
HETATM   15  C   UNK N   1      30.212  17.486   4.817  0.00  0.00     0.033 A 
HETATM   16  C   UNK N   1      32.560  16.300   5.655  0.00  0.00     0.040 A 
HETATM   17  C   UNK N   1      31.118  17.016   3.875  0.00  0.00     0.026 A 
HETATM   18  C   UNK N   1      32.296  16.423   4.296  0.00  0.00     0.035 A 
HETATM   19  C   UNK N   1      27.409  17.824   5.559  0.00  0.00     0.091 C 
ENDROOT
BRANCH  12  20
HETATM   20  C   UNK N   1      33.079  15.424   8.448  0.00  0.00    -0.009 A 
HETATM   21  C   UNK N   1      32.744  14.059   8.521  0.00  0.00     0.014 A 
HETATM   22  C   UNK N   1      33.714  13.093   8.805  0.00  0.00     0.001 A 
HETATM   23  C   UNK N   1      35.038  13.475   9.020  0.00  0.00     0.000 A 
HETATM   24  C   UNK N   1      35.389  14.825   8.965  0.00  0.00     0.001 A 
HETATM   25  C   UNK N   1      34.418  15.790   8.685  0.00  0.00     0.014 A 
ENDBRANCH  12  20
TORSDOF 1
ENDMDL
MODEL 7
REMARK VINA RESULT:      -6.6     11.277     13.520
REMARK  1 active torsions:
REMARK  status: ('A' for Active; 'I' for Inactive)
REMARK    1  A    between atoms: C_12  and  C_17 
ROOT
HETATM    1 Cl   UNK N   1      36.671   9.004  17.423  0.00  0.00    -0.084 Cl
HETATM    2  N   UNK N   1      35.397  11.335  12.034  0.00  0.00    -0.286 N 
HETATM    3  N   UNK N   1      36.702  13.828  13.226  0.00  0.00    -0.381 N 
ATOM      4  HN  UNK N   1      36.707  14.846  13.290  1.00  0.00     0.160 HD
HETATM    5  N   UNK N   1      35.303  12.578  10.201  0.00  0.00    -0.286 N 
ATOM      6  HN  UNK N   1      35.485  13.335   9.541  1.00  0.00     0.188 HD
HETATM    7  N   UNK N   1      34.486  11.553  10.015  0.00  0.00    -0.287 N 
ATOM      8  HN  UNK N   1      33.913  11.376   9.190  1.00  0.00     0.188 HD
HETATM    9  C   UNK N   1      35.769  10.833  13.337  0.00  0.00     0.054 A 
HETATM   10  C   UNK N   1      36.273  11.671  14.396  0.00  0.00     0.020 A 
HETATM   11  C   UNK N   1      35.849  12.436  11.424  0.00  0.00     0.122 A 
HETATM   12  C   UNK N   1      36.474  13.187  14.330  0.00  0.00     0.051 C 
HETATM   13  C   UNK N   1      36.946  13.270  11.929  0.00  0.00     0.198 C 
HETATM   14  C   UNK N   1      34.554  10.791  11.122  0.00  0.00     0.100 A 
HETATM   15  C   UNK N   1      35.558   9.465  13.596  0.00  0.00     0.033 A 
HETATM   16  C   UNK N   1      36.534  11.053  15.634  0.00  0.00     0.040 A 
HETATM   17  C   UNK N   1      35.841   8.899  14.832  0.00  0.00     0.026 A 
HETATM   18  C   UNK N   1      36.332   9.696  15.853  0.00  0.00     0.035 A 
HETATM   19  C   UNK N   1      33.783   9.523  11.280  0.00  0.00     0.091 C 
ENDROOT
BRANCH  12  20
HETATM   20  C   UNK N   1      36.511  14.025  15.586  0.00  0.00    -0.009 A 
HETATM   21  C   UNK N   1      37.346  15.149  15.727  0.00  0.00     0.014 A 
HETATM   22  C   UNK N   1      37.321  15.924  16.891  0.00  0.00     0.001 A 
HETATM   23  C   UNK N   1      36.458  15.589  17.934  0.00  0.00     0.000 A 
HETATM   24  C   UNK N   1      35.629  14.471  17.819  0.00  0.00     0.001 A 
HETATM   25  C   UNK N   1      35.659  13.695  16.657  0.00  0.00     0.014 A 
ENDBRANCH  12  20
TORSDOF 1
ENDMDL
MODEL 8
REMARK VINA RESULT:      -6.6     10.745     12.598
REMARK  1 active torsions:
REMARK  status: ('A' for Active; 'I' for Inactive)
REMARK    1  A    between atoms: C_12  and  C_17 
ROOT
HETATM    1 Cl   UNK N   1      26.723  21.459  -9.234  0.00  0.00    -0.084 Cl
HETATM    2  N   UNK N   1      30.576  21.953  -4.651  0.00  0.00    -0.286 N 
HETATM    3  N   UNK N   1      28.540  24.003  -3.656  0.00  0.00    -0.381 N 
ATOM      4  HN  UNK N   1      28.378  24.888  -3.174  1.00  0.00     0.160 HD
HETATM    5  N   UNK N   1      31.559  22.373  -2.708  0.00  0.00    -0.286 N 
ATOM      6  HN  UNK N   1      31.701  22.704  -1.753  1.00  0.00     0.188 HD
HETATM    7  N   UNK N   1      32.448  21.750  -3.465  0.00  0.00    -0.287 N 
ATOM      8  HN  UNK N   1      33.407  21.517  -3.206  1.00  0.00     0.188 HD
HETATM    9  C   UNK N   1      29.586  21.862  -5.698  0.00  0.00     0.054 A 
HETATM   10  C   UNK N   1      28.470  22.767  -5.817  0.00  0.00     0.020 A 
HETATM   11  C   UNK N   1      30.431  22.490  -3.434  0.00  0.00     0.122 A 
HETATM   12  C   UNK N   1      28.165  23.950  -4.895  0.00  0.00     0.051 C 
HETATM   13  C   UNK N   1      29.153  22.962  -2.886  0.00  0.00     0.198 C 
HETATM   14  C   UNK N   1      31.847  21.482  -4.638  0.00  0.00     0.100 A 
HETATM   15  C   UNK N   1      29.770  20.878  -6.688  0.00  0.00     0.033 A 
HETATM   16  C   UNK N   1      27.620  22.595  -6.926  0.00  0.00     0.040 A 
HETATM   17  C   UNK N   1      28.897  20.741  -7.760  0.00  0.00     0.026 A 
HETATM   18  C   UNK N   1      27.818  21.601  -7.877  0.00  0.00     0.035 A 
HETATM   19  C   UNK N   1      32.531  20.760  -5.751  0.00  0.00     0.091 C 
ENDROOT
BRANCH  12  20
HETATM   20  C   UNK N   1      27.314  25.106  -5.365  0.00  0.00    -0.009 A 
HETATM   21  C   UNK N   1      27.830  26.171  -6.127  0.00  0.00     0.014 A 
HETATM   22  C   UNK N   1      27.001  27.203  -6.578  0.00  0.00     0.001 A 
HETATM   23  C   UNK N   1      25.639  27.186  -6.277  0.00  0.00     0.000 A 
HETATM   24  C   UNK N   1      25.109  26.145  -5.513  0.00  0.00     0.001 A 
HETATM   25  C   UNK N   1      25.940  25.117  -5.059  0.00  0.00     0.014 A 
ENDBRANCH  12  20
TORSDOF 1
ENDMDL
MODEL 9
REMARK VINA RESULT:      -6.5      7.101      8.704
REMARK  1 active torsions:
REMARK  status: ('A' for Active; 'I' for Inactive)
REMARK    1  A    between atoms: C_12  and  C_17 
ROOT
HETATM    1 Cl   UNK N   1      19.897  16.434   6.147  0.00  0.00    -0.084 Cl
HETATM    2  N   UNK N   1      22.586  12.923  10.214  0.00  0.00    -0.286 N 
HETATM    3  N   UNK N   1      24.940  13.130   8.276  0.00  0.00    -0.381 N 
ATOM      4  HN  UNK N   1      25.739  12.665   7.845  1.00  0.00     0.160 HD
HETATM    5  N   UNK N   1      24.041  11.800  11.454  0.00  0.00    -0.286 N 
ATOM      6  HN  UNK N   1      24.927  11.431  11.801  1.00  0.00     0.188 HD
HETATM    7  N   UNK N   1      22.839  11.553  11.949  0.00  0.00    -0.287 N 
ATOM      8  HN  UNK N   1      22.623  10.952  12.744  1.00  0.00     0.188 HD
HETATM    9  C   UNK N   1      22.019  13.796   9.212  0.00  0.00     0.054 A 
HETATM   10  C   UNK N   1      22.662  14.083   7.953  0.00  0.00     0.020 A 
HETATM   11  C   UNK N   1      23.876  12.630  10.405  0.00  0.00     0.122 A 
HETATM   12  C   UNK N   1      23.999  13.515   7.472  0.00  0.00     0.051 C 
HETATM   13  C   UNK N   1      24.986  13.283   9.700  0.00  0.00     0.198 C 
HETATM   14  C   UNK N   1      21.957  12.247  11.206  0.00  0.00     0.100 A 
HETATM   15  C   UNK N   1      20.742  14.334   9.459  0.00  0.00     0.033 A 
HETATM   16  C   UNK N   1      21.961  14.903   7.048  0.00  0.00     0.040 A 
HETATM   17  C   UNK N   1      20.095  15.146   8.537  0.00  0.00     0.026 A 
HETATM   18  C   UNK N   1      20.708  15.432   7.329  0.00  0.00     0.035 A 
HETATM   19  C   UNK N   1      20.489  12.239  11.476  0.00  0.00     0.091 C 
ENDROOT
BRANCH  12  20
HETATM   20  C   UNK N   1      24.338  13.455   6.002  0.00  0.00    -0.009 A 
HETATM   21  C   UNK N   1      23.835  12.459   5.144  0.00  0.00     0.014 A 
HETATM   22  C   UNK N   1      24.139  12.462   3.779  0.00  0.00     0.001 A 
HETATM   23  C   UNK N   1      24.951  13.464   3.247  0.00  0.00     0.000 A 
HETATM   24  C   UNK N   1      25.470  14.454   4.083  0.00  0.00     0.001 A 
HETATM   25  C   UNK N   1      25.169  14.447   5.447  0.00  0.00     0.014 A 
ENDBRANCH  12  20
TORSDOF 1
ENDMDL
