MODEL 1
REMARK VINA RESULT:      -5.7      0.000      0.000
REMARK  5 active torsions:
REMARK  status: ('A' for Active; 'I' for Inactive)
REMARK    1  A    between atoms: N_2  and  C_7 
REMARK    2  A    between atoms: C_5  and  C_6 
REMARK    3  A    between atoms: C_5  and  C_8 
REMARK    4  A    between atoms: C_5  and  C_9 
REMARK    5  A    between atoms: C_6  and  C_7 
ROOT
HETATM    1  C   UNK N   1      32.365  17.341   7.819  0.00  0.00     0.070 C 
ENDROOT
BRANCH   1   2
HETATM    2  C   UNK N   1      32.462  16.651   6.459  0.00  0.00     0.046 C 
BRANCH   2   3
HETATM    3  C   UNK N   1      33.442  17.419   5.577  0.00  0.00     0.272 C 
BRANCH   3   4
HETATM    4  N   UNK N   1      33.028  17.389   4.184  0.00  0.00     0.080 N 
HETATM    5  C   UNK N   1      31.586  17.569   4.143  0.00  0.00     0.309 C 
HETATM    6  C   UNK N   1      33.288  16.044   3.701  0.00  0.00     0.309 C 
ENDBRANCH   3   4
ENDBRANCH   2   3
ENDBRANCH   1   2
BRANCH   1   7
HETATM    7  C   UNK N   1      33.287  16.649   8.818  0.00  0.00    -0.048 A 
HETATM    8  C   UNK N   1      34.475  17.231   9.291  0.00  0.00     0.009 A 
HETATM    9  C   UNK N   1      35.302  16.549  10.185  0.00  0.00     0.019 A 
HETATM   10  C   UNK N   1      34.950  15.274  10.626  0.00  0.00     0.011 A 
HETATM   11 Br   UNK N   1      36.085  14.344  11.841  0.00  0.00    -0.051 Br
HETATM   12  C   UNK N   1      33.771  14.680  10.170  0.00  0.00     0.019 A 
HETATM   13  C   UNK N   1      32.947  15.362   9.268  0.00  0.00     0.009 A 
ENDBRANCH   1   7
BRANCH   1  14
HETATM   14  C   UNK N   1      30.908  17.620   8.183  0.00  0.00     0.017 A 
HETATM   15  N   UNK N   1      30.634  18.250   9.363  0.00  0.00    -0.369 N 
HETATM   16  C   UNK N   1      29.362  18.527   9.757  0.00  0.00     0.088 A 
ATOM     17  HN  UNK N   1      31.409  18.521   9.969  1.00  0.00     0.165 HD
HETATM   18  C   UNK N   1      28.283  18.156   8.955  0.00  0.00     0.017 A 
HETATM   19  C   UNK N   1      28.526  17.503   7.750  0.00  0.00     0.003 A 
HETATM   20  C   UNK N   1      29.837  17.237   7.361  0.00  0.00     0.025 A 
ENDBRANCH   1  14
TORSDOF 5
ENDMDL
MODEL 2
REMARK VINA RESULT:      -5.6      4.528      7.940
REMARK  5 active torsions:
REMARK  status: ('A' for Active; 'I' for Inactive)
REMARK    1  A    between atoms: N_2  and  C_7 
REMARK    2  A    between atoms: C_5  and  C_6 
REMARK    3  A    between atoms: C_5  and  C_8 
REMARK    4  A    between atoms: C_5  and  C_9 
REMARK    5  A    between atoms: C_6  and  C_7 
ROOT
HETATM    1  C   UNK N   1      29.426  17.859   5.573  0.00  0.00     0.070 C 
ENDROOT
BRANCH   1   2
HETATM    2  C   UNK N   1      29.006  16.719   6.500  0.00  0.00     0.046 C 
BRANCH   2   3
HETATM    3  C   UNK N   1      28.736  17.279   7.893  0.00  0.00     0.272 C 
BRANCH   3   4
HETATM    4  N   UNK N   1      29.925  17.908   8.445  0.00  0.00     0.080 N 
HETATM    5  C   UNK N   1      30.871  16.856   8.780  0.00  0.00     0.309 C 
HETATM    6  C   UNK N   1      29.528  18.518   9.702  0.00  0.00     0.309 C 
ENDBRANCH   3   4
ENDBRANCH   2   3
ENDBRANCH   1   2
BRANCH   1   7
HETATM    7  C   UNK N   1      28.197  18.458   4.898  0.00  0.00    -0.048 A 
HETATM    8  C   UNK N   1      27.149  17.674   4.387  0.00  0.00     0.009 A 
HETATM    9  C   UNK N   1      26.054  18.263   3.752  0.00  0.00     0.019 A 
HETATM   10  C   UNK N   1      25.989  19.650   3.623  0.00  0.00     0.011 A 
HETATM   11 Br   UNK N   1      24.497  20.452   2.750  0.00  0.00    -0.051 Br
HETATM   12  C   UNK N   1      27.019  20.447   4.127  0.00  0.00     0.019 A 
HETATM   13  C   UNK N   1      28.119  19.853   4.757  0.00  0.00     0.009 A 
ENDBRANCH   1   7
BRANCH   1  14
HETATM   14  C   UNK N   1      30.644  17.460   4.741  0.00  0.00     0.017 A 
HETATM   15  N   UNK N   1      30.459  17.103   3.436  0.00  0.00    -0.369 N 
HETATM   16  C   UNK N   1      31.493  16.732   2.634  0.00  0.00     0.088 A 
ATOM     17  HN  UNK N   1      29.515  17.115   3.050  1.00  0.00     0.165 HD
HETATM   18  C   UNK N   1      32.793  16.693   3.138  0.00  0.00     0.017 A 
HETATM   19  C   UNK N   1      33.016  17.042   4.468  0.00  0.00     0.003 A 
HETATM   20  C   UNK N   1      31.943  17.429   5.269  0.00  0.00     0.025 A 
ENDBRANCH   1  14
TORSDOF 5
ENDMDL
MODEL 3
REMARK VINA RESULT:      -5.5      3.352      4.831
REMARK  5 active torsions:
REMARK  status: ('A' for Active; 'I' for Inactive)
REMARK    1  A    between atoms: N_2  and  C_7 
REMARK    2  A    between atoms: C_5  and  C_6 
REMARK    3  A    between atoms: C_5  and  C_8 
REMARK    4  A    between atoms: C_5  and  C_9 
REMARK    5  A    between atoms: C_6  and  C_7 
ROOT
HETATM    1  C   UNK N   1      28.474  17.541   6.337  0.00  0.00     0.070 C 
ENDROOT
BRANCH   1   2
HETATM    2  C   UNK N   1      27.590  16.646   7.205  0.00  0.00     0.046 C 
BRANCH   2   3
HETATM    3  C   UNK N   1      26.810  15.690   6.307  0.00  0.00     0.272 C 
BRANCH   3   4
HETATM    4  N   UNK N   1      27.481  15.504   5.031  0.00  0.00     0.080 N 
HETATM    5  C   UNK N   1      26.481  15.617   3.981  0.00  0.00     0.309 C 
HETATM    6  C   UNK N   1      27.951  14.130   5.004  0.00  0.00     0.309 C 
ENDBRANCH   3   4
ENDBRANCH   2   3
ENDBRANCH   1   2
BRANCH   1   7
HETATM    7  C   UNK N   1      29.906  17.518   6.860  0.00  0.00    -0.048 A 
HETATM    8  C   UNK N   1      30.240  17.848   8.184  0.00  0.00     0.009 A 
HETATM    9  C   UNK N   1      31.569  17.838   8.614  0.00  0.00     0.019 A 
HETATM   10  C   UNK N   1      32.585  17.493   7.724  0.00  0.00     0.011 A 
HETATM   11 Br   UNK N   1      34.398  17.488   8.311  0.00  0.00    -0.051 Br
HETATM   12  C   UNK N   1      32.273  17.159   6.405  0.00  0.00     0.019 A 
HETATM   13  C   UNK N   1      30.941  17.175   5.975  0.00  0.00     0.009 A 
ENDBRANCH   1   7
BRANCH   1  14
HETATM   14  C   UNK N   1      27.782  18.872   6.049  0.00  0.00     0.017 A 
HETATM   15  N   UNK N   1      27.319  19.612   7.099  0.00  0.00    -0.369 N 
HETATM   16  C   UNK N   1      26.689  20.805   6.921  0.00  0.00     0.088 A 
ATOM     17  HN  UNK N   1      27.450  19.260   8.047  1.00  0.00     0.165 HD
HETATM   18  C   UNK N   1      26.483  21.305   5.636  0.00  0.00     0.017 A 
HETATM   19  C   UNK N   1      26.934  20.570   4.542  0.00  0.00     0.003 A 
HETATM   20  C   UNK N   1      27.586  19.356   4.747  0.00  0.00     0.025 A 
ENDBRANCH   1  14
TORSDOF 5
ENDMDL
MODEL 4
REMARK VINA RESULT:      -5.5     17.727     19.705
REMARK  5 active torsions:
REMARK  status: ('A' for Active; 'I' for Inactive)
REMARK    1  A    between atoms: N_2  and  C_7 
REMARK    2  A    between atoms: C_5  and  C_6 
REMARK    3  A    between atoms: C_5  and  C_8 
REMARK    4  A    between atoms: C_5  and  C_9 
REMARK    5  A    between atoms: C_6  and  C_7 
ROOT
HETATM    1  C   UNK N   1      25.553  25.625  -8.112  0.00  0.00     0.070 C 
ENDROOT
BRANCH   1   2
HETATM    2  C   UNK N   1      26.160  26.159  -9.409  0.00  0.00     0.046 C 
BRANCH   2   3
HETATM    3  C   UNK N   1      25.081  26.205 -10.486  0.00  0.00     0.272 C 
BRANCH   3   4
HETATM    4  N   UNK N   1      25.120  25.014 -11.320  0.00  0.00     0.080 N 
HETATM    5  C   UNK N   1      26.510  24.755 -11.660  0.00  0.00     0.309 C 
HETATM    6  C   UNK N   1      24.450  25.354 -12.562  0.00  0.00     0.309 C 
ENDBRANCH   3   4
ENDBRANCH   2   3
ENDBRANCH   1   2
BRANCH   1   7
HETATM    7  C   UNK N   1      25.840  26.593  -6.969  0.00  0.00    -0.048 A 
HETATM    8  C   UNK N   1      25.000  26.724  -5.851  0.00  0.00     0.009 A 
HETATM    9  C   UNK N   1      25.288  27.642  -4.839  0.00  0.00     0.019 A 
HETATM   10  C   UNK N   1      26.427  28.442  -4.929  0.00  0.00     0.011 A 
HETATM   11 Br   UNK N   1      26.813  29.700  -3.551  0.00  0.00    -0.051 Br
HETATM   12  C   UNK N   1      27.276  28.324  -6.031  0.00  0.00     0.019 A 
HETATM   13  C   UNK N   1      26.982  27.408  -7.047  0.00  0.00     0.009 A 
ENDBRANCH   1   7
BRANCH   1  14
HETATM   14  C   UNK N   1      25.846  24.135  -7.949  0.00  0.00     0.017 A 
HETATM   15  N   UNK N   1      24.853  23.237  -8.220  0.00  0.00    -0.369 N 
HETATM   16  C   UNK N   1      25.037  21.895  -8.094  0.00  0.00     0.088 A 
ATOM     17  HN  UNK N   1      23.944  23.584  -8.527  1.00  0.00     0.165 HD
HETATM   18  C   UNK N   1      26.265  21.393  -7.663  0.00  0.00     0.017 A 
HETATM   19  C   UNK N   1      27.296  22.281  -7.369  0.00  0.00     0.003 A 
HETATM   20  C   UNK N   1      27.089  23.652  -7.515  0.00  0.00     0.025 A 
ENDBRANCH   1  14
TORSDOF 5
ENDMDL
MODEL 5
REMARK VINA RESULT:      -5.4      4.677      7.020
REMARK  5 active torsions:
REMARK  status: ('A' for Active; 'I' for Inactive)
REMARK    1  A    between atoms: N_2  and  C_7 
REMARK    2  A    between atoms: C_5  and  C_6 
REMARK    3  A    between atoms: C_5  and  C_8 
REMARK    4  A    between atoms: C_5  and  C_9 
REMARK    5  A    between atoms: C_6  and  C_7 
ROOT
HETATM    1  C   UNK N   1      28.817  17.447   5.495  0.00  0.00     0.070 C 
ENDROOT
BRANCH   1   2
HETATM    2  C   UNK N   1      30.126  17.587   4.720  0.00  0.00     0.046 C 
BRANCH   2   3
HETATM    3  C   UNK N   1      30.292  16.385   3.796  0.00  0.00     0.272 C 
BRANCH   3   4
HETATM    4  N   UNK N   1      31.693  16.022   3.653  0.00  0.00     0.080 N 
HETATM    5  C   UNK N   1      32.109  15.358   4.878  0.00  0.00     0.309 C 
HETATM    6  C   UNK N   1      32.440  17.266   3.586  0.00  0.00     0.309 C 
ENDBRANCH   3   4
ENDBRANCH   2   3
ENDBRANCH   1   2
BRANCH   1   7
HETATM    7  C   UNK N   1      27.719  18.252   4.808  0.00  0.00    -0.048 A 
HETATM    8  C   UNK N   1      27.816  19.635   4.579  0.00  0.00     0.009 A 
HETATM    9  C   UNK N   1      26.775  20.337   3.969  0.00  0.00     0.019 A 
HETATM   10  C   UNK N   1      25.620  19.664   3.573  0.00  0.00     0.011 A 
HETATM   11 Br   UNK N   1      24.197  20.626   2.748  0.00  0.00    -0.051 Br
HETATM   12  C   UNK N   1      25.506  18.289   3.789  0.00  0.00     0.019 A 
HETATM   13  C   UNK N   1      26.548  17.588   4.407  0.00  0.00     0.009 A 
ENDBRANCH   1   7
BRANCH   1  14
HETATM   14  C   UNK N   1      29.057  17.599   6.996  0.00  0.00     0.017 A 
HETATM   15  N   UNK N   1      27.986  17.822   7.813  0.00  0.00    -0.369 N 
HETATM   16  C   UNK N   1      28.121  17.973   9.158  0.00  0.00     0.088 A 
ATOM     17  HN  UNK N   1      27.054  17.878   7.402  1.00  0.00     0.165 HD
HETATM   18  C   UNK N   1      29.384  17.915   9.747  0.00  0.00     0.017 A 
HETATM   19  C   UNK N   1      30.499  17.699   8.942  0.00  0.00     0.003 A 
HETATM   20  C   UNK N   1      30.337  17.538   7.567  0.00  0.00     0.025 A 
ENDBRANCH   1  14
TORSDOF 5
ENDMDL
MODEL 6
REMARK VINA RESULT:      -5.4     14.471     17.676
REMARK  5 active torsions:
REMARK  status: ('A' for Active; 'I' for Inactive)
REMARK    1  A    between atoms: N_2  and  C_7 
REMARK    2  A    between atoms: C_5  and  C_6 
REMARK    3  A    between atoms: C_5  and  C_8 
REMARK    4  A    between atoms: C_5  and  C_9 
REMARK    5  A    between atoms: C_6  and  C_7 
ROOT
HETATM    1  C   UNK N   1      26.032  25.970  -5.783  0.00  0.00     0.070 C 
ENDROOT
BRANCH   1   2
HETATM    2  C   UNK N   1      26.347  27.464  -5.716  0.00  0.00     0.046 C 
BRANCH   2   3
HETATM    3  C   UNK N   1      25.758  28.043  -4.434  0.00  0.00     0.272 C 
BRANCH   3   4
HETATM    4  N   UNK N   1      26.757  28.790  -3.687  0.00  0.00     0.080 N 
HETATM    5  C   UNK N   1      26.334  30.180  -3.644  0.00  0.00     0.309 C 
HETATM    6  C   UNK N   1      27.977  28.756  -4.476  0.00  0.00     0.309 C 
ENDBRANCH   3   4
ENDBRANCH   2   3
ENDBRANCH   1   2
BRANCH   1   7
HETATM    7  C   UNK N   1      27.004  25.196  -4.898  0.00  0.00    -0.048 A 
HETATM    8  C   UNK N   1      26.608  24.545  -3.718  0.00  0.00     0.009 A 
HETATM    9  C   UNK N   1      27.537  23.869  -2.924  0.00  0.00     0.019 A 
HETATM   10  C   UNK N   1      28.878  23.830  -3.302  0.00  0.00     0.011 A 
HETATM   11 Br   UNK N   1      30.145  22.914  -2.213  0.00  0.00    -0.051 Br
HETATM   12  C   UNK N   1      29.290  24.468  -4.474  0.00  0.00     0.019 A 
HETATM   13  C   UNK N   1      28.359  25.150  -5.265  0.00  0.00     0.009 A 
ENDBRANCH   1   7
BRANCH   1  14
HETATM   14  C   UNK N   1      25.790  25.531  -7.226  0.00  0.00     0.017 A 
HETATM   15  N   UNK N   1      25.431  24.236  -7.467  0.00  0.00    -0.369 N 
HETATM   16  C   UNK N   1      25.203  23.770  -8.725  0.00  0.00     0.088 A 
ATOM     17  HN  UNK N   1      25.330  23.596  -6.678  1.00  0.00     0.165 HD
HETATM   18  C   UNK N   1      25.346  24.618  -9.823  0.00  0.00     0.017 A 
HETATM   19  C   UNK N   1      25.721  25.942  -9.614  0.00  0.00     0.003 A 
HETATM   20  C   UNK N   1      25.940  26.401  -8.316  0.00  0.00     0.025 A 
ENDBRANCH   1  14
TORSDOF 5
ENDMDL
MODEL 7
REMARK VINA RESULT:      -5.4     13.536     16.810
REMARK  5 active torsions:
REMARK  status: ('A' for Active; 'I' for Inactive)
REMARK    1  A    between atoms: N_2  and  C_7 
REMARK    2  A    between atoms: C_5  and  C_6 
REMARK    3  A    between atoms: C_5  and  C_8 
REMARK    4  A    between atoms: C_5  and  C_9 
REMARK    5  A    between atoms: C_6  and  C_7 
ROOT
HETATM    1  C   UNK N   1      26.992  24.677  -4.478  0.00  0.00     0.070 C 
ENDROOT
BRANCH   1   2
HETATM    2  C   UNK N   1      26.838  24.320  -5.956  0.00  0.00     0.046 C 
BRANCH   2   3
HETATM    3  C   UNK N   1      25.835  23.179  -6.093  0.00  0.00     0.272 C 
BRANCH   3   4
HETATM    4  N   UNK N   1      25.877  22.600  -7.427  0.00  0.00     0.080 N 
HETATM    5  C   UNK N   1      25.477  23.631  -8.372  0.00  0.00     0.309 C 
HETATM    6  C   UNK N   1      24.844  21.580  -7.471  0.00  0.00     0.309 C 
ENDBRANCH   3   4
ENDBRANCH   2   3
ENDBRANCH   1   2
BRANCH   1   7
HETATM    7  C   UNK N   1      26.854  26.184  -4.293  0.00  0.00    -0.048 A 
HETATM    8  C   UNK N   1      25.630  26.860  -4.421  0.00  0.00     0.009 A 
HETATM    9  C   UNK N   1      25.554  28.246  -4.268  0.00  0.00     0.019 A 
HETATM   10  C   UNK N   1      26.706  28.978  -3.979  0.00  0.00     0.011 A 
HETATM   11 Br   UNK N   1      26.601  30.870  -3.778  0.00  0.00    -0.051 Br
HETATM   12  C   UNK N   1      27.932  28.324  -3.844  0.00  0.00     0.019 A 
HETATM   13  C   UNK N   1      28.006  26.936  -4.004  0.00  0.00     0.009 A 
ENDBRANCH   1   7
BRANCH   1  14
HETATM   14  C   UNK N   1      28.174  23.931  -3.861  0.00  0.00     0.017 A 
HETATM   15  N   UNK N   1      29.209  23.557  -4.668  0.00  0.00    -0.369 N 
HETATM   16  C   UNK N   1      30.292  22.886  -4.192  0.00  0.00     0.088 A 
ATOM     17  HN  UNK N   1      29.169  23.787  -5.662  1.00  0.00     0.165 HD
HETATM   18  C   UNK N   1      30.368  22.545  -2.842  0.00  0.00     0.017 A 
HETATM   19  C   UNK N   1      29.325  22.903  -1.992  0.00  0.00     0.003 A 
HETATM   20  C   UNK N   1      28.229  23.599  -2.499  0.00  0.00     0.025 A 
ENDBRANCH   1  14
TORSDOF 5
ENDMDL
MODEL 8
REMARK VINA RESULT:      -5.3      6.242      9.266
REMARK  5 active torsions:
REMARK  status: ('A' for Active; 'I' for Inactive)
REMARK    1  A    between atoms: N_2  and  C_7 
REMARK    2  A    between atoms: C_5  and  C_6 
REMARK    3  A    between atoms: C_5  and  C_8 
REMARK    4  A    between atoms: C_5  and  C_9 
REMARK    5  A    between atoms: C_6  and  C_7 
ROOT
HETATM    1  C   UNK N   1      36.414  12.830  14.223  0.00  0.00     0.070 C 
ENDROOT
BRANCH   1   2
HETATM    2  C   UNK N   1      35.233  13.163  13.312  0.00  0.00     0.046 C 
BRANCH   2   3
HETATM    3  C   UNK N   1      35.751  13.847  12.051  0.00  0.00     0.272 C 
BRANCH   3   4
HETATM    4  N   UNK N   1      34.776  14.790  11.526  0.00  0.00     0.080 N 
HETATM    5  C   UNK N   1      34.370  14.325  10.210  0.00  0.00     0.309 C 
HETATM    6  C   UNK N   1      35.478  16.044  11.321  0.00  0.00     0.309 C 
ENDBRANCH   3   4
ENDBRANCH   2   3
ENDBRANCH   1   2
BRANCH   1   7
HETATM    7  C   UNK N   1      36.515  11.319  14.408  0.00  0.00    -0.048 A 
HETATM    8  C   UNK N   1      35.397  10.469  14.367  0.00  0.00     0.009 A 
HETATM    9  C   UNK N   1      35.533   9.094  14.568  0.00  0.00     0.019 A 
HETATM   10  C   UNK N   1      36.792   8.547  14.810  0.00  0.00     0.011 A 
HETATM   11 Br   UNK N   1      36.973   6.671  15.091  0.00  0.00    -0.051 Br
HETATM   12  C   UNK N   1      37.916   9.375  14.852  0.00  0.00     0.019 A 
HETATM   13  C   UNK N   1      37.777  10.754  14.656  0.00  0.00     0.009 A 
ENDBRANCH   1   7
BRANCH   1  14
HETATM   14  C   UNK N   1      36.442  13.757  15.437  0.00  0.00     0.017 A 
HETATM   15  N   UNK N   1      37.267  14.844  15.414  0.00  0.00    -0.369 N 
HETATM   16  C   UNK N   1      37.350  15.711  16.459  0.00  0.00     0.088 A 
ATOM     17  HN  UNK N   1      37.842  15.011  14.587  1.00  0.00     0.165 HD
HETATM   18  C   UNK N   1      36.587  15.501  17.607  0.00  0.00     0.017 A 
HETATM   19  C   UNK N   1      35.742  14.396  17.667  0.00  0.00     0.003 A 
HETATM   20  C   UNK N   1      35.665  13.526  16.582  0.00  0.00     0.025 A 
ENDBRANCH   1  14
TORSDOF 5
ENDMDL
MODEL 9
REMARK VINA RESULT:      -5.3      2.734      4.683
REMARK  5 active torsions:
REMARK  status: ('A' for Active; 'I' for Inactive)
REMARK    1  A    between atoms: N_2  and  C_7 
REMARK    2  A    between atoms: C_5  and  C_6 
REMARK    3  A    between atoms: C_5  and  C_8 
REMARK    4  A    between atoms: C_5  and  C_9 
REMARK    5  A    between atoms: C_6  and  C_7 
ROOT
HETATM    1  C   UNK N   1      32.249  16.891   7.924  0.00  0.00     0.070 C 
ENDROOT
BRANCH   1   2
HETATM    2  C   UNK N   1      33.245  17.980   8.321  0.00  0.00     0.046 C 
BRANCH   2   3
HETATM    3  C   UNK N   1      34.609  17.345   8.572  0.00  0.00     0.272 C 
BRANCH   3   4
HETATM    4  N   UNK N   1      34.530  16.319   9.599  0.00  0.00     0.080 N 
HETATM    5  C   UNK N   1      35.290  16.781  10.749  0.00  0.00     0.309 C 
HETATM    6  C   UNK N   1      35.232  15.157   9.083  0.00  0.00     0.309 C 
ENDBRANCH   3   4
ENDBRANCH   2   3
ENDBRANCH   1   2
BRANCH   1   7
HETATM    7  C   UNK N   1      32.647  16.291   6.579  0.00  0.00    -0.048 A 
HETATM    8  C   UNK N   1      32.820  14.912   6.379  0.00  0.00     0.009 A 
HETATM    9  C   UNK N   1      33.210  14.409   5.137  0.00  0.00     0.019 A 
HETATM   10  C   UNK N   1      33.429  15.280   4.071  0.00  0.00     0.011 A 
HETATM   11 Br   UNK N   1      33.969  14.592   2.378  0.00  0.00    -0.051 Br
HETATM   12  C   UNK N   1      33.259  16.655   4.248  0.00  0.00     0.019 A 
HETATM   13  C   UNK N   1      32.874  17.157   5.496  0.00  0.00     0.009 A 
ENDBRANCH   1   7
BRANCH   1  14
HETATM   14  C   UNK N   1      30.814  17.354   8.165  0.00  0.00     0.017 A 
HETATM   15  N   UNK N   1      29.825  16.880   7.351  0.00  0.00    -0.369 N 
HETATM   16  C   UNK N   1      28.525  17.250   7.501  0.00  0.00     0.088 A 
ATOM     17  HN  UNK N   1      30.069  16.227   6.606  1.00  0.00     0.165 HD
HETATM   18  C   UNK N   1      28.163  18.152   8.502  0.00  0.00     0.017 A 
HETATM   19  C   UNK N   1      29.148  18.662   9.343  0.00  0.00     0.003 A 
HETATM   20  C   UNK N   1      30.473  18.262   9.178  0.00  0.00     0.025 A 
ENDBRANCH   1  14
TORSDOF 5
ENDMDL
