MODEL 1
REMARK VINA RESULT:      -7.0      0.000      0.000
REMARK  1 active torsions:
REMARK  status: ('A' for Active; 'I' for Inactive)
REMARK    1  A    between atoms: N_3  and  C_11 
ROOT
HETATM    1 Cl   UNK N   1      36.285  14.482   5.081  0.00  0.00    -0.084 Cl
HETATM    2  O   UNK N   1      30.950  16.736   6.198  0.00  0.00    -0.308 OA
HETATM    3  N   UNK N   1      31.908  16.930   9.058  0.00  0.00    -0.340 N 
ATOM      4  HN  UNK N   1      31.995  17.090  10.062  1.00  0.00     0.167 HD
HETATM    5  C   UNK N   1      32.908  16.275   8.573  0.00  0.00     0.117 C 
HETATM    6  C   UNK N   1      33.105  15.975   7.110  0.00  0.00     0.043 A 
HETATM    7  C   UNK N   1      32.176  16.204   6.061  0.00  0.00     0.090 A 
HETATM    8  C   UNK N   1      30.720  17.482   8.522  0.00  0.00     0.068 A 
HETATM    9  C   UNK N   1      34.364  15.450   6.750  0.00  0.00     0.042 A 
HETATM   10  C   UNK N   1      30.275  17.345   7.187  0.00  0.00     0.102 A 
HETATM   11  C   UNK N   1      32.528  15.861   4.744  0.00  0.00     0.040 A 
HETATM   12  C   UNK N   1      34.700  15.132   5.442  0.00  0.00     0.035 A 
HETATM   13  C   UNK N   1      33.775  15.328   4.432  0.00  0.00     0.026 A 
HETATM   14  C   UNK N   1      29.895  18.154   9.438  0.00  0.00     0.032 A 
HETATM   15  C   UNK N   1      29.029  17.882   6.827  0.00  0.00     0.039 A 
HETATM   16  C   UNK N   1      28.665  18.686   9.061  0.00  0.00     0.002 A 
HETATM   17  C   UNK N   1      28.228  18.545   7.751  0.00  0.00     0.003 A 
ENDROOT
BRANCH   5  18
HETATM   18  N   UNK N   1      33.883  15.794   9.519  0.00  0.00    -0.363 N 
HETATM   19  C   UNK N   1      34.936  16.677   9.993  0.00  0.00     0.154 C 
HETATM   20  C   UNK N   1      36.006  15.882  10.754  0.00  0.00     0.291 C 
HETATM   21  N   UNK N   1      36.144  14.549  10.162  0.00  0.00     0.087 N 
HETATM   22  C   UNK N   1      34.939  13.752  10.410  0.00  0.00     0.291 C 
HETATM   23  C   UNK N   1      37.235  13.875  10.840  0.00  0.00     0.310 C 
HETATM   24  C   UNK N   1      33.650  14.563  10.252  0.00  0.00     0.154 C 
ENDBRANCH   5  18
TORSDOF 1
ENDMDL
MODEL 2
REMARK VINA RESULT:      -6.9      8.534     11.765
REMARK  1 active torsions:
REMARK  status: ('A' for Active; 'I' for Inactive)
REMARK    1  A    between atoms: N_3  and  C_11 
ROOT
HETATM    1 Cl   UNK N   1      18.647  19.033   2.427  0.00  0.00    -0.084 Cl
HETATM    2  O   UNK N   1      24.329  20.264   3.422  0.00  0.00    -0.308 OA
HETATM    3  N   UNK N   1      24.256  17.891   5.292  0.00  0.00    -0.340 N 
ATOM      4  HN  UNK N   1      24.476  17.154   5.963  1.00  0.00     0.167 HD
HETATM    5  C   UNK N   1      22.996  17.953   5.023  0.00  0.00     0.117 C 
HETATM    6  C   UNK N   1      22.383  18.873   3.999  0.00  0.00     0.043 A 
HETATM    7  C   UNK N   1      23.038  19.918   3.295  0.00  0.00     0.090 A 
HETATM    8  C   UNK N   1      25.403  18.606   4.874  0.00  0.00     0.068 A 
HETATM    9  C   UNK N   1      21.028  18.636   3.685  0.00  0.00     0.042 A 
HETATM   10  C   UNK N   1      25.407  19.738   4.026  0.00  0.00     0.102 A 
HETATM   11  C   UNK N   1      22.308  20.683   2.369  0.00  0.00     0.040 A 
HETATM   12  C   UNK N   1      20.328  19.392   2.757  0.00  0.00     0.035 A 
HETATM   13  C   UNK N   1      20.967  20.429   2.100  0.00  0.00     0.026 A 
HETATM   14  C   UNK N   1      26.621  18.176   5.425  0.00  0.00     0.032 A 
HETATM   15  C   UNK N   1      26.623  20.389   3.768  0.00  0.00     0.039 A 
HETATM   16  C   UNK N   1      27.819  18.831   5.152  0.00  0.00     0.002 A 
HETATM   17  C   UNK N   1      27.819  19.946   4.324  0.00  0.00     0.003 A 
ENDROOT
BRANCH   5  18
HETATM   18  N   UNK N   1      22.132  17.080   5.778  0.00  0.00    -0.363 N 
HETATM   19  C   UNK N   1      21.155  17.639   6.699  0.00  0.00     0.154 C 
HETATM   20  C   UNK N   1      20.561  16.539   7.589  0.00  0.00     0.291 C 
HETATM   21  N   UNK N   1      21.578  15.521   7.862  0.00  0.00     0.087 N 
HETATM   22  C   UNK N   1      21.901  14.781   6.638  0.00  0.00     0.291 C 
HETATM   23  C   UNK N   1      21.008  14.562   8.789  0.00  0.00     0.310 C 
HETATM   24  C   UNK N   1      21.990  15.685   5.405  0.00  0.00     0.154 C 
ENDBRANCH   5  18
TORSDOF 1
ENDMDL
MODEL 3
REMARK VINA RESULT:      -6.8     14.280     16.297
REMARK  1 active torsions:
REMARK  status: ('A' for Active; 'I' for Inactive)
REMARK    1  A    between atoms: N_3  and  C_11 
ROOT
HETATM    1 Cl   UNK N   1      28.872  19.928  -8.316  0.00  0.00    -0.084 Cl
HETATM    2  O   UNK N   1      25.771  24.552  -6.369  0.00  0.00    -0.308 OA
HETATM    3  N   UNK N   1      28.204  25.154  -4.681  0.00  0.00    -0.340 N 
ATOM      4  HN  UNK N   1      28.881  25.553  -4.030  1.00  0.00     0.167 HD
HETATM    5  C   UNK N   1      28.578  24.008  -5.140  0.00  0.00     0.117 C 
HETATM    6  C   UNK N   1      27.834  23.223  -6.190  0.00  0.00     0.043 A 
HETATM    7  C   UNK N   1      26.548  23.514  -6.718  0.00  0.00     0.090 A 
HETATM    8  C   UNK N   1      27.076  25.987  -4.870  0.00  0.00     0.068 A 
HETATM    9  C   UNK N   1      28.513  22.109  -6.726  0.00  0.00     0.042 A 
HETATM   10  C   UNK N   1      25.932  25.666  -5.636  0.00  0.00     0.102 A 
HETATM   11  C   UNK N   1      26.002  22.668  -7.699  0.00  0.00     0.040 A 
HETATM   12  C   UNK N   1      27.963  21.294  -7.705  0.00  0.00     0.035 A 
HETATM   13  C   UNK N   1      26.696  21.567  -8.189  0.00  0.00     0.026 A 
HETATM   14  C   UNK N   1      27.091  27.199  -4.162  0.00  0.00     0.032 A 
HETATM   15  C   UNK N   1      24.855  26.566  -5.660  0.00  0.00     0.039 A 
HETATM   16  C   UNK N   1      26.016  28.084  -4.203  0.00  0.00     0.002 A 
HETATM   17  C   UNK N   1      24.891  27.763  -4.952  0.00  0.00     0.003 A 
ENDROOT
BRANCH   5  18
HETATM   18  N   UNK N   1      29.787  23.454  -4.584  0.00  0.00    -0.363 N 
HETATM   19  C   UNK N   1      31.082  23.958  -5.010  0.00  0.00     0.154 C 
HETATM   20  C   UNK N   1      32.208  23.040  -4.512  0.00  0.00     0.291 C 
HETATM   21  N   UNK N   1      31.742  21.652  -4.494  0.00  0.00     0.087 N 
HETATM   22  C   UNK N   1      30.721  21.469  -3.458  0.00  0.00     0.291 C 
HETATM   23  C   UNK N   1      32.865  20.813  -4.123  0.00  0.00     0.310 C 
HETATM   24  C   UNK N   1      29.737  22.640  -3.383  0.00  0.00     0.154 C 
ENDBRANCH   5  18
TORSDOF 1
ENDMDL
MODEL 4
REMARK VINA RESULT:      -6.7      8.698     11.640
REMARK  1 active torsions:
REMARK  status: ('A' for Active; 'I' for Inactive)
REMARK    1  A    between atoms: N_3  and  C_11 
ROOT
HETATM    1 Cl   UNK N   1      25.758  16.220   3.124  0.00  0.00    -0.084 Cl
HETATM    2  O   UNK N   1      24.464  13.691   8.293  0.00  0.00    -0.308 OA
HETATM    3  N   UNK N   1      21.651  14.673   7.784  0.00  0.00    -0.340 N 
ATOM      4  HN  UNK N   1      20.657  14.895   7.840  1.00  0.00     0.167 HD
HETATM    5  C   UNK N   1      22.235  15.265   6.797  0.00  0.00     0.117 C 
HETATM    6  C   UNK N   1      23.674  15.056   6.404  0.00  0.00     0.043 A 
HETATM    7  C   UNK N   1      24.656  14.328   7.126  0.00  0.00     0.090 A 
HETATM    8  C   UNK N   1      22.069  13.788   8.805  0.00  0.00     0.068 A 
HETATM    9  C   UNK N   1      24.065  15.612   5.168  0.00  0.00     0.042 A 
HETATM   10  C   UNK N   1      23.398  13.372   9.046  0.00  0.00     0.102 A 
HETATM   11  C   UNK N   1      25.960  14.234   6.609  0.00  0.00     0.040 A 
HETATM   12  C   UNK N   1      25.354  15.497   4.666  0.00  0.00     0.035 A 
HETATM   13  C   UNK N   1      26.311  14.813   5.394  0.00  0.00     0.026 A 
HETATM   14  C   UNK N   1      21.063  13.361   9.687  0.00  0.00     0.032 A 
HETATM   15  C   UNK N   1      23.665  12.553  10.154  0.00  0.00     0.039 A 
HETATM   16  C   UNK N   1      21.345  12.542  10.778  0.00  0.00     0.002 A 
HETATM   17  C   UNK N   1      22.652  12.141  11.015  0.00  0.00     0.003 A 
ENDROOT
BRANCH   5  18
HETATM   18  N   UNK N   1      21.436  16.197   6.041  0.00  0.00    -0.363 N 
HETATM   19  C   UNK N   1      20.429  15.709   5.112  0.00  0.00     0.154 C 
HETATM   20  C   UNK N   1      19.915  16.851   4.225  0.00  0.00     0.291 C 
HETATM   21  N   UNK N   1      20.999  17.799   3.963  0.00  0.00     0.087 N 
HETATM   22  C   UNK N   1      21.364  18.511   5.192  0.00  0.00     0.291 C 
HETATM   23  C   UNK N   1      20.500  18.799   3.038  0.00  0.00     0.310 C 
HETATM   24  C   UNK N   1      21.385  17.597   6.421  0.00  0.00     0.154 C 
ENDBRANCH   5  18
TORSDOF 1
ENDMDL
MODEL 5
REMARK VINA RESULT:      -6.7     14.524     17.012
REMARK  1 active torsions:
REMARK  status: ('A' for Active; 'I' for Inactive)
REMARK    1  A    between atoms: N_3  and  C_11 
ROOT
HETATM    1 Cl   UNK N   1      31.354  20.211  -4.390  0.00  0.00    -0.084 Cl
HETATM    2  O   UNK N   1      28.166  25.123  -3.688  0.00  0.00    -0.308 OA
HETATM    3  N   UNK N   1      27.030  24.475  -6.412  0.00  0.00    -0.340 N 
ATOM      4  HN  UNK N   1      26.515  24.473  -7.293  1.00  0.00     0.167 HD
HETATM    5  C   UNK N   1      27.945  23.567  -6.374  0.00  0.00     0.117 C 
HETATM    6  C   UNK N   1      28.800  23.264  -5.170  0.00  0.00     0.043 A 
HETATM    7  C   UNK N   1      28.866  24.011  -3.964  0.00  0.00     0.090 A 
HETATM    8  C   UNK N   1      26.572  25.471  -5.517  0.00  0.00     0.068 A 
HETATM    9  C   UNK N   1      29.583  22.093  -5.246  0.00  0.00     0.042 A 
HETATM   10  C   UNK N   1      27.145  25.780  -4.262  0.00  0.00     0.102 A 
HETATM   11  C   UNK N   1      29.725  23.582  -2.938  0.00  0.00     0.040 A 
HETATM   12  C   UNK N   1      30.414  21.677  -4.216  0.00  0.00     0.035 A 
HETATM   13  C   UNK N   1      30.495  22.430  -3.058  0.00  0.00     0.026 A 
HETATM   14  C   UNK N   1      25.501  26.254  -5.977  0.00  0.00     0.032 A 
HETATM   15  C   UNK N   1      26.626  26.855  -3.524  0.00  0.00     0.039 A 
HETATM   16  C   UNK N   1      24.994  27.313  -5.227  0.00  0.00     0.002 A 
HETATM   17  C   UNK N   1      25.563  27.617  -3.998  0.00  0.00     0.003 A 
ENDROOT
BRANCH   5  18
HETATM   18  N   UNK N   1      28.155  22.812  -7.583  0.00  0.00    -0.363 N 
HETATM   19  C   UNK N   1      27.199  21.790  -7.981  0.00  0.00     0.154 C 
HETATM   20  C   UNK N   1      27.767  20.935  -9.122  0.00  0.00     0.291 C 
HETATM   21  N   UNK N   1      29.217  20.802  -8.965  0.00  0.00     0.087 N 
HETATM   22  C   UNK N   1      29.877  22.091  -9.194  0.00  0.00     0.291 C 
HETATM   23  C   UNK N   1      29.693  19.902  -9.998  0.00  0.00     0.310 C 
HETATM   24  C   UNK N   1      29.114  23.265  -8.574  0.00  0.00     0.154 C 
ENDBRANCH   5  18
TORSDOF 1
ENDMDL
MODEL 6
REMARK VINA RESULT:      -6.3      6.701     10.213
REMARK  1 active torsions:
REMARK  status: ('A' for Active; 'I' for Inactive)
REMARK    1  A    between atoms: N_3  and  C_11 
ROOT
HETATM    1 Cl   UNK N   1      35.810   6.832  12.009  0.00  0.00    -0.084 Cl
HETATM    2  O   UNK N   1      35.738   9.844  17.080  0.00  0.00    -0.308 OA
HETATM    3  N   UNK N   1      35.670  12.304  15.326  0.00  0.00    -0.340 N 
ATOM      4  HN  UNK N   1      35.647  13.257  14.960  1.00  0.00     0.167 HD
HETATM    5  C   UNK N   1      35.856  11.424  14.401  0.00  0.00     0.117 C 
HETATM    6  C   UNK N   1      35.839   9.934  14.623  0.00  0.00     0.043 A 
HETATM    7  C   UNK N   1      35.787   9.260  15.871  0.00  0.00     0.090 A 
HETATM    8  C   UNK N   1      35.487  12.257  16.728  0.00  0.00     0.068 A 
HETATM    9  C   UNK N   1      35.835   9.135  13.460  0.00  0.00     0.042 A 
HETATM   10  C   UNK N   1      35.561  11.096  17.532  0.00  0.00     0.102 A 
HETATM   11  C   UNK N   1      35.778   7.854  15.892  0.00  0.00     0.040 A 
HETATM   12  C   UNK N   1      35.812   7.749  13.500  0.00  0.00     0.035 A 
HETATM   13  C   UNK N   1      35.793   7.102  14.723  0.00  0.00     0.026 A 
HETATM   14  C   UNK N   1      35.291  13.497  17.357  0.00  0.00     0.032 A 
HETATM   15  C   UNK N   1      35.438  11.224  18.924  0.00  0.00     0.039 A 
HETATM   16  C   UNK N   1      35.165  13.604  18.740  0.00  0.00     0.002 A 
HETATM   17  C   UNK N   1      35.243  12.463  19.527  0.00  0.00     0.003 A 
ENDROOT
BRANCH   5  18
HETATM   18  N   UNK N   1      36.111  11.927  13.075  0.00  0.00    -0.363 N 
HETATM   19  C   UNK N   1      37.450  11.854  12.512  0.00  0.00     0.154 C 
HETATM   20  C   UNK N   1      37.545  12.695  11.232  0.00  0.00     0.291 C 
HETATM   21  N   UNK N   1      36.678  13.870  11.349  0.00  0.00     0.087 N 
HETATM   22  C   UNK N   1      35.268  13.469  11.345  0.00  0.00     0.291 C 
HETATM   23  C   UNK N   1      36.880  14.688  10.168  0.00  0.00     0.310 C 
HETATM   24  C   UNK N   1      35.011  12.205  12.171  0.00  0.00     0.154 C 
ENDBRANCH   5  18
TORSDOF 1
ENDMDL
MODEL 7
REMARK VINA RESULT:      -6.3      3.440      7.300
REMARK  1 active torsions:
REMARK  status: ('A' for Active; 'I' for Inactive)
REMARK    1  A    between atoms: N_3  and  C_11 
ROOT
HETATM    1 Cl   UNK N   1      37.832  13.727   6.369  0.00  0.00    -0.084 Cl
HETATM    2  O   UNK N   1      37.800  12.343  12.103  0.00  0.00    -0.308 OA
HETATM    3  N   UNK N   1      35.207  13.892  12.204  0.00  0.00    -0.340 N 
ATOM      4  HN  UNK N   1      34.341  14.353  12.488  1.00  0.00     0.167 HD
HETATM    5  C   UNK N   1      35.546  14.180  10.994  0.00  0.00     0.117 C 
HETATM    6  C   UNK N   1      36.720  13.576  10.267  0.00  0.00     0.043 A 
HETATM    7  C   UNK N   1      37.726  12.743  10.822  0.00  0.00     0.090 A 
HETATM    8  C   UNK N   1      35.754  13.086  13.231  0.00  0.00     0.068 A 
HETATM    9  C   UNK N   1      36.795  13.841   8.884  0.00  0.00     0.042 A 
HETATM   10  C   UNK N   1      36.989  12.401  13.172  0.00  0.00     0.102 A 
HETATM   11  C   UNK N   1      38.756  12.265   9.994  0.00  0.00     0.040 A 
HETATM   12  C   UNK N   1      37.812  13.349   8.078  0.00  0.00     0.035 A 
HETATM   13  C   UNK N   1      38.805  12.564   8.636  0.00  0.00     0.026 A 
HETATM   14  C   UNK N   1      35.020  13.044  14.426  0.00  0.00     0.032 A 
HETATM   15  C   UNK N   1      37.436  11.706  14.307  0.00  0.00     0.039 A 
HETATM   16  C   UNK N   1      35.476  12.344  15.541  0.00  0.00     0.002 A 
HETATM   17  C   UNK N   1      36.692  11.677  15.482  0.00  0.00     0.003 A 
ENDROOT
BRANCH   5  18
HETATM   18  N   UNK N   1      34.737  15.160  10.314  0.00  0.00    -0.363 N 
HETATM   19  C   UNK N   1      33.452  14.781   9.750  0.00  0.00     0.154 C 
HETATM   20  C   UNK N   1      32.912  15.893   8.840  0.00  0.00     0.291 C 
HETATM   21  N   UNK N   1      34.026  16.569   8.172  0.00  0.00     0.087 N 
HETATM   22  C   UNK N   1      34.820  17.328   9.142  0.00  0.00     0.291 C 
HETATM   23  C   UNK N   1      33.467  17.535   7.246  0.00  0.00     0.310 C 
HETATM   24  C   UNK N   1      35.021  16.576  10.461  0.00  0.00     0.154 C 
ENDBRANCH   5  18
TORSDOF 1
ENDMDL
MODEL 8
REMARK VINA RESULT:      -6.2      5.996      9.486
REMARK  1 active torsions:
REMARK  status: ('A' for Active; 'I' for Inactive)
REMARK    1  A    between atoms: N_3  and  C_11 
ROOT
HETATM    1 Cl   UNK N   1      35.613   8.093  10.632  0.00  0.00    -0.084 Cl
HETATM    2  O   UNK N   1      35.711  10.086  16.183  0.00  0.00    -0.308 OA
HETATM    3  N   UNK N   1      35.582  12.834  14.933  0.00  0.00    -0.340 N 
ATOM      4  HN  UNK N   1      35.546  13.838  14.756  1.00  0.00     0.167 HD
HETATM    5  C   UNK N   1      35.738  12.147  13.852  0.00  0.00     0.117 C 
HETATM    6  C   UNK N   1      35.729  10.642  13.786  0.00  0.00     0.043 A 
HETATM    7  C   UNK N   1      35.719   9.742  14.884  0.00  0.00     0.090 A 
HETATM    8  C   UNK N   1      35.446  12.519  16.306  0.00  0.00     0.068 A 
HETATM    9  C   UNK N   1      35.686  10.079  12.493  0.00  0.00     0.042 A 
HETATM   10  C   UNK N   1      35.549  11.227  16.871  0.00  0.00     0.102 A 
HETATM   11  C   UNK N   1      35.713   8.358  14.638  0.00  0.00     0.040 A 
HETATM   12  C   UNK N   1      35.665   8.710  12.269  0.00  0.00     0.035 A 
HETATM   13  C   UNK N   1      35.688   7.842  13.347  0.00  0.00     0.026 A 
HETATM   14  C   UNK N   1      35.272  13.615  17.166  0.00  0.00     0.032 A 
HETATM   15  C   UNK N   1      35.473  11.087  18.265  0.00  0.00     0.039 A 
HETATM   16  C   UNK N   1      35.192  13.457  18.547  0.00  0.00     0.002 A 
HETATM   17  C   UNK N   1      35.298  12.187  19.099  0.00  0.00     0.003 A 
ENDROOT
BRANCH   5  18
HETATM   18  N   UNK N   1      35.947  12.895  12.638  0.00  0.00    -0.363 N 
HETATM   19  C   UNK N   1      34.906  13.777  12.136  0.00  0.00     0.154 C 
HETATM   20  C   UNK N   1      35.229  14.237  10.708  0.00  0.00     0.291 C 
HETATM   21  N   UNK N   1      35.928  13.167   9.992  0.00  0.00     0.087 N 
HETATM   22  C   UNK N   1      37.266  12.963  10.556  0.00  0.00     0.291 C 
HETATM   23  C   UNK N   1      36.117  13.602   8.621  0.00  0.00     0.310 C 
HETATM   24  C   UNK N   1      37.281  13.039  12.085  0.00  0.00     0.154 C 
ENDBRANCH   5  18
TORSDOF 1
ENDMDL
MODEL 9
REMARK VINA RESULT:      -6.0      7.575      9.956
REMARK  1 active torsions:
REMARK  status: ('A' for Active; 'I' for Inactive)
REMARK    1  A    between atoms: N_3  and  C_11 
ROOT
HETATM    1 Cl   UNK N   1      37.772  12.307  10.129  0.00  0.00    -0.084 Cl
HETATM    2  O   UNK N   1      35.658  13.323  15.541  0.00  0.00    -0.308 OA
HETATM    3  N   UNK N   1      36.351  10.432  16.081  0.00  0.00    -0.340 N 
ATOM      4  HN  UNK N   1      36.487   9.509  16.496  1.00  0.00     0.167 HD
HETATM    5  C   UNK N   1      36.590  10.445  14.814  0.00  0.00     0.117 C 
HETATM    6  C   UNK N   1      36.568  11.680  13.951  0.00  0.00     0.043 A 
HETATM    7  C   UNK N   1      36.129  12.975  14.332  0.00  0.00     0.090 A 
HETATM    8  C   UNK N   1      35.946  11.399  17.032  0.00  0.00     0.068 A 
HETATM    9  C   UNK N   1      37.075  11.531  12.643  0.00  0.00     0.042 A 
HETATM   10  C   UNK N   1      35.590  12.738  16.747  0.00  0.00     0.102 A 
HETATM   11  C   UNK N   1      36.177  14.020  13.392  0.00  0.00     0.040 A 
HETATM   12  C   UNK N   1      37.129  12.577  11.734  0.00  0.00     0.035 A 
HETATM   13  C   UNK N   1      36.669  13.828  12.105  0.00  0.00     0.026 A 
HETATM   14  C   UNK N   1      35.823  10.939  18.352  0.00  0.00     0.032 A 
HETATM   15  C   UNK N   1      35.129  13.555  17.791  0.00  0.00     0.039 A 
HETATM   16  C   UNK N   1      35.369  11.766  19.377  0.00  0.00     0.002 A 
HETATM   17  C   UNK N   1      35.016  13.078  19.093  0.00  0.00     0.003 A 
ENDROOT
BRANCH   5  18
HETATM   18  N   UNK N   1      36.882   9.173  14.201  0.00  0.00    -0.363 N 
HETATM   19  C   UNK N   1      38.165   8.529  14.433  0.00  0.00     0.154 C 
HETATM   20  C   UNK N   1      38.361   7.352  13.467  0.00  0.00     0.291 C 
HETATM   21  N   UNK N   1      37.723   7.655  12.185  0.00  0.00     0.087 N 
HETATM   22  C   UNK N   1      36.265   7.686  12.333  0.00  0.00     0.291 C 
HETATM   23  C   UNK N   1      38.024   6.568  11.273  0.00  0.00     0.310 C 
HETATM   24  C   UNK N   1      35.816   8.373  13.627  0.00  0.00     0.154 C 
ENDBRANCH   5  18
TORSDOF 1
ENDMDL
