REMARK  1 active torsions:
REMARK  status: ('A' for Active; 'I' for Inactive)
REMARK    1  A    between atoms: N_3  and  C_11 
ROOT
HETATM    1 Cl   UNK N   1      -0.611  -1.713   0.322  0.00  0.00    -0.084 Cl
HETATM    2  O   UNK N   1       5.063  -3.266  -0.107  0.00  0.00    -0.308 OA
HETATM    3  N   UNK N   1       5.623  -0.298  -0.001  0.00  0.00    -0.340 N 
ATOM      4  HN  UNK N   1       6.056   0.626   0.012  1.00  0.00     0.167 HD
HETATM    5  C   UNK N   1       4.337  -0.240  -0.083  0.00  0.00     0.117 C 
HETATM    6  C   UNK N   1       3.421  -1.435  -0.025  0.00  0.00     0.043 A 
HETATM    7  C   UNK N   1       3.804  -2.802  -0.041  0.00  0.00     0.090 A 
HETATM    8  C   UNK N   1       6.573  -1.344   0.077  0.00  0.00     0.068 A 
HETATM    9  C   UNK N   1       2.044  -1.154   0.098  0.00  0.00     0.042 A 
HETATM   10  C   UNK N   1       6.289  -2.726  -0.013  0.00  0.00     0.102 A 
HETATM   11  C   UNK N   1       2.810  -3.794   0.020  0.00  0.00     0.040 A 
HETATM   12  C   UNK N   1       1.078  -2.147   0.172  0.00  0.00     0.035 A 
HETATM   13  C   UNK N   1       1.460  -3.476   0.123  0.00  0.00     0.026 A 
HETATM   14  C   UNK N   1       7.914  -0.940   0.176  0.00  0.00     0.032 A 
HETATM   15  C   UNK N   1       7.353  -3.641  -0.001  0.00  0.00     0.039 A 
HETATM   16  C   UNK N   1       8.957  -1.863   0.193  0.00  0.00     0.002 A 
HETATM   17  C   UNK N   1       8.675  -3.219   0.099  0.00  0.00     0.003 A 
ENDROOT
BRANCH   5  18
HETATM   18  N   UNK N   1       3.761   1.070  -0.256  0.00  0.00    -0.363 N 
HETATM   19  C   UNK N   1       4.501   2.252   0.156  0.00  0.00     0.154 C 
HETATM   20  C   UNK N   1       3.592   3.489   0.145  0.00  0.00     0.291 C 
HETATM   21  N   UNK N   1       2.229   3.103   0.516  0.00  0.00     0.087 N 
HETATM   22  C   UNK N   1       1.628   2.275  -0.534  0.00  0.00     0.291 C 
HETATM   23  C   UNK N   1       1.433   4.313   0.597  0.00  0.00     0.310 C 
HETATM   24  C   UNK N   1       2.611   1.258  -1.121  0.00  0.00     0.154 C 
ENDBRANCH   5  18
TORSDOF 1
