MODEL 1
REMARK VINA RESULT:      -5.8      0.000      0.000
REMARK  6 active torsions:
REMARK  status: ('A' for Active; 'I' for Inactive)
REMARK    1  A    between atoms: O_3  and  C_16 
REMARK    2  A    between atoms: O_4  and  C_17 
REMARK    3  A    between atoms: N_5  and  C_12 
REMARK    4  A    between atoms: N_6  and  C_11 
REMARK       I    between atoms: N_6  and  C_14 
REMARK    5  A    between atoms: C_7  and  C_11 
REMARK    6  A    between atoms: C_14  and  C_15 
ROOT
HETATM    1  O   UNK N   1      34.711  18.348   8.699  0.00  0.00    -0.267 OA
HETATM    2  N   UNK N   1      34.104  16.373   9.526  0.00  0.00    -0.355 N 
HETATM    3  C   UNK N   1      33.977  17.376   8.621  0.00  0.00     0.257 C 
HETATM    4  H   UNK N   1      33.549  15.566   9.422  0.00  0.00     0.162 HD
ENDROOT
BRANCH   3   5
HETATM    5  C   UNK N   1      32.941  17.282   7.528  0.00  0.00     0.100 A 
HETATM    6  C   UNK N   1      33.271  16.908   6.176  0.00  0.00     0.104 A 
HETATM    7  C   UNK N   1      32.243  16.791   5.221  0.00  0.00     0.045 A 
HETATM    8 Br   UNK N   1      32.635  16.318   3.410  0.00  0.00    -0.048 Br
HETATM    9  C   UNK N   1      30.924  17.051   5.557  0.00  0.00     0.025 A 
HETATM   10  C   UNK N   1      30.593  17.428   6.846  0.00  0.00     0.039 A 
HETATM   11  C   UNK N   1      31.575  17.547   7.838  0.00  0.00     0.086 A 
BRANCH   6  12
HETATM   12  O   UNK N   1      34.537  16.676   5.742  0.00  0.00    -0.353 OA
HETATM   13  C   UNK N   1      35.173  15.459   5.824  0.00  0.00     0.210 C 
ENDBRANCH   6  12
BRANCH  11  14
HETATM   14  O   UNK N   1      31.209  17.892   9.098  0.00  0.00    -0.355 OA
HETATM   15  C   UNK N   1      30.080  18.628   9.382  0.00  0.00     0.210 C 
ENDBRANCH  11  14
ENDBRANCH   3   5
BRANCH   2  16
HETATM   16  C   UNK N   1      35.023  16.445  10.638  0.00  0.00     0.158 C 
BRANCH  16  17
HETATM   17  C   UNK N   1      35.735  15.118  10.868  0.00  0.00     0.240 C 
HETATM   18  N   UNK N   1      35.478  14.173   9.785  0.00  0.00     0.094 N 
HETATM   19  C   UNK N   1      35.343  12.857  10.412  0.00  0.00     0.273 C 
HETATM   20  C   UNK N   1      35.346  13.030  11.916  0.00  0.00     0.032 C 
HETATM   21  C   UNK N   1      35.186  14.507  12.131  0.00  0.00     0.039 C 
BRANCH  18  22
HETATM   22  C   UNK N   1      36.668  14.148   8.941  0.00  0.00     0.268 C 
HETATM   23  C   UNK N   1      37.933  14.237   9.780  0.00  0.00     0.037 C 
ENDBRANCH  18  22
ENDBRANCH  16  17
ENDBRANCH   2  16
TORSDOF 6
ENDMDL
MODEL 2
REMARK VINA RESULT:      -5.6     10.668     13.794
REMARK  6 active torsions:
REMARK  status: ('A' for Active; 'I' for Inactive)
REMARK    1  A    between atoms: O_3  and  C_16 
REMARK    2  A    between atoms: O_4  and  C_17 
REMARK    3  A    between atoms: N_5  and  C_12 
REMARK    4  A    between atoms: N_6  and  C_11 
REMARK       I    between atoms: N_6  and  C_14 
REMARK    5  A    between atoms: C_7  and  C_11 
REMARK    6  A    between atoms: C_14  and  C_15 
ROOT
HETATM    1  O   UNK N   1      22.546  14.542   5.318  0.00  0.00    -0.267 OA
HETATM    2  N   UNK N   1      22.351  16.535   6.287  0.00  0.00    -0.355 N 
HETATM    3  C   UNK N   1      22.381  15.180   6.345  0.00  0.00     0.257 C 
HETATM    4  H   UNK N   1      22.276  17.045   7.126  0.00  0.00     0.162 HD
ENDROOT
BRANCH   3   5
HETATM    5  C   UNK N   1      22.215  14.476   7.669  0.00  0.00     0.100 A 
HETATM    6  C   UNK N   1      23.294  13.769   8.312  0.00  0.00     0.104 A 
HETATM    7  C   UNK N   1      23.080  13.180   9.572  0.00  0.00     0.045 A 
HETATM    8 Br   UNK N   1      24.475  12.216  10.455  0.00  0.00    -0.048 Br
HETATM    9  C   UNK N   1      21.842  13.249  10.192  0.00  0.00     0.025 A 
HETATM   10  C   UNK N   1      20.792  13.909   9.579  0.00  0.00     0.039 A 
HETATM   11  C   UNK N   1      20.954  14.523   8.331  0.00  0.00     0.086 A 
BRANCH   6  12
HETATM   12  O   UNK N   1      24.527  13.611   7.765  0.00  0.00    -0.353 OA
HETATM   13  C   UNK N   1      24.862  12.608   6.885  0.00  0.00     0.210 C 
ENDBRANCH   6  12
BRANCH  11  14
HETATM   14  O   UNK N   1      19.908  15.185   7.774  0.00  0.00    -0.355 OA
HETATM   15  C   UNK N   1      19.380  16.343   8.301  0.00  0.00     0.210 C 
ENDBRANCH  11  14
ENDBRANCH   3   5
BRANCH   2  16
HETATM   16  C   UNK N   1      22.425  17.259   5.039  0.00  0.00     0.158 C 
BRANCH  16  17
HETATM   17  C   UNK N   1      21.092  17.904   4.682  0.00  0.00     0.240 C 
HETATM   18  N   UNK N   1      20.329  17.082   3.745  0.00  0.00     0.094 N 
HETATM   19  C   UNK N   1      19.680  18.011   2.818  0.00  0.00     0.273 C 
HETATM   20  C   UNK N   1      20.196  19.410   3.088  0.00  0.00     0.032 C 
HETATM   21  C   UNK N   1      21.377  19.213   3.992  0.00  0.00     0.039 C 
BRANCH  18  22
HETATM   22  C   UNK N   1      19.284  16.411   4.512  0.00  0.00     0.268 C 
HETATM   23  C   UNK N   1      19.264  14.920   4.216  0.00  0.00     0.037 C 
ENDBRANCH  18  22
ENDBRANCH  16  17
ENDBRANCH   2  16
TORSDOF 6
ENDMDL
MODEL 3
REMARK VINA RESULT:      -5.5     15.895     18.800
REMARK  6 active torsions:
REMARK  status: ('A' for Active; 'I' for Inactive)
REMARK    1  A    between atoms: O_3  and  C_16 
REMARK    2  A    between atoms: O_4  and  C_17 
REMARK    3  A    between atoms: N_5  and  C_12 
REMARK    4  A    between atoms: N_6  and  C_11 
REMARK       I    between atoms: N_6  and  C_14 
REMARK    5  A    between atoms: C_7  and  C_11 
REMARK    6  A    between atoms: C_14  and  C_15 
ROOT
HETATM    1  O   UNK N   1      25.694  23.493  -6.503  0.00  0.00    -0.267 OA
HETATM    2  N   UNK N   1      27.030  25.141  -7.174  0.00  0.00    -0.355 N 
HETATM    3  C   UNK N   1      26.831  23.917  -6.622  0.00  0.00     0.257 C 
HETATM    4  H   UNK N   1      27.953  25.452  -7.320  0.00  0.00     0.162 HD
ENDROOT
BRANCH   3   5
HETATM    5  C   UNK N   1      28.010  23.093  -6.166  0.00  0.00     0.100 A 
HETATM    6  C   UNK N   1      28.712  23.356  -4.936  0.00  0.00     0.104 A 
HETATM    7  C   UNK N   1      29.770  22.512  -4.550  0.00  0.00     0.045 A 
HETATM    8 Br   UNK N   1      30.743  22.833  -2.935  0.00  0.00    -0.048 Br
HETATM    9  C   UNK N   1      30.161  21.447  -5.346  0.00  0.00     0.025 A 
HETATM   10  C   UNK N   1      29.509  21.192  -6.539  0.00  0.00     0.039 A 
HETATM   11  C   UNK N   1      28.442  21.993  -6.964  0.00  0.00     0.086 A 
BRANCH   6  12
HETATM   12  O   UNK N   1      28.430  24.398  -4.112  0.00  0.00    -0.353 OA
HETATM   13  C   UNK N   1      27.315  24.473  -3.310  0.00  0.00     0.210 C 
ENDBRANCH   6  12
BRANCH  11  14
HETATM   14  O   UNK N   1      27.808  21.694  -8.127  0.00  0.00    -0.355 OA
HETATM   15  C   UNK N   1      28.388  21.855  -9.366  0.00  0.00     0.210 C 
ENDBRANCH  11  14
ENDBRANCH   3   5
BRANCH   2  16
HETATM   16  C   UNK N   1      25.938  26.006  -7.554  0.00  0.00     0.158 C 
BRANCH  16  17
HETATM   17  C   UNK N   1      25.869  27.248  -6.674  0.00  0.00     0.240 C 
HETATM   18  N   UNK N   1      27.151  27.524  -6.031  0.00  0.00     0.094 N 
HETATM   19  C   UNK N   1      26.839  27.996  -4.680  0.00  0.00     0.273 C 
HETATM   20  C   UNK N   1      25.352  27.838  -4.439  0.00  0.00     0.032 C 
HETATM   21  C   UNK N   1      24.869  26.988  -5.577  0.00  0.00     0.039 C 
BRANCH  18  22
HETATM   22  C   UNK N   1      27.771  28.627  -6.759  0.00  0.00     0.268 C 
HETATM   23  C   UNK N   1      28.112  29.775  -5.823  0.00  0.00     0.037 C 
ENDBRANCH  18  22
ENDBRANCH  16  17
ENDBRANCH   2  16
TORSDOF 6
ENDMDL
MODEL 4
REMARK VINA RESULT:      -5.5     14.073     16.741
REMARK  6 active torsions:
REMARK  status: ('A' for Active; 'I' for Inactive)
REMARK    1  A    between atoms: O_3  and  C_16 
REMARK    2  A    between atoms: O_4  and  C_17 
REMARK    3  A    between atoms: N_5  and  C_12 
REMARK    4  A    between atoms: N_6  and  C_11 
REMARK       I    between atoms: N_6  and  C_14 
REMARK    5  A    between atoms: C_7  and  C_11 
REMARK    6  A    between atoms: C_14  and  C_15 
ROOT
HETATM    1  O   UNK N   1      26.676  23.954  -2.956  0.00  0.00    -0.267 OA
HETATM    2  N   UNK N   1      28.607  24.097  -4.053  0.00  0.00    -0.355 N 
HETATM    3  C   UNK N   1      27.292  24.400  -3.910  0.00  0.00     0.257 C 
HETATM    4  H   UNK N   1      29.111  24.507  -4.792  0.00  0.00     0.162 HD
ENDROOT
BRANCH   3   5
HETATM    5  C   UNK N   1      26.606  25.286  -4.922  0.00  0.00     0.100 A 
HETATM    6  C   UNK N   1      26.485  24.926  -6.312  0.00  0.00     0.104 A 
HETATM    7  C   UNK N   1      25.786  25.777  -7.187  0.00  0.00     0.045 A 
HETATM    8 Br   UNK N   1      25.616  25.352  -9.044  0.00  0.00    -0.048 Br
HETATM    9  C   UNK N   1      25.234  26.967  -6.738  0.00  0.00     0.025 A 
HETATM   10  C   UNK N   1      25.357  27.335  -5.411  0.00  0.00     0.039 A 
HETATM   11  C   UNK N   1      26.031  26.518  -4.494  0.00  0.00     0.086 A 
BRANCH   6  12
HETATM   12  O   UNK N   1      27.028  23.805  -6.853  0.00  0.00    -0.353 OA
HETATM   13  C   UNK N   1      26.400  22.582  -6.896  0.00  0.00     0.210 C 
ENDBRANCH   6  12
BRANCH  11  14
HETATM   14  O   UNK N   1      26.107  26.899  -3.193  0.00  0.00    -0.355 OA
HETATM   15  C   UNK N   1      26.714  28.065  -2.783  0.00  0.00     0.210 C 
ENDBRANCH  11  14
ENDBRANCH   3   5
BRANCH   2  16
HETATM   16  C   UNK N   1      29.294  23.192  -3.161  0.00  0.00     0.158 C 
BRANCH  16  17
HETATM   17  C   UNK N   1      30.559  22.628  -3.794  0.00  0.00     0.240 C 
HETATM   18  N   UNK N   1      30.295  21.383  -4.511  0.00  0.00     0.094 N 
HETATM   19  C   UNK N   1      31.449  20.516  -4.267  0.00  0.00     0.273 C 
HETATM   20  C   UNK N   1      32.349  21.177  -3.244  0.00  0.00     0.032 C 
HETATM   21  C   UNK N   1      31.530  22.305  -2.688  0.00  0.00     0.039 C 
BRANCH  18  22
HETATM   22  C   UNK N   1      30.267  21.703  -5.935  0.00  0.00     0.268 C 
HETATM   23  C   UNK N   1      29.727  20.535  -6.745  0.00  0.00     0.037 C 
ENDBRANCH  18  22
ENDBRANCH  16  17
ENDBRANCH   2  16
TORSDOF 6
ENDMDL
MODEL 5
REMARK VINA RESULT:      -5.5     16.320     18.879
REMARK  6 active torsions:
REMARK  status: ('A' for Active; 'I' for Inactive)
REMARK    1  A    between atoms: O_3  and  C_16 
REMARK    2  A    between atoms: O_4  and  C_17 
REMARK    3  A    between atoms: N_5  and  C_12 
REMARK    4  A    between atoms: N_6  and  C_11 
REMARK       I    between atoms: N_6  and  C_14 
REMARK    5  A    between atoms: C_7  and  C_11 
REMARK    6  A    between atoms: C_14  and  C_15 
ROOT
HETATM    1  O   UNK N   1      25.524  23.468  -6.808  0.00  0.00    -0.267 OA
HETATM    2  N   UNK N   1      26.937  25.082  -7.400  0.00  0.00    -0.355 N 
HETATM    3  C   UNK N   1      26.681  23.840  -6.918  0.00  0.00     0.257 C 
HETATM    4  H   UNK N   1      27.872  25.354  -7.541  0.00  0.00     0.162 HD
ENDROOT
BRANCH   3   5
HETATM    5  C   UNK N   1      27.821  22.930  -6.530  0.00  0.00     0.100 A 
HETATM    6  C   UNK N   1      28.157  21.745  -7.278  0.00  0.00     0.104 A 
HETATM    7  C   UNK N   1      29.266  20.973  -6.886  0.00  0.00     0.045 A 
HETATM    8 Br   UNK N   1      29.739  19.381  -7.835  0.00  0.00    -0.048 Br
HETATM    9  C   UNK N   1      30.025  21.322  -5.780  0.00  0.00     0.025 A 
HETATM   10  C   UNK N   1      29.705  22.447  -5.042  0.00  0.00     0.039 A 
HETATM   11  C   UNK N   1      28.619  23.258  -5.395  0.00  0.00     0.086 A 
BRANCH   6  12
HETATM   12  O   UNK N   1      27.449  21.299  -8.347  0.00  0.00    -0.353 OA
HETATM   13  C   UNK N   1      27.570  21.802  -9.622  0.00  0.00     0.210 C 
ENDBRANCH   6  12
BRANCH  11  14
HETATM   14  O   UNK N   1      28.353  24.369  -4.663  0.00  0.00    -0.355 OA
HETATM   15  C   UNK N   1      27.631  24.346  -3.491  0.00  0.00     0.210 C 
ENDBRANCH  11  14
ENDBRANCH   3   5
BRANCH   2  16
HETATM   16  C   UNK N   1      25.886  26.023  -7.712  0.00  0.00     0.158 C 
BRANCH  16  17
HETATM   17  C   UNK N   1      25.886  27.207  -6.753  0.00  0.00     0.240 C 
HETATM   18  N   UNK N   1      27.205  27.422  -6.163  0.00  0.00     0.094 N 
HETATM   19  C   UNK N   1      26.972  27.811  -4.771  0.00  0.00     0.273 C 
HETATM   20  C   UNK N   1      25.497  27.662  -4.462  0.00  0.00     0.032 C 
HETATM   21  C   UNK N   1      24.940  26.893  -5.623  0.00  0.00     0.039 C 
BRANCH  18  22
HETATM   22  C   UNK N   1      27.806  28.560  -6.852  0.00  0.00     0.268 C 
HETATM   23  C   UNK N   1      28.187  29.655  -5.869  0.00  0.00     0.037 C 
ENDBRANCH  18  22
ENDBRANCH  16  17
ENDBRANCH   2  16
TORSDOF 6
ENDMDL
MODEL 6
REMARK VINA RESULT:      -5.5      4.873      8.005
REMARK  6 active torsions:
REMARK  status: ('A' for Active; 'I' for Inactive)
REMARK    1  A    between atoms: O_3  and  C_16 
REMARK    2  A    between atoms: O_4  and  C_17 
REMARK    3  A    between atoms: N_5  and  C_12 
REMARK    4  A    between atoms: N_6  and  C_11 
REMARK       I    between atoms: N_6  and  C_14 
REMARK    5  A    between atoms: C_7  and  C_11 
REMARK    6  A    between atoms: C_14  and  C_15 
ROOT
HETATM    1  O   UNK N   1      37.582  12.650  11.899  0.00  0.00    -0.267 OA
HETATM    2  N   UNK N   1      35.824  13.970  11.553  0.00  0.00    -0.355 N 
HETATM    3  C   UNK N   1      36.426  12.926  12.177  0.00  0.00     0.257 C 
HETATM    4  H   UNK N   1      34.912  14.223  11.824  0.00  0.00     0.162 HD
ENDROOT
BRANCH   3   5
HETATM    5  C   UNK N   1      35.670  12.123  13.207  0.00  0.00     0.100 A 
HETATM    6  C   UNK N   1      35.941  12.221  14.618  0.00  0.00     0.104 A 
HETATM    7  C   UNK N   1      35.160  11.479  15.524  0.00  0.00     0.045 A 
HETATM    8 Br   UNK N   1      35.494  11.562  17.406  0.00  0.00    -0.048 Br
HETATM    9  C   UNK N   1      34.152  10.640  15.078  0.00  0.00     0.025 A 
HETATM   10  C   UNK N   1      33.891  10.521  13.725  0.00  0.00     0.039 A 
HETATM   11  C   UNK N   1      34.630  11.246  12.781  0.00  0.00     0.086 A 
BRANCH   6  12
HETATM   12  O   UNK N   1      36.934  12.982  15.148  0.00  0.00    -0.353 OA
HETATM   13  C   UNK N   1      36.847  14.340  15.347  0.00  0.00     0.210 C 
ENDBRANCH   6  12
BRANCH  11  14
HETATM   14  O   UNK N   1      34.326  11.125  11.463  0.00  0.00    -0.355 OA
HETATM   15  C   UNK N   1      33.586  10.083  10.952  0.00  0.00     0.210 C 
ENDBRANCH  11  14
ENDBRANCH   3   5
BRANCH   2  16
HETATM   16  C   UNK N   1      36.471  14.723  10.504  0.00  0.00     0.158 C 
BRANCH  16  17
HETATM   17  C   UNK N   1      35.536  14.970   9.327  0.00  0.00     0.240 C 
HETATM   18  N   UNK N   1      34.415  15.830   9.700  0.00  0.00     0.094 N 
HETATM   19  C   UNK N   1      33.243  15.306   8.997  0.00  0.00     0.273 C 
HETATM   20  C   UNK N   1      33.621  14.003   8.322  0.00  0.00     0.032 C 
HETATM   21  C   UNK N   1      34.956  13.644   8.906  0.00  0.00     0.039 C 
BRANCH  18  22
HETATM   22  C   UNK N   1      34.698  17.161   9.172  0.00  0.00     0.268 C 
HETATM   23  C   UNK N   1      33.501  17.712   8.415  0.00  0.00     0.037 C 
ENDBRANCH  18  22
ENDBRANCH  16  17
ENDBRANCH   2  16
TORSDOF 6
ENDMDL
MODEL 7
REMARK VINA RESULT:      -5.5      3.087      4.799
REMARK  6 active torsions:
REMARK  status: ('A' for Active; 'I' for Inactive)
REMARK    1  A    between atoms: O_3  and  C_16 
REMARK    2  A    between atoms: O_4  and  C_17 
REMARK    3  A    between atoms: N_5  and  C_12 
REMARK    4  A    between atoms: N_6  and  C_11 
REMARK       I    between atoms: N_6  and  C_14 
REMARK    5  A    between atoms: C_7  and  C_11 
REMARK    6  A    between atoms: C_14  and  C_15 
ROOT
HETATM    1  O   UNK N   1      29.781  15.551   6.103  0.00  0.00    -0.267 OA
HETATM    2  N   UNK N   1      31.450  16.978   6.469  0.00  0.00    -0.355 N 
HETATM    3  C   UNK N   1      30.134  16.707   6.272  0.00  0.00     0.257 C 
HETATM    4  H   UNK N   1      31.720  17.904   6.663  0.00  0.00     0.162 HD
ENDROOT
BRANCH   3   5
HETATM    5  C   UNK N   1      29.124  17.828   6.269  0.00  0.00     0.100 A 
HETATM    6  C   UNK N   1      28.417  18.232   5.080  0.00  0.00     0.104 A 
HETATM    7  C   UNK N   1      27.451  19.251   5.164  0.00  0.00     0.045 A 
HETATM    8 Br   UNK N   1      26.502  19.835   3.610  0.00  0.00    -0.048 Br
HETATM    9  C   UNK N   1      27.186  19.887   6.366  0.00  0.00     0.025 A 
HETATM   10  C   UNK N   1      27.868  19.523   7.513  0.00  0.00     0.039 A 
HETATM   11  C   UNK N   1      28.831  18.506   7.488  0.00  0.00     0.086 A 
BRANCH   6  12
HETATM   12  O   UNK N   1      28.638  17.699   3.850  0.00  0.00    -0.353 OA
HETATM   13  C   UNK N   1      28.016  16.569   3.372  0.00  0.00     0.210 C 
ENDBRANCH   6  12
BRANCH  11  14
HETATM   14  O   UNK N   1      29.460  18.157   8.639  0.00  0.00    -0.355 OA
HETATM   15  C   UNK N   1      28.828  17.513   9.680  0.00  0.00     0.210 C 
ENDBRANCH  11  14
ENDBRANCH   3   5
BRANCH   2  16
HETATM   16  C   UNK N   1      32.468  15.956   6.403  0.00  0.00     0.158 C 
BRANCH  16  17
HETATM   17  C   UNK N   1      33.776  16.423   7.029  0.00  0.00     0.240 C 
HETATM   18  N   UNK N   1      33.928  15.927   8.395  0.00  0.00     0.094 N 
HETATM   19  C   UNK N   1      34.547  17.011   9.159  0.00  0.00     0.273 C 
HETATM   20  C   UNK N   1      34.614  18.247   8.287  0.00  0.00     0.032 C 
HETATM   21  C   UNK N   1      33.746  17.928   7.105  0.00  0.00     0.039 C 
BRANCH  18  22
HETATM   22  C   UNK N   1      34.872  14.814   8.348  0.00  0.00     0.268 C 
HETATM   23  C   UNK N   1      35.860  14.888   9.501  0.00  0.00     0.037 C 
ENDBRANCH  18  22
ENDBRANCH  16  17
ENDBRANCH   2  16
TORSDOF 6
ENDMDL
MODEL 8
REMARK VINA RESULT:      -5.4      2.641      6.254
REMARK  6 active torsions:
REMARK  status: ('A' for Active; 'I' for Inactive)
REMARK    1  A    between atoms: O_3  and  C_16 
REMARK    2  A    between atoms: O_4  and  C_17 
REMARK    3  A    between atoms: N_5  and  C_12 
REMARK    4  A    between atoms: N_6  and  C_11 
REMARK       I    between atoms: N_6  and  C_14 
REMARK    5  A    between atoms: C_7  and  C_11 
REMARK    6  A    between atoms: C_14  and  C_15 
ROOT
HETATM    1  O   UNK N   1      34.383  17.998   7.268  0.00  0.00    -0.267 OA
HETATM    2  N   UNK N   1      32.819  16.938   8.443  0.00  0.00    -0.355 N 
HETATM    3  C   UNK N   1      34.024  16.971   7.820  0.00  0.00     0.257 C 
HETATM    4  H   UNK N   1      32.561  16.125   8.936  0.00  0.00     0.162 HD
ENDROOT
BRANCH   3   5
HETATM    5  C   UNK N   1      34.907  15.748   7.817  0.00  0.00     0.100 A 
HETATM    6  C   UNK N   1      35.310  15.079   9.029  0.00  0.00     0.104 A 
HETATM    7  C   UNK N   1      36.093  13.912   8.947  0.00  0.00     0.045 A 
HETATM    8 Br   UNK N   1      36.668  13.002  10.527  0.00  0.00    -0.048 Br
HETATM    9  C   UNK N   1      36.502  13.412   7.721  0.00  0.00     0.025 A 
HETATM   10  C   UNK N   1      36.138  14.052   6.550  0.00  0.00     0.039 A 
HETATM   11  C   UNK N   1      35.349  15.209   6.574  0.00  0.00     0.086 A 
BRANCH   6  12
HETATM   12  O   UNK N   1      34.995  15.518  10.275  0.00  0.00    -0.353 OA
HETATM   13  C   UNK N   1      35.639  16.548  10.920  0.00  0.00     0.210 C 
ENDBRANCH   6  12
BRANCH  11  14
HETATM   14  O   UNK N   1      34.989  15.793   5.403  0.00  0.00    -0.355 OA
HETATM   15  C   UNK N   1      34.099  15.226   4.518  0.00  0.00     0.210 C 
ENDBRANCH  11  14
ENDBRANCH   3   5
BRANCH   2  16
HETATM   16  C   UNK N   1      31.899  18.051   8.409  0.00  0.00     0.158 C 
BRANCH  16  17
HETATM   17  C   UNK N   1      30.449  17.587   8.474  0.00  0.00     0.240 C 
HETATM   18  N   UNK N   1      29.763  17.782   7.199  0.00  0.00     0.094 N 
HETATM   19  C   UNK N   1      28.403  18.211   7.526  0.00  0.00     0.273 C 
HETATM   20  C   UNK N   1      28.311  18.449   9.019  0.00  0.00     0.032 C 
HETATM   21  C   UNK N   1      29.734  18.432   9.496  0.00  0.00     0.039 C 
BRANCH  18  22
HETATM   22  C   UNK N   1      29.679  16.477   6.550  0.00  0.00     0.268 C 
HETATM   23  C   UNK N   1      30.622  16.398   5.360  0.00  0.00     0.037 C 
ENDBRANCH  18  22
ENDBRANCH  16  17
ENDBRANCH   2  16
TORSDOF 6
ENDMDL
MODEL 9
REMARK VINA RESULT:      -5.4      4.760      8.915
REMARK  6 active torsions:
REMARK  status: ('A' for Active; 'I' for Inactive)
REMARK    1  A    between atoms: O_3  and  C_16 
REMARK    2  A    between atoms: O_4  and  C_17 
REMARK    3  A    between atoms: N_5  and  C_12 
REMARK    4  A    between atoms: N_6  and  C_11 
REMARK       I    between atoms: N_6  and  C_14 
REMARK    5  A    between atoms: C_7  and  C_11 
REMARK    6  A    between atoms: C_14  and  C_15 
ROOT
HETATM    1  O   UNK N   1      28.909  15.899   6.526  0.00  0.00    -0.267 OA
HETATM    2  N   UNK N   1      28.506  17.868   5.569  0.00  0.00    -0.355 N 
HETATM    3  C   UNK N   1      29.360  16.923   6.038  0.00  0.00     0.257 C 
HETATM    4  H   UNK N   1      28.876  18.664   5.124  0.00  0.00     0.162 HD
ENDROOT
BRANCH   3   5
HETATM    5  C   UNK N   1      30.850  17.140   5.949  0.00  0.00     0.100 A 
HETATM    6  C   UNK N   1      31.679  17.323   7.114  0.00  0.00     0.104 A 
HETATM    7  C   UNK N   1      33.070  17.468   6.956  0.00  0.00     0.045 A 
HETATM    8 Br   UNK N   1      34.207  17.733   8.470  0.00  0.00    -0.048 Br
HETATM    9  C   UNK N   1      33.651  17.462   5.698  0.00  0.00     0.025 A 
HETATM   10  C   UNK N   1      32.867  17.306   4.569  0.00  0.00     0.039 A 
HETATM   11  C   UNK N   1      31.479  17.144   4.669  0.00  0.00     0.086 A 
BRANCH   6  12
HETATM   12  O   UNK N   1      31.197  17.386   8.382  0.00  0.00    -0.353 OA
HETATM   13  C   UNK N   1      30.544  18.474   8.910  0.00  0.00     0.210 C 
ENDBRANCH   6  12
BRANCH  11  14
HETATM   14  O   UNK N   1      30.747  16.965   3.541  0.00  0.00    -0.355 OA
HETATM   15  C   UNK N   1      30.732  15.786   2.829  0.00  0.00     0.210 C 
ENDBRANCH  11  14
ENDBRANCH   3   5
BRANCH   2  16
HETATM   16  C   UNK N   1      27.072  17.748   5.700  0.00  0.00     0.158 C 
BRANCH  16  17
HETATM   17  C   UNK N   1      26.352  18.971   5.145  0.00  0.00     0.240 C 
HETATM   18  N   UNK N   1      25.315  18.596   4.186  0.00  0.00     0.094 N 
HETATM   19  C   UNK N   1      25.352  19.605   3.126  0.00  0.00     0.273 C 
HETATM   20  C   UNK N   1      26.545  20.509   3.354  0.00  0.00     0.032 C 
HETATM   21  C   UNK N   1      27.360  19.809   4.402  0.00  0.00     0.039 C 
BRANCH  18  22
HETATM   22  C   UNK N   1      24.031  18.712   4.872  0.00  0.00     0.268 C 
HETATM   23  C   UNK N   1      22.879  18.685   3.880  0.00  0.00     0.037 C 
ENDBRANCH  18  22
ENDBRANCH  16  17
ENDBRANCH   2  16
TORSDOF 6
ENDMDL
