REMARK  6 active torsions:
REMARK  status: ('A' for Active; 'I' for Inactive)
REMARK    1  A    between atoms: O_3  and  C_16 
REMARK    2  A    between atoms: C_12  and  N_7 
REMARK       I    between atoms: N_7  and  C_17 
REMARK    3  A    between atoms: C_18  and  N_8 
REMARK    4  A    between atoms: C_11  and  C_16 
REMARK    5  A    between atoms: C_17  and  C_18 
REMARK    6  A    between atoms: C_18  and  C_19 
ROOT
HETATM    1  S   UNK N   1       8.862   1.519   0.810  0.00  0.00    -0.135 SA
HETATM    2  O   UNK N   1       5.682  -1.142  -0.187  0.00  0.00    -0.277 OA
HETATM    3  N   UNK N   1       7.701  -0.267  -0.670  0.00  0.00    -0.219 NA
HETATM    4  C   UNK N   1       7.823   1.152  -0.659  0.00  0.00     0.160 A 
HETATM    5  C   UNK N   1       9.658  -0.128   0.614  0.00  0.00     0.029 C 
HETATM    6  C   UNK N   1       8.501  -1.050   0.223  0.00  0.00     0.182 C 
HETATM    7  C   UNK N   1       6.204   1.221  -0.579  0.00  0.00     0.199 A 
HETATM    8  C   UNK N   1       6.400  -0.250  -0.619  0.00  0.00     0.227 A 
HETATM    9  C   UNK N   1      10.298  -0.583   1.910  0.00  0.00     0.029 C 
HETATM   10  C   UNK N   1      10.721  -0.027  -0.476  0.00  0.00     0.029 C 
ENDROOT
BRANCH   7  11
HETATM   11  N   UNK N   1       5.710   1.544   0.739  0.00  0.00    -0.344 N 
HETATM   12  C   UNK N   1       4.444   1.993   0.924  0.00  0.00     0.245 C 
HETATM   13  O   UNK N   1       4.028   2.168   2.059  0.00  0.00    -0.271 OA
HETATM   14  H   UNK N   1       6.303   1.435   1.517  0.00  0.00     0.163 HD
BRANCH  12  15
HETATM   15  C   UNK N   1       3.554   2.300  -0.256  0.00  0.00     0.201 C 
BRANCH  15  16
HETATM   16  N   UNK N   1       3.183   3.708  -0.227  0.00  0.00    -0.415 N 
HETATM   17  H   UNK N   1       3.908   4.426  -0.207  0.00  0.00     0.151 HD
HETATM   18  H   UNK N   1       2.199   3.976  -0.227  0.00  0.00     0.151 HD
ENDBRANCH  15  16
BRANCH  15  19
HETATM   19  C   UNK N   1       2.345   1.400  -0.348  0.00  0.00    -0.027 A 
HETATM   20  C   UNK N   1       2.522   0.020  -0.519  0.00  0.00     0.010 A 
HETATM   21  C   UNK N   1       1.414  -0.823  -0.654  0.00  0.00     0.001 A 
HETATM   22  C   UNK N   1       0.121  -0.292  -0.623  0.00  0.00     0.000 A 
HETATM   23  C   UNK N   1      -0.064   1.083  -0.456  0.00  0.00     0.001 A 
HETATM   24  C   UNK N   1       1.042   1.927  -0.323  0.00  0.00     0.010 A 
ENDBRANCH  15  19
ENDBRANCH  12  15
ENDBRANCH   7  11
BRANCH   6  25
HETATM   25  C   UNK N   1       8.771  -2.450  -0.263  0.00  0.00     0.160 C 
HETATM   26  O   UNK N   1       9.913  -2.854  -0.411  0.00  0.00    -0.649 OA
BRANCH  25  27
HETATM   27  O   UNK N   1       7.737  -3.282  -0.485  0.00  0.00    -0.775 OA
HETATM   28  H   UNK N   1       6.875  -2.948  -0.640  0.00  0.00     0.167 HD
ENDBRANCH  25  27
ENDBRANCH   6  25
TORSDOF 6
