MODEL 1
REMARK VINA RESULT:      -7.4      0.000      0.000
REMARK  6 active torsions:
REMARK  status: ('A' for Active; 'I' for Inactive)
REMARK    1  A    between atoms: O_3  and  C_16 
REMARK    2  A    between atoms: C_12  and  N_7 
REMARK       I    between atoms: N_7  and  C_17 
REMARK    3  A    between atoms: C_18  and  N_8 
REMARK    4  A    between atoms: C_11  and  C_16 
REMARK    5  A    between atoms: C_17  and  C_18 
REMARK    6  A    between atoms: C_18  and  C_19 
ROOT
HETATM    1  S   UNK N   1      34.555  12.057  10.020  0.00  0.00    -0.135 SA
HETATM    2  O   UNK N   1      35.434  14.246  13.573  0.00  0.00    -0.277 OA
HETATM    3  N   UNK N   1      36.012  13.624  11.486  0.00  0.00    -0.219 NA
HETATM    4  C   UNK N   1      35.969  12.234  11.178  0.00  0.00     0.160 A 
HETATM    5  C   UNK N   1      34.843  13.785   9.460  0.00  0.00     0.029 C 
HETATM    6  C   UNK N   1      35.190  14.535  10.748  0.00  0.00     0.182 C 
HETATM    7  C   UNK N   1      35.791  11.958  12.767  0.00  0.00     0.199 A 
HETATM    8  C   UNK N   1      35.883  13.440  12.769  0.00  0.00     0.227 A 
HETATM    9  C   UNK N   1      33.601  14.364   8.814  0.00  0.00     0.029 C 
HETATM   10  C   UNK N   1      35.992  13.785   8.455  0.00  0.00     0.029 C 
ENDROOT
BRANCH   7  11
HETATM   11  N   UNK N   1      34.438  11.620  13.140  0.00  0.00    -0.344 N 
HETATM   12  C   UNK N   1      34.161  11.059  14.343  0.00  0.00     0.245 C 
HETATM   13  O   UNK N   1      32.997  10.871  14.665  0.00  0.00    -0.271 OA
HETATM   14  H   UNK N   1      33.704  11.801  12.510  0.00  0.00     0.163 HD
BRANCH  12  15
HETATM   15  C   UNK N   1      35.273  10.644  15.276  0.00  0.00     0.201 C 
BRANCH  15  16
HETATM   16  N   UNK N   1      35.265   9.194  15.420  0.00  0.00    -0.415 N 
HETATM   17  H   UNK N   1      35.994   8.634  14.975  0.00  0.00     0.151 HD
HETATM   18  H   UNK N   1      34.533   8.740  15.965  0.00  0.00     0.151 HD
ENDBRANCH  15  16
BRANCH  15  19
HETATM   19  C   UNK N   1      35.229  11.343  16.613  0.00  0.00    -0.027 A 
HETATM   20  C   UNK N   1      35.145  12.742  16.659  0.00  0.00     0.010 A 
HETATM   21  C   UNK N   1      35.151  13.410  17.888  0.00  0.00     0.001 A 
HETATM   22  C   UNK N   1      35.247  12.685  19.080  0.00  0.00     0.000 A 
HETATM   23  C   UNK N   1      35.335  11.291  19.042  0.00  0.00     0.001 A 
HETATM   24  C   UNK N   1      35.330  10.622  17.815  0.00  0.00     0.010 A 
ENDBRANCH  15  19
ENDBRANCH  12  15
ENDBRANCH   7  11
BRANCH   6  25
HETATM   25  C   UNK N   1      35.729  15.940  10.692  0.00  0.00     0.160 C 
HETATM   26  O   UNK N   1      34.980  16.896  10.578  0.00  0.00    -0.649 OA
BRANCH  25  27
HETATM   27  O   UNK N   1      37.053  16.144  10.824  0.00  0.00    -0.775 OA
HETATM   28  H   UNK N   1      37.381  16.909  11.255  0.00  0.00     0.167 HD
ENDBRANCH  25  27
ENDBRANCH   6  25
TORSDOF 6
ENDMDL
MODEL 2
REMARK VINA RESULT:      -6.7      2.816      3.962
REMARK  6 active torsions:
REMARK  status: ('A' for Active; 'I' for Inactive)
REMARK    1  A    between atoms: O_3  and  C_16 
REMARK    2  A    between atoms: C_12  and  N_7 
REMARK       I    between atoms: N_7  and  C_17 
REMARK    3  A    between atoms: C_18  and  N_8 
REMARK    4  A    between atoms: C_11  and  C_16 
REMARK    5  A    between atoms: C_17  and  C_18 
REMARK    6  A    between atoms: C_18  and  C_19 
ROOT
HETATM    1  S   UNK N   1      32.769  14.685   9.441  0.00  0.00    -0.135 SA
HETATM    2  O   UNK N   1      36.408  16.589  10.589  0.00  0.00    -0.277 OA
HETATM    3  N   UNK N   1      35.061  15.800   8.964  0.00  0.00    -0.219 NA
HETATM    4  C   UNK N   1      34.562  14.474   9.109  0.00  0.00     0.160 A 
HETATM    5  C   UNK N   1      32.812  16.255   8.482  0.00  0.00     0.029 C 
HETATM    6  C   UNK N   1      34.142  16.895   8.888  0.00  0.00     0.182 C 
HETATM    7  C   UNK N   1      35.622  14.282  10.322  0.00  0.00     0.199 A 
HETATM    8  C   UNK N   1      35.933  15.678   9.924  0.00  0.00     0.227 A 
HETATM    9  C   UNK N   1      31.646  17.151   8.849  0.00  0.00     0.029 C 
HETATM   10  C   UNK N   1      32.753  15.917   6.996  0.00  0.00     0.029 C 
ENDROOT
BRANCH   7  11
HETATM   11  N   UNK N   1      35.012  14.344  11.630  0.00  0.00    -0.344 N 
HETATM   12  C   UNK N   1      34.975  13.257  12.439  0.00  0.00     0.245 C 
HETATM   13  O   UNK N   1      34.536  13.367  13.574  0.00  0.00    -0.271 OA
HETATM   14  H   UNK N   1      34.618  15.191  11.939  0.00  0.00     0.163 HD
BRANCH  12  15
HETATM   15  C   UNK N   1      35.447  11.911  11.946  0.00  0.00     0.201 C 
BRANCH  15  16
HETATM   16  N   UNK N   1      34.307  11.150  11.454  0.00  0.00    -0.415 N 
HETATM   17  H   UNK N   1      34.412  10.543  10.640  0.00  0.00     0.151 HD
HETATM   18  H   UNK N   1      33.405  11.223  11.923  0.00  0.00     0.151 HD
ENDBRANCH  15  16
BRANCH  15  19
HETATM   19  C   UNK N   1      36.241  11.138  12.972  0.00  0.00    -0.027 A 
HETATM   20  C   UNK N   1      35.676  10.004  13.572  0.00  0.00     0.010 A 
HETATM   21  C   UNK N   1      36.377   9.303  14.559  0.00  0.00     0.001 A 
HETATM   22  C   UNK N   1      37.646   9.734  14.957  0.00  0.00     0.000 A 
HETATM   23  C   UNK N   1      38.215  10.866  14.367  0.00  0.00     0.001 A 
HETATM   24  C   UNK N   1      37.515  11.568  13.382  0.00  0.00     0.010 A 
ENDBRANCH  15  19
ENDBRANCH  12  15
ENDBRANCH   7  11
BRANCH   6  25
HETATM   25  C   UNK N   1      34.672  18.091   8.141  0.00  0.00     0.160 C 
HETATM   26  O   UNK N   1      34.464  18.228   6.947  0.00  0.00    -0.649 OA
BRANCH  25  27
HETATM   27  O   UNK N   1      35.339  19.046   8.814  0.00  0.00    -0.775 OA
HETATM   28  H   UNK N   1      35.300  19.942   8.543  0.00  0.00     0.167 HD
ENDBRANCH  25  27
ENDBRANCH   6  25
TORSDOF 6
ENDMDL
MODEL 3
REMARK VINA RESULT:      -6.6      2.070      2.842
REMARK  6 active torsions:
REMARK  status: ('A' for Active; 'I' for Inactive)
REMARK    1  A    between atoms: O_3  and  C_16 
REMARK    2  A    between atoms: C_12  and  N_7 
REMARK       I    between atoms: N_7  and  C_17 
REMARK    3  A    between atoms: C_18  and  N_8 
REMARK    4  A    between atoms: C_11  and  C_16 
REMARK    5  A    between atoms: C_17  and  C_18 
REMARK    6  A    between atoms: C_18  and  C_19 
ROOT
HETATM    1  S   UNK N   1      34.819  13.409   8.879  0.00  0.00    -0.135 SA
HETATM    2  O   UNK N   1      35.063  16.347  11.961  0.00  0.00    -0.277 OA
HETATM    3  N   UNK N   1      35.645  15.646   9.900  0.00  0.00    -0.219 NA
HETATM    4  C   UNK N   1      36.142  14.317   9.773  0.00  0.00     0.160 A 
HETATM    5  C   UNK N   1      34.327  14.989   8.076  0.00  0.00     0.029 C 
HETATM    6  C   UNK N   1      34.458  16.025   9.194  0.00  0.00     0.182 C 
HETATM    7  C   UNK N   1      36.241  14.274  11.392  0.00  0.00     0.199 A 
HETATM    8  C   UNK N   1      35.723  15.652  11.200  0.00  0.00     0.227 A 
HETATM    9  C   UNK N   1      32.901  14.921   7.566  0.00  0.00     0.029 C 
HETATM   10  C   UNK N   1      35.276  15.259   6.912  0.00  0.00     0.029 C 
ENDROOT
BRANCH   7  11
HETATM   11  N   UNK N   1      35.183  13.509  12.009  0.00  0.00    -0.344 N 
HETATM   12  C   UNK N   1      35.318  13.008  13.262  0.00  0.00     0.245 C 
HETATM   13  O   UNK N   1      34.371  12.446  13.790  0.00  0.00    -0.271 OA
HETATM   14  H   UNK N   1      34.349  13.350  11.512  0.00  0.00     0.163 HD
BRANCH  12  15
HETATM   15  C   UNK N   1      36.631  13.116  13.999  0.00  0.00     0.201 C 
BRANCH  15  16
HETATM   16  N   UNK N   1      37.167  11.782  14.230  0.00  0.00    -0.415 N 
HETATM   17  H   UNK N   1      37.706  11.316  13.500  0.00  0.00     0.151 HD
HETATM   18  H   UNK N   1      37.003  11.314  15.121  0.00  0.00     0.151 HD
ENDBRANCH  15  16
BRANCH  15  19
HETATM   19  C   UNK N   1      36.539  13.916  15.277  0.00  0.00    -0.027 A 
HETATM   20  C   UNK N   1      37.254  15.116  15.395  0.00  0.00     0.010 A 
HETATM   21  C   UNK N   1      37.219  15.845  16.588  0.00  0.00     0.001 A 
HETATM   22  C   UNK N   1      36.472  15.378  17.673  0.00  0.00     0.000 A 
HETATM   23  C   UNK N   1      35.759  14.181  17.565  0.00  0.00     0.001 A 
HETATM   24  C   UNK N   1      35.795  13.450  16.375  0.00  0.00     0.010 A 
ENDBRANCH  15  19
ENDBRANCH  12  15
ENDBRANCH   7  11
BRANCH   6  25
HETATM   25  C   UNK N   1      34.373  17.497   8.885  0.00  0.00     0.160 C 
HETATM   26  O   UNK N   1      35.319  18.239   9.095  0.00  0.00    -0.649 OA
BRANCH  25  27
HETATM   27  O   UNK N   1      33.255  17.988   8.319  0.00  0.00    -0.775 OA
HETATM   28  H   UNK N   1      33.166  18.030   7.387  0.00  0.00     0.167 HD
ENDBRANCH  25  27
ENDBRANCH   6  25
TORSDOF 6
ENDMDL
MODEL 4
REMARK VINA RESULT:      -6.5      5.877     10.497
REMARK  6 active torsions:
REMARK  status: ('A' for Active; 'I' for Inactive)
REMARK    1  A    between atoms: O_3  and  C_16 
REMARK    2  A    between atoms: C_12  and  N_7 
REMARK       I    between atoms: N_7  and  C_17 
REMARK    3  A    between atoms: C_18  and  N_8 
REMARK    4  A    between atoms: C_11  and  C_16 
REMARK    5  A    between atoms: C_17  and  C_18 
REMARK    6  A    between atoms: C_18  and  C_19 
ROOT
HETATM    1  S   UNK N   1      33.094  14.472   7.068  0.00  0.00    -0.135 SA
HETATM    2  O   UNK N   1      32.766  18.518   8.376  0.00  0.00    -0.277 OA
HETATM    3  N   UNK N   1      32.783  16.318   8.863  0.00  0.00    -0.219 NA
HETATM    4  C   UNK N   1      31.940  15.467   8.093  0.00  0.00     0.160 A 
HETATM    5  C   UNK N   1      34.365  14.655   8.385  0.00  0.00     0.029 C 
HETATM    6  C   UNK N   1      34.199  16.101   8.857  0.00  0.00     0.182 C 
HETATM    7  C   UNK N   1      31.240  16.807   7.505  0.00  0.00     0.199 A 
HETATM    8  C   UNK N   1      32.237  17.415   8.422  0.00  0.00     0.227 A 
HETATM    9  C   UNK N   1      35.758  14.422   7.836  0.00  0.00     0.029 C 
HETATM   10  C   UNK N   1      34.072  13.641   9.487  0.00  0.00     0.029 C 
ENDROOT
BRANCH   7  11
HETATM   11  N   UNK N   1      31.657  17.127   6.160  0.00  0.00    -0.344 N 
HETATM   12  C   UNK N   1      30.750  17.321   5.171  0.00  0.00     0.245 C 
HETATM   13  O   UNK N   1      31.131  17.681   4.068  0.00  0.00    -0.271 OA
HETATM   14  H   UNK N   1      32.617  17.207   5.958  0.00  0.00     0.163 HD
BRANCH  12  15
HETATM   15  C   UNK N   1      29.280  17.075   5.413  0.00  0.00     0.201 C 
BRANCH  15  16
HETATM   16  N   UNK N   1      28.768  16.171   4.392  0.00  0.00    -0.415 N 
HETATM   17  H   UNK N   1      27.765  16.124   4.210  0.00  0.00     0.151 HD
HETATM   18  H   UNK N   1      29.412  15.586   3.860  0.00  0.00     0.151 HD
ENDBRANCH  15  16
BRANCH  15  19
HETATM   19  C   UNK N   1      28.465  18.343   5.504  0.00  0.00    -0.027 A 
HETATM   20  C   UNK N   1      27.986  18.942   4.331  0.00  0.00     0.010 A 
HETATM   21  C   UNK N   1      27.270  20.142   4.393  0.00  0.00     0.001 A 
HETATM   22  C   UNK N   1      27.030  20.753   5.627  0.00  0.00     0.000 A 
HETATM   23  C   UNK N   1      27.507  20.164   6.801  0.00  0.00     0.001 A 
HETATM   24  C   UNK N   1      28.225  18.966   6.741  0.00  0.00     0.010 A 
ENDBRANCH  15  19
ENDBRANCH  12  15
ENDBRANCH   7  11
BRANCH   6  25
HETATM   25  C   UNK N   1      34.899  16.584  10.100  0.00  0.00     0.160 C 
HETATM   26  O   UNK N   1      35.668  17.531  10.059  0.00  0.00    -0.649 OA
BRANCH  25  27
HETATM   27  O   UNK N   1      34.629  15.996  11.279  0.00  0.00    -0.775 OA
HETATM   28  H   UNK N   1      34.271  16.488  11.992  0.00  0.00     0.167 HD
ENDBRANCH  25  27
ENDBRANCH   6  25
TORSDOF 6
ENDMDL
MODEL 5
REMARK VINA RESULT:      -6.2      7.041     10.895
REMARK  6 active torsions:
REMARK  status: ('A' for Active; 'I' for Inactive)
REMARK    1  A    between atoms: O_3  and  C_16 
REMARK    2  A    between atoms: C_12  and  N_7 
REMARK       I    between atoms: N_7  and  C_17 
REMARK    3  A    between atoms: C_18  and  N_8 
REMARK    4  A    between atoms: C_11  and  C_16 
REMARK    5  A    between atoms: C_17  and  C_18 
REMARK    6  A    between atoms: C_18  and  C_19 
ROOT
HETATM    1  S   UNK N   1      32.056  15.289   9.048  0.00  0.00    -0.135 SA
HETATM    2  O   UNK N   1      31.727  16.402   4.944  0.00  0.00    -0.277 OA
HETATM    3  N   UNK N   1      32.925  16.361   6.851  0.00  0.00    -0.219 NA
HETATM    4  C   UNK N   1      32.283  16.808   8.041  0.00  0.00     0.160 A 
HETATM    5  C   UNK N   1      33.542  14.572   8.236  0.00  0.00     0.029 C 
HETATM    6  C   UNK N   1      33.414  15.017   6.777  0.00  0.00     0.182 C 
HETATM    7  C   UNK N   1      31.090  17.377   7.101  0.00  0.00     0.199 A 
HETATM    8  C   UNK N   1      31.993  16.816   6.065  0.00  0.00     0.227 A 
HETATM    9  C   UNK N   1      33.546  13.060   8.341  0.00  0.00     0.029 C 
HETATM   10  C   UNK N   1      34.787  15.137   8.914  0.00  0.00     0.029 C 
ENDROOT
BRANCH   7  11
HETATM   11  N   UNK N   1      29.905  16.552   7.119  0.00  0.00    -0.344 N 
HETATM   12  C   UNK N   1      28.676  17.091   7.308  0.00  0.00     0.245 C 
HETATM   13  O   UNK N   1      27.687  16.379   7.225  0.00  0.00    -0.271 OA
HETATM   14  H   UNK N   1      29.992  15.580   6.990  0.00  0.00     0.163 HD
BRANCH  12  15
HETATM   15  C   UNK N   1      28.519  18.555   7.643  0.00  0.00     0.201 C 
BRANCH  15  16
HETATM   16  N   UNK N   1      27.766  18.688   8.883  0.00  0.00    -0.415 N 
HETATM   17  H   UNK N   1      28.119  19.285   9.632  0.00  0.00     0.151 HD
HETATM   18  H   UNK N   1      26.887  18.185   9.002  0.00  0.00     0.151 HD
ENDBRANCH  15  16
BRANCH  15  19
HETATM   19  C   UNK N   1      27.911  19.367   6.524  0.00  0.00    -0.027 A 
HETATM   20  C   UNK N   1      27.110  20.475   6.831  0.00  0.00     0.010 A 
HETATM   21  C   UNK N   1      26.500  21.210   5.809  0.00  0.00     0.001 A 
HETATM   22  C   UNK N   1      26.683  20.840   4.473  0.00  0.00     0.000 A 
HETATM   23  C   UNK N   1      27.478  19.734   4.159  0.00  0.00     0.001 A 
HETATM   24  C   UNK N   1      28.087  18.998   5.179  0.00  0.00     0.010 A 
ENDBRANCH  15  19
ENDBRANCH  12  15
ENDBRANCH   7  11
BRANCH   6  25
HETATM   25  C   UNK N   1      34.562  14.834   5.819  0.00  0.00     0.160 C 
HETATM   26  O   UNK N   1      34.540  13.954   4.974  0.00  0.00    -0.649 OA
BRANCH  25  27
HETATM   27  O   UNK N   1      35.600  15.688   5.863  0.00  0.00    -0.775 OA
HETATM   28  H   UNK N   1      36.228  15.720   5.167  0.00  0.00     0.167 HD
ENDBRANCH  25  27
ENDBRANCH   6  25
TORSDOF 6
ENDMDL
MODEL 6
REMARK VINA RESULT:      -6.2      4.098      8.239
REMARK  6 active torsions:
REMARK  status: ('A' for Active; 'I' for Inactive)
REMARK    1  A    between atoms: O_3  and  C_16 
REMARK    2  A    between atoms: C_12  and  N_7 
REMARK       I    between atoms: N_7  and  C_17 
REMARK    3  A    between atoms: C_18  and  N_8 
REMARK    4  A    between atoms: C_11  and  C_16 
REMARK    5  A    between atoms: C_17  and  C_18 
REMARK    6  A    between atoms: C_18  and  C_19 
ROOT
HETATM    1  S   UNK N   1      36.449  13.816   8.000  0.00  0.00    -0.135 SA
HETATM    2  O   UNK N   1      34.789  15.957  11.293  0.00  0.00    -0.277 OA
HETATM    3  N   UNK N   1      35.253  13.992  10.295  0.00  0.00    -0.219 NA
HETATM    4  C   UNK N   1      34.867  13.839   8.932  0.00  0.00     0.160 A 
HETATM    5  C   UNK N   1      37.276  13.121   9.490  0.00  0.00     0.029 C 
HETATM    6  C   UNK N   1      36.635  13.882  10.652  0.00  0.00     0.182 C 
HETATM    7  C   UNK N   1      34.009  15.206   9.093  0.00  0.00     0.199 A 
HETATM    8  C   UNK N   1      34.565  15.085  10.465  0.00  0.00     0.227 A 
HETATM    9  C   UNK N   1      38.771  13.360   9.446  0.00  0.00     0.029 C 
HETATM   10  C   UNK N   1      36.996  11.622   9.546  0.00  0.00     0.029 C 
ENDROOT
BRANCH   7  11
HETATM   11  N   UNK N   1      34.641  16.353   8.483  0.00  0.00    -0.344 N 
HETATM   12  C   UNK N   1      34.043  17.027   7.470  0.00  0.00     0.245 C 
HETATM   13  O   UNK N   1      34.560  18.046   7.039  0.00  0.00    -0.271 OA
HETATM   14  H   UNK N   1      35.520  16.651   8.810  0.00  0.00     0.163 HD
BRANCH  12  15
HETATM   15  C   UNK N   1      32.762  16.519   6.855  0.00  0.00     0.201 C 
BRANCH  15  16
HETATM   16  N   UNK N   1      32.844  16.635   5.405  0.00  0.00    -0.415 N 
HETATM   17  H   UNK N   1      33.678  17.030   4.971  0.00  0.00     0.151 HD
HETATM   18  H   UNK N   1      32.067  16.320   4.824  0.00  0.00     0.151 HD
ENDBRANCH  15  16
BRANCH  15  19
HETATM   19  C   UNK N   1      31.524  17.186   7.405  0.00  0.00    -0.027 A 
HETATM   20  C   UNK N   1      30.320  17.106   6.692  0.00  0.00     0.010 A 
HETATM   21  C   UNK N   1      29.176  17.758   7.162  0.00  0.00     0.001 A 
HETATM   22  C   UNK N   1      29.227  18.499   8.346  0.00  0.00     0.000 A 
HETATM   23  C   UNK N   1      30.424  18.587   9.062  0.00  0.00     0.001 A 
HETATM   24  C   UNK N   1      31.570  17.937   8.593  0.00  0.00     0.010 A 
ENDBRANCH  15  19
ENDBRANCH  12  15
ENDBRANCH   7  11
BRANCH   6  25
HETATM   25  C   UNK N   1      36.867  13.441  12.074  0.00  0.00     0.160 C 
HETATM   26  O   UNK N   1      37.153  12.284  12.334  0.00  0.00    -0.649 OA
BRANCH  25  27
HETATM   27  O   UNK N   1      36.810  14.351  13.064  0.00  0.00    -0.775 OA
HETATM   28  H   UNK N   1      37.359  14.274  13.820  0.00  0.00     0.167 HD
ENDBRANCH  25  27
ENDBRANCH   6  25
TORSDOF 6
ENDMDL
MODEL 7
REMARK VINA RESULT:      -6.1      2.465      7.446
REMARK  6 active torsions:
REMARK  status: ('A' for Active; 'I' for Inactive)
REMARK    1  A    between atoms: O_3  and  C_16 
REMARK    2  A    between atoms: C_12  and  N_7 
REMARK       I    between atoms: N_7  and  C_17 
REMARK    3  A    between atoms: C_18  and  N_8 
REMARK    4  A    between atoms: C_11  and  C_16 
REMARK    5  A    between atoms: C_17  and  C_18 
REMARK    6  A    between atoms: C_18  and  C_19 
ROOT
HETATM    1  S   UNK N   1      36.261  11.119  12.326  0.00  0.00    -0.135 SA
HETATM    2  O   UNK N   1      36.078  15.379  12.426  0.00  0.00    -0.277 OA
HETATM    3  N   UNK N   1      35.427  13.391  13.261  0.00  0.00    -0.219 NA
HETATM    4  C   UNK N   1      34.957  12.412  12.339  0.00  0.00     0.160 A 
HETATM    5  C   UNK N   1      36.682  11.578  14.057  0.00  0.00     0.029 C 
HETATM    6  C   UNK N   1      36.574  13.104  14.069  0.00  0.00     0.182 C 
HETATM    7  C   UNK N   1      34.926  13.584  11.217  0.00  0.00     0.199 A 
HETATM    8  C   UNK N   1      35.403  14.359  12.390  0.00  0.00     0.227 A 
HETATM    9  C   UNK N   1      38.086  11.133  14.414  0.00  0.00     0.029 C 
HETATM   10  C   UNK N   1      35.679  10.911  14.994  0.00  0.00     0.029 C 
ENDROOT
BRANCH   7  11
HETATM   11  N   UNK N   1      36.027  13.511  10.285  0.00  0.00    -0.344 N 
HETATM   12  C   UNK N   1      35.844  13.751   8.963  0.00  0.00     0.245 C 
HETATM   13  O   UNK N   1      36.811  13.773   8.217  0.00  0.00    -0.271 OA
HETATM   14  H   UNK N   1      36.926  13.285  10.616  0.00  0.00     0.163 HD
BRANCH  12  15
HETATM   15  C   UNK N   1      34.460  13.967   8.402  0.00  0.00     0.201 C 
BRANCH  15  16
HETATM   16  N   UNK N   1      34.230  13.031   7.311  0.00  0.00    -0.415 N 
HETATM   17  H   UNK N   1      33.987  12.061   7.514  0.00  0.00     0.151 HD
HETATM   18  H   UNK N   1      34.311  13.345   6.344  0.00  0.00     0.151 HD
ENDBRANCH  15  16
BRANCH  15  19
HETATM   19  C   UNK N   1      34.195  15.395   7.986  0.00  0.00    -0.027 A 
HETATM   20  C   UNK N   1      34.029  15.699   6.628  0.00  0.00     0.010 A 
HETATM   21  C   UNK N   1      33.831  17.022   6.219  0.00  0.00     0.001 A 
HETATM   22  C   UNK N   1      33.801  18.051   7.165  0.00  0.00     0.000 A 
HETATM   23  C   UNK N   1      33.969  17.756   8.521  0.00  0.00     0.001 A 
HETATM   24  C   UNK N   1      34.169  16.435   8.931  0.00  0.00     0.010 A 
ENDBRANCH  15  19
ENDBRANCH  12  15
ENDBRANCH   7  11
BRANCH   6  25
HETATM   25  C   UNK N   1      36.612  13.862  15.371  0.00  0.00     0.160 C 
HETATM   26  O   UNK N   1      35.759  13.685  16.225  0.00  0.00    -0.649 OA
BRANCH  25  27
HETATM   27  O   UNK N   1      37.632  14.705  15.613  0.00  0.00    -0.775 OA
HETATM   28  H   UNK N   1      38.419  14.667  15.105  0.00  0.00     0.167 HD
ENDBRANCH  25  27
ENDBRANCH   6  25
TORSDOF 6
ENDMDL
MODEL 8
REMARK VINA RESULT:      -6.0     19.412     22.449
REMARK  6 active torsions:
REMARK  status: ('A' for Active; 'I' for Inactive)
REMARK    1  A    between atoms: O_3  and  C_16 
REMARK    2  A    between atoms: C_12  and  N_7 
REMARK       I    between atoms: N_7  and  C_17 
REMARK    3  A    between atoms: C_18  and  N_8 
REMARK    4  A    between atoms: C_11  and  C_16 
REMARK    5  A    between atoms: C_17  and  C_18 
REMARK    6  A    between atoms: C_18  and  C_19 
ROOT
HETATM    1  S   UNK N   1      26.698  24.986  -3.795  0.00  0.00    -0.135 SA
HETATM    2  O   UNK N   1      30.550  26.513  -4.805  0.00  0.00    -0.277 OA
HETATM    3  N   UNK N   1      28.421  26.076  -5.399  0.00  0.00    -0.219 NA
HETATM    4  C   UNK N   1      27.923  24.766  -5.146  0.00  0.00     0.160 A 
HETATM    5  C   UNK N   1      26.393  26.697  -4.399  0.00  0.00     0.029 C 
HETATM    6  C   UNK N   1      27.784  27.203  -4.785  0.00  0.00     0.182 C 
HETATM    7  C   UNK N   1      29.450  24.322  -4.828  0.00  0.00     0.199 A 
HETATM    8  C   UNK N   1      29.660  25.753  -5.164  0.00  0.00     0.227 A 
HETATM    9  C   UNK N   1      25.786  27.560  -3.310  0.00  0.00     0.029 C 
HETATM   10  C   UNK N   1      25.442  26.629  -5.590  0.00  0.00     0.029 C 
ENDROOT
BRANCH   7  11
HETATM   11  N   UNK N   1      29.722  24.176  -3.417  0.00  0.00    -0.344 N 
HETATM   12  C   UNK N   1      30.458  23.139  -2.947  0.00  0.00     0.245 C 
HETATM   13  O   UNK N   1      30.747  23.096  -1.761  0.00  0.00    -0.271 OA
HETATM   14  H   UNK N   1      29.367  24.843  -2.786  0.00  0.00     0.163 HD
BRANCH  12  15
HETATM   15  C   UNK N   1      30.902  22.028  -3.868  0.00  0.00     0.201 C 
BRANCH  15  16
HETATM   16  N   UNK N   1      30.400  20.756  -3.366  0.00  0.00    -0.415 N 
HETATM   17  H   UNK N   1      29.661  20.741  -2.663  0.00  0.00     0.151 HD
HETATM   18  H   UNK N   1      30.787  19.881  -3.718  0.00  0.00     0.151 HD
ENDBRANCH  15  16
BRANCH  15  19
HETATM   19  C   UNK N   1      32.394  21.996  -4.095  0.00  0.00    -0.027 A 
HETATM   20  C   UNK N   1      32.981  22.924  -4.966  0.00  0.00     0.010 A 
HETATM   21  C   UNK N   1      34.355  22.879  -5.226  0.00  0.00     0.001 A 
HETATM   22  C   UNK N   1      35.151  21.903  -4.620  0.00  0.00     0.000 A 
HETATM   23  C   UNK N   1      34.573  20.971  -3.753  0.00  0.00     0.001 A 
HETATM   24  C   UNK N   1      33.201  21.014  -3.494  0.00  0.00     0.010 A 
ENDBRANCH  15  19
ENDBRANCH  12  15
ENDBRANCH   7  11
BRANCH   6  25
HETATM   25  C   UNK N   1      27.943  28.490  -5.552  0.00  0.00     0.160 C 
HETATM   26  O   UNK N   1      28.161  29.542  -4.974  0.00  0.00    -0.649 OA
BRANCH  25  27
HETATM   27  O   UNK N   1      27.896  28.467  -6.896  0.00  0.00    -0.775 OA
HETATM   28  H   UNK N   1      27.493  29.164  -7.376  0.00  0.00     0.167 HD
ENDBRANCH  25  27
ENDBRANCH   6  25
TORSDOF 6
ENDMDL
MODEL 9
REMARK VINA RESULT:      -6.0      6.153      8.511
REMARK  6 active torsions:
REMARK  status: ('A' for Active; 'I' for Inactive)
REMARK    1  A    between atoms: O_3  and  C_16 
REMARK    2  A    between atoms: C_12  and  N_7 
REMARK       I    between atoms: N_7  and  C_17 
REMARK    3  A    between atoms: C_18  and  N_8 
REMARK    4  A    between atoms: C_11  and  C_16 
REMARK    5  A    between atoms: C_17  and  C_18 
REMARK    6  A    between atoms: C_18  and  C_19 
ROOT
HETATM    1  S   UNK N   1      29.218  15.675   5.316  0.00  0.00    -0.135 SA
HETATM    2  O   UNK N   1      31.081  16.968   8.927  0.00  0.00    -0.277 OA
HETATM    3  N   UNK N   1      30.063  17.474   6.982  0.00  0.00    -0.219 NA
HETATM    4  C   UNK N   1      30.549  16.843   5.801  0.00  0.00     0.160 A 
HETATM    5  C   UNK N   1      27.994  16.794   6.113  0.00  0.00     0.029 C 
HETATM    6  C   UNK N   1      28.704  17.268   7.384  0.00  0.00     0.182 C 
HETATM    7  C   UNK N   1      31.823  16.346   6.675  0.00  0.00     0.199 A 
HETATM    8  C   UNK N   1      31.077  17.104   7.711  0.00  0.00     0.227 A 
HETATM    9  C   UNK N   1      26.716  16.054   6.452  0.00  0.00     0.029 C 
HETATM   10  C   UNK N   1      27.685  17.939   5.153  0.00  0.00     0.029 C 
ENDROOT
BRANCH   7  11
HETATM   11  N   UNK N   1      31.754  14.951   7.043  0.00  0.00    -0.344 N 
HETATM   12  C   UNK N   1      32.872  14.252   7.358  0.00  0.00     0.245 C 
HETATM   13  O   UNK N   1      32.770  13.101   7.755  0.00  0.00    -0.271 OA
HETATM   14  H   UNK N   1      30.879  14.500   7.066  0.00  0.00     0.163 HD
BRANCH  12  15
HETATM   15  C   UNK N   1      34.240  14.873   7.203  0.00  0.00     0.201 C 
BRANCH  15  16
HETATM   16  N   UNK N   1      35.056  14.032   6.338  0.00  0.00    -0.415 N 
HETATM   17  H   UNK N   1      35.750  13.404   6.745  0.00  0.00     0.151 HD
HETATM   18  H   UNK N   1      34.933  14.071   5.327  0.00  0.00     0.151 HD
ENDBRANCH  15  16
BRANCH  15  19
HETATM   19  C   UNK N   1      34.923  15.160   8.519  0.00  0.00    -0.027 A 
HETATM   20  C   UNK N   1      34.554  16.294   9.256  0.00  0.00     0.010 A 
HETATM   21  C   UNK N   1      35.209  16.602  10.453  0.00  0.00     0.001 A 
HETATM   22  C   UNK N   1      36.240  15.781  10.919  0.00  0.00     0.000 A 
HETATM   23  C   UNK N   1      36.617  14.651  10.188  0.00  0.00     0.001 A 
HETATM   24  C   UNK N   1      35.965  14.343   8.991  0.00  0.00     0.010 A 
ENDBRANCH  15  19
ENDBRANCH  12  15
ENDBRANCH   7  11
BRANCH   6  25
HETATM   25  C   UNK N   1      28.130  18.392   8.205  0.00  0.00     0.160 C 
HETATM   26  O   UNK N   1      28.243  19.553   7.848  0.00  0.00    -0.649 OA
BRANCH  25  27
HETATM   27  O   UNK N   1      27.436  18.104   9.322  0.00  0.00    -0.775 OA
HETATM   28  H   UNK N   1      26.619  17.646   9.277  0.00  0.00     0.167 HD
ENDBRANCH  25  27
ENDBRANCH   6  25
TORSDOF 6
ENDMDL
