MODEL 1
REMARK VINA RESULT:      -6.8      0.000      0.000
REMARK  6 active torsions:
REMARK  status: ('A' for Active; 'I' for Inactive)
REMARK    1  A    between atoms: O_3  and  C_16 
REMARK    2  A    between atoms: O_6  and  C_18 
REMARK    3  A    between atoms: O_6  and  C_19 
REMARK    4  A    between atoms: C_12  and  N_8 
REMARK       I    between atoms: N_8  and  C_17 
REMARK    5  A    between atoms: C_11  and  C_16 
REMARK    6  A    between atoms: C_17  and  C_18 
ROOT
HETATM    1  S   UNK N   1      35.945  14.595   7.607  0.00  0.00    -0.135 SA
HETATM    2  O   UNK N   1      34.114  14.991  11.574  0.00  0.00    -0.277 OA
HETATM    3  N   UNK N   1      34.585  13.838   9.677  0.00  0.00    -0.219 NA
HETATM    4  C   UNK N   1      34.315  14.454   8.424  0.00  0.00     0.160 A 
HETATM    5  C   UNK N   1      36.454  13.069   8.500  0.00  0.00     0.029 C 
HETATM    6  C   UNK N   1      35.864  13.192   9.924  0.00  0.00     0.182 C 
HETATM    7  C   UNK N   1      33.677  15.696   9.249  0.00  0.00     0.199 A 
HETATM    8  C   UNK N   1      34.017  14.783  10.371  0.00  0.00     0.227 A 
HETATM    9  C   UNK N   1      37.965  12.888   8.447  0.00  0.00     0.029 C 
HETATM   10  C   UNK N   1      35.834  11.870   7.800  0.00  0.00     0.029 C 
ENDROOT
BRANCH   7  11
HETATM   11  N   UNK N   1      34.610  16.799   9.304  0.00  0.00    -0.344 N 
HETATM   12  C   UNK N   1      34.499  17.891   8.510  0.00  0.00     0.242 C 
HETATM   13  O   UNK N   1      35.293  18.806   8.634  0.00  0.00    -0.271 OA
HETATM   14  H   UNK N   1      35.358  16.754   9.943  0.00  0.00     0.163 HD
BRANCH  12  15
HETATM   15  C   UNK N   1      33.424  17.991   7.473  0.00  0.00     0.278 C 
BRANCH  15  16
HETATM   16  O   UNK N   1      34.017  18.002   6.232  0.00  0.00    -0.342 OA
BRANCH  16  17
HETATM   17  C   UNK N   1      33.566  17.269   5.191  0.00  0.00     0.069 A 
HETATM   18  C   UNK N   1      32.687  17.810   4.235  0.00  0.00     0.037 A 
HETATM   19  C   UNK N   1      32.254  17.030   3.160  0.00  0.00     0.003 A 
HETATM   20  C   UNK N   1      32.699  15.712   3.029  0.00  0.00     0.000 A 
HETATM   21  C   UNK N   1      33.573  15.171   3.977  0.00  0.00     0.003 A 
HETATM   22  C   UNK N   1      34.002  15.948   5.056  0.00  0.00     0.037 A 
ENDBRANCH  16  17
ENDBRANCH  15  16
ENDBRANCH  12  15
ENDBRANCH   7  11
BRANCH   6  23
HETATM   23  C   UNK N   1      36.808  13.987  10.834  0.00  0.00     0.160 C 
HETATM   24  O   UNK N   1      37.371  13.414  11.752  0.00  0.00    -0.649 OA
BRANCH  23  25
HETATM   25  O   UNK N   1      37.120  15.276  10.585  0.00  0.00    -0.775 OA
HETATM   26  H   UNK N   1      37.229  15.948  11.228  0.00  0.00     0.167 HD
ENDBRANCH  23  25
ENDBRANCH   6  23
TORSDOF 6
ENDMDL
MODEL 2
REMARK VINA RESULT:      -6.7     13.014     15.380
REMARK  6 active torsions:
REMARK  status: ('A' for Active; 'I' for Inactive)
REMARK    1  A    between atoms: O_3  and  C_16 
REMARK    2  A    between atoms: O_6  and  C_18 
REMARK    3  A    between atoms: O_6  and  C_19 
REMARK    4  A    between atoms: C_12  and  N_8 
REMARK       I    between atoms: N_8  and  C_17 
REMARK    5  A    between atoms: C_11  and  C_16 
REMARK    6  A    between atoms: C_17  and  C_18 
ROOT
HETATM    1  S   UNK N   1      21.102  15.027   4.560  0.00  0.00    -0.135 SA
HETATM    2  O   UNK N   1      21.070  19.358   5.257  0.00  0.00    -0.277 OA
HETATM    3  N   UNK N   1      22.048  17.438   4.544  0.00  0.00    -0.219 NA
HETATM    4  C   UNK N   1      22.067  16.320   5.423  0.00  0.00     0.160 A 
HETATM    5  C   UNK N   1      21.675  15.750   2.969  0.00  0.00     0.029 C 
HETATM    6  C   UNK N   1      21.634  17.285   3.159  0.00  0.00     0.182 C 
HETATM    7  C   UNK N   1      21.382  17.274   6.542  0.00  0.00     0.199 A 
HETATM    8  C   UNK N   1      21.565  18.254   5.439  0.00  0.00     0.227 A 
HETATM    9  C   UNK N   1      20.844  15.228   1.805  0.00  0.00     0.029 C 
HETATM   10  C   UNK N   1      23.111  15.311   2.728  0.00  0.00     0.029 C 
ENDROOT
BRANCH   7  11
HETATM   11  N   UNK N   1      19.964  17.005   6.637  0.00  0.00    -0.344 N 
HETATM   12  C   UNK N   1      19.401  16.434   7.729  0.00  0.00     0.242 C 
HETATM   13  O   UNK N   1      18.193  16.273   7.765  0.00  0.00    -0.271 OA
HETATM   14  H   UNK N   1      19.385  17.245   5.878  0.00  0.00     0.163 HD
BRANCH  12  15
HETATM   15  C   UNK N   1      20.234  15.987   8.889  0.00  0.00     0.278 C 
BRANCH  15  16
HETATM   16  O   UNK N   1      19.901  14.686   9.187  0.00  0.00    -0.342 OA
BRANCH  16  17
HETATM   17  C   UNK N   1      20.732  13.839   9.832  0.00  0.00     0.069 A 
HETATM   18  C   UNK N   1      20.254  12.919  10.784  0.00  0.00     0.037 A 
HETATM   19  C   UNK N   1      21.139  12.046  11.420  0.00  0.00     0.003 A 
HETATM   20  C   UNK N   1      22.501  12.080  11.107  0.00  0.00     0.000 A 
HETATM   21  C   UNK N   1      22.980  12.992  10.162  0.00  0.00     0.003 A 
HETATM   22  C   UNK N   1      22.097  13.871   9.529  0.00  0.00     0.037 A 
ENDBRANCH  16  17
ENDBRANCH  15  16
ENDBRANCH  12  15
ENDBRANCH   7  11
BRANCH   6  23
HETATM   23  C   UNK N   1      20.235  17.831   2.853  0.00  0.00     0.160 C 
HETATM   24  O   UNK N   1      20.078  18.551   1.880  0.00  0.00    -0.649 OA
BRANCH  23  25
HETATM   25  O   UNK N   1      19.152  17.452   3.561  0.00  0.00    -0.775 OA
HETATM   26  H   UNK N   1      18.259  17.556   3.298  0.00  0.00     0.167 HD
ENDBRANCH  23  25
ENDBRANCH   6  23
TORSDOF 6
ENDMDL
MODEL 3
REMARK VINA RESULT:      -6.6      3.576      8.034
REMARK  6 active torsions:
REMARK  status: ('A' for Active; 'I' for Inactive)
REMARK    1  A    between atoms: O_3  and  C_16 
REMARK    2  A    between atoms: O_6  and  C_18 
REMARK    3  A    between atoms: O_6  and  C_19 
REMARK    4  A    between atoms: C_12  and  N_8 
REMARK       I    between atoms: N_8  and  C_17 
REMARK    5  A    between atoms: C_11  and  C_16 
REMARK    6  A    between atoms: C_17  and  C_18 
ROOT
HETATM    1  S   UNK N   1      34.724  13.303   8.197  0.00  0.00    -0.135 SA
HETATM    2  O   UNK N   1      34.938  16.722  10.937  0.00  0.00    -0.277 OA
HETATM    3  N   UNK N   1      35.274  15.726   8.926  0.00  0.00    -0.219 NA
HETATM    4  C   UNK N   1      35.945  14.473   8.893  0.00  0.00     0.160 A 
HETATM    5  C   UNK N   1      34.023  14.705   7.234  0.00  0.00     0.029 C 
HETATM    6  C   UNK N   1      34.039  15.925   8.185  0.00  0.00     0.182 C 
HETATM    7  C   UNK N   1      36.152  14.619  10.496  0.00  0.00     0.199 A 
HETATM    8  C   UNK N   1      35.484  15.913  10.199  0.00  0.00     0.227 A 
HETATM    9  C   UNK N   1      32.653  14.348   6.675  0.00  0.00     0.029 C 
HETATM   10  C   UNK N   1      34.935  14.980   6.048  0.00  0.00     0.029 C 
ENDROOT
BRANCH   7  11
HETATM   11  N   UNK N   1      35.193  13.802  11.206  0.00  0.00    -0.344 N 
HETATM   12  C   UNK N   1      35.366  13.427  12.496  0.00  0.00     0.242 C 
HETATM   13  O   UNK N   1      34.501  12.773  13.051  0.00  0.00    -0.271 OA
HETATM   14  H   UNK N   1      34.382  13.505  10.733  0.00  0.00     0.163 HD
BRANCH  12  15
HETATM   15  C   UNK N   1      36.606  13.790  13.251  0.00  0.00     0.278 C 
BRANCH  15  16
HETATM   16  O   UNK N   1      36.560  13.180  14.482  0.00  0.00    -0.342 OA
BRANCH  16  17
HETATM   17  C   UNK N   1      36.410  13.861  15.639  0.00  0.00     0.069 A 
HETATM   18  C   UNK N   1      35.508  13.438  16.632  0.00  0.00     0.037 A 
HETATM   19  C   UNK N   1      35.391  14.155  17.825  0.00  0.00     0.003 A 
HETATM   20  C   UNK N   1      36.175  15.292  18.037  0.00  0.00     0.000 A 
HETATM   21  C   UNK N   1      37.074  15.715  17.053  0.00  0.00     0.003 A 
HETATM   22  C   UNK N   1      37.188  15.003  15.857  0.00  0.00     0.037 A 
ENDBRANCH  16  17
ENDBRANCH  15  16
ENDBRANCH  12  15
ENDBRANCH   7  11
BRANCH   6  23
HETATM   23  C   UNK N   1      32.776  15.949   9.055  0.00  0.00     0.160 C 
HETATM   24  O   UNK N   1      31.882  16.732   8.782  0.00  0.00    -0.649 OA
BRANCH  23  25
HETATM   25  O   UNK N   1      32.577  15.057  10.046  0.00  0.00    -0.775 OA
HETATM   26  H   UNK N   1      32.401  14.143   9.936  0.00  0.00     0.167 HD
ENDBRANCH  23  25
ENDBRANCH   6  23
TORSDOF 6
ENDMDL
MODEL 4
REMARK VINA RESULT:      -6.6      2.781      7.333
REMARK  6 active torsions:
REMARK  status: ('A' for Active; 'I' for Inactive)
REMARK    1  A    between atoms: O_3  and  C_16 
REMARK    2  A    between atoms: O_6  and  C_18 
REMARK    3  A    between atoms: O_6  and  C_19 
REMARK    4  A    between atoms: C_12  and  N_8 
REMARK       I    between atoms: N_8  and  C_17 
REMARK    5  A    between atoms: C_11  and  C_16 
REMARK    6  A    between atoms: C_17  and  C_18 
ROOT
HETATM    1  S   UNK N   1      31.970  15.974   8.138  0.00  0.00    -0.135 SA
HETATM    2  O   UNK N   1      35.791  15.560   6.023  0.00  0.00    -0.277 OA
HETATM    3  N   UNK N   1      33.608  15.039   6.363  0.00  0.00    -0.219 NA
HETATM    4  C   UNK N   1      33.190  14.692   7.678  0.00  0.00     0.160 A 
HETATM    5  C   UNK N   1      31.523  16.098   6.358  0.00  0.00     0.029 C 
HETATM    6  C   UNK N   1      32.854  16.002   5.577  0.00  0.00     0.182 C 
HETATM    7  C   UNK N   1      34.744  14.809   8.129  0.00  0.00     0.199 A 
HETATM    8  C   UNK N   1      34.874  15.073   6.672  0.00  0.00     0.227 A 
HETATM    9  C   UNK N   1      30.713  17.359   6.089  0.00  0.00     0.029 C 
HETATM   10  C   UNK N   1      30.641  14.913   5.997  0.00  0.00     0.029 C 
ENDROOT
BRANCH   7  11
HETATM   11  N   UNK N   1      34.980  16.064   8.808  0.00  0.00    -0.344 N 
HETATM   12  C   UNK N   1      35.392  16.131  10.097  0.00  0.00     0.242 C 
HETATM   13  O   UNK N   1      35.615  17.219  10.599  0.00  0.00    -0.271 OA
HETATM   14  H   UNK N   1      34.835  16.903   8.314  0.00  0.00     0.163 HD
BRANCH  12  15
HETATM   15  C   UNK N   1      35.568  14.895  10.921  0.00  0.00     0.278 C 
BRANCH  15  16
HETATM   16  O   UNK N   1      35.990  15.266  12.176  0.00  0.00    -0.342 OA
BRANCH  16  17
HETATM   17  C   UNK N   1      35.997  14.424  13.233  0.00  0.00     0.069 A 
HETATM   18  C   UNK N   1      36.664  14.748  14.429  0.00  0.00     0.037 A 
HETATM   19  C   UNK N   1      36.635  13.862  15.509  0.00  0.00     0.003 A 
HETATM   20  C   UNK N   1      35.939  12.655  15.405  0.00  0.00     0.000 A 
HETATM   21  C   UNK N   1      35.274  12.330  14.219  0.00  0.00     0.003 A 
HETATM   22  C   UNK N   1      35.307  13.212  13.135  0.00  0.00     0.037 A 
ENDBRANCH  16  17
ENDBRANCH  15  16
ENDBRANCH  12  15
ENDBRANCH   7  11
BRANCH   6  23
HETATM   23  C   UNK N   1      33.515  17.381   5.462  0.00  0.00     0.160 C 
HETATM   24  O   UNK N   1      33.398  18.011   4.424  0.00  0.00    -0.649 OA
BRANCH  23  25
HETATM   25  O   UNK N   1      34.129  17.966   6.511  0.00  0.00    -0.775 OA
HETATM   26  H   UNK N   1      33.707  18.446   7.196  0.00  0.00     0.167 HD
ENDBRANCH  23  25
ENDBRANCH   6  23
TORSDOF 6
ENDMDL
MODEL 5
REMARK VINA RESULT:      -6.5      2.443      3.260
REMARK  6 active torsions:
REMARK  status: ('A' for Active; 'I' for Inactive)
REMARK    1  A    between atoms: O_3  and  C_16 
REMARK    2  A    between atoms: O_6  and  C_18 
REMARK    3  A    between atoms: O_6  and  C_19 
REMARK    4  A    between atoms: C_12  and  N_8 
REMARK       I    between atoms: N_8  and  C_17 
REMARK    5  A    between atoms: C_11  and  C_16 
REMARK    6  A    between atoms: C_17  and  C_18 
ROOT
HETATM    1  S   UNK N   1      36.860  13.937   8.944  0.00  0.00    -0.135 SA
HETATM    2  O   UNK N   1      32.796  15.075  10.142  0.00  0.00    -0.277 OA
HETATM    3  N   UNK N   1      34.355  13.561   9.487  0.00  0.00    -0.219 NA
HETATM    4  C   UNK N   1      35.137  13.849   8.335  0.00  0.00     0.160 A 
HETATM    5  C   UNK N   1      36.401  12.705  10.231  0.00  0.00     0.029 C 
HETATM    6  C   UNK N   1      34.986  13.101  10.714  0.00  0.00     0.182 C 
HETATM    7  C   UNK N   1      34.242  15.189   8.146  0.00  0.00     0.199 A 
HETATM    8  C   UNK N   1      33.569  14.589   9.327  0.00  0.00     0.227 A 
HETATM    9  C   UNK N   1      37.456  12.646  11.326  0.00  0.00     0.029 C 
HETATM   10  C   UNK N   1      36.346  11.329   9.585  0.00  0.00     0.029 C 
ENDROOT
BRANCH   7  11
HETATM   11  N   UNK N   1      34.965  16.350   8.615  0.00  0.00    -0.344 N 
HETATM   12  C   UNK N   1      34.491  17.611   8.474  0.00  0.00     0.242 C 
HETATM   13  O   UNK N   1      35.128  18.545   8.930  0.00  0.00    -0.271 OA
HETATM   14  H   UNK N   1      35.836  16.219   9.054  0.00  0.00     0.163 HD
BRANCH  12  15
HETATM   15  C   UNK N   1      33.205  17.883   7.759  0.00  0.00     0.278 C 
BRANCH  15  16
HETATM   16  O   UNK N   1      32.233  18.143   8.697  0.00  0.00    -0.342 OA
BRANCH  16  17
HETATM   17  C   UNK N   1      30.915  17.960   8.466  0.00  0.00     0.069 A 
HETATM   18  C   UNK N   1      29.935  18.527   9.302  0.00  0.00     0.037 A 
HETATM   19  C   UNK N   1      28.580  18.332   9.023  0.00  0.00     0.003 A 
HETATM   20  C   UNK N   1      28.195  17.580   7.911  0.00  0.00     0.000 A 
HETATM   21  C   UNK N   1      29.166  17.016   7.078  0.00  0.00     0.003 A 
HETATM   22  C   UNK N   1      30.522  17.204   7.358  0.00  0.00     0.037 A 
ENDBRANCH  16  17
ENDBRANCH  15  16
ENDBRANCH  12  15
ENDBRANCH   7  11
BRANCH   6  23
HETATM   23  C   UNK N   1      35.068  14.160  11.820  0.00  0.00     0.160 C 
HETATM   24  O   UNK N   1      34.803  13.842  12.967  0.00  0.00    -0.649 OA
BRANCH  23  25
HETATM   25  O   UNK N   1      35.529  15.404  11.581  0.00  0.00    -0.775 OA
HETATM   26  H   UNK N   1      35.048  16.101  11.180  0.00  0.00     0.167 HD
ENDBRANCH  23  25
ENDBRANCH   6  23
TORSDOF 6
ENDMDL
MODEL 6
REMARK VINA RESULT:      -6.5      2.579      3.628
REMARK  6 active torsions:
REMARK  status: ('A' for Active; 'I' for Inactive)
REMARK    1  A    between atoms: O_3  and  C_16 
REMARK    2  A    between atoms: O_6  and  C_18 
REMARK    3  A    between atoms: O_6  and  C_19 
REMARK    4  A    between atoms: C_12  and  N_8 
REMARK       I    between atoms: N_8  and  C_17 
REMARK    5  A    between atoms: C_11  and  C_16 
REMARK    6  A    between atoms: C_17  and  C_18 
ROOT
HETATM    1  S   UNK N   1      34.403  12.957   9.410  0.00  0.00    -0.135 SA
HETATM    2  O   UNK N   1      36.674  16.476  10.715  0.00  0.00    -0.277 OA
HETATM    3  N   UNK N   1      35.510  14.567  11.110  0.00  0.00    -0.219 NA
HETATM    4  C   UNK N   1      34.234  14.414  10.502  0.00  0.00     0.160 A 
HETATM    5  C   UNK N   1      35.638  12.289  10.599  0.00  0.00     0.029 C 
HETATM    6  C   UNK N   1      36.493  13.497  11.050  0.00  0.00     0.182 C 
HETATM    7  C   UNK N   1      34.403  15.921   9.926  0.00  0.00     0.199 A 
HETATM    8  C   UNK N   1      35.650  15.805  10.725  0.00  0.00     0.227 A 
HETATM    9  C   UNK N   1      36.427  11.145   9.977  0.00  0.00     0.029 C 
HETATM   10  C   UNK N   1      34.896  11.722  11.799  0.00  0.00     0.029 C 
ENDROOT
BRANCH   7  11
HETATM   11  N   UNK N   1      34.789  15.889   8.533  0.00  0.00    -0.344 N 
HETATM   12  C   UNK N   1      34.275  16.740   7.613  0.00  0.00     0.242 C 
HETATM   13  O   UNK N   1      34.673  16.691   6.462  0.00  0.00    -0.271 OA
HETATM   14  H   UNK N   1      35.451  15.222   8.240  0.00  0.00     0.163 HD
BRANCH  12  15
HETATM   15  C   UNK N   1      33.218  17.734   7.979  0.00  0.00     0.278 C 
BRANCH  15  16
HETATM   16  O   UNK N   1      32.049  17.379   7.347  0.00  0.00    -0.342 OA
BRANCH  16  17
HETATM   17  C   UNK N   1      30.826  17.600   7.876  0.00  0.00     0.069 A 
HETATM   18  C   UNK N   1      29.661  17.079   7.282  0.00  0.00     0.037 A 
HETATM   19  C   UNK N   1      28.414  17.312   7.866  0.00  0.00     0.003 A 
HETATM   20  C   UNK N   1      28.321  18.058   9.044  0.00  0.00     0.000 A 
HETATM   21  C   UNK N   1      29.476  18.577   9.637  0.00  0.00     0.003 A 
HETATM   22  C   UNK N   1      30.724  18.350   9.051  0.00  0.00     0.037 A 
ENDBRANCH  16  17
ENDBRANCH  15  16
ENDBRANCH  12  15
ENDBRANCH   7  11
BRANCH   6  23
HETATM   23  C   UNK N   1      37.640  13.745  10.064  0.00  0.00     0.160 C 
HETATM   24  O   UNK N   1      38.782  13.482  10.404  0.00  0.00    -0.649 OA
BRANCH  23  25
HETATM   25  O   UNK N   1      37.416  14.143   8.796  0.00  0.00    -0.775 OA
HETATM   26  H   UNK N   1      36.650  13.960   8.290  0.00  0.00     0.167 HD
ENDBRANCH  23  25
ENDBRANCH   6  23
TORSDOF 6
ENDMDL
MODEL 7
REMARK VINA RESULT:      -6.4      3.753      5.069
REMARK  6 active torsions:
REMARK  status: ('A' for Active; 'I' for Inactive)
REMARK    1  A    between atoms: O_3  and  C_16 
REMARK    2  A    between atoms: O_6  and  C_18 
REMARK    3  A    between atoms: O_6  and  C_19 
REMARK    4  A    between atoms: C_12  and  N_8 
REMARK       I    between atoms: N_8  and  C_17 
REMARK    5  A    between atoms: C_11  and  C_16 
REMARK    6  A    between atoms: C_17  and  C_18 
ROOT
HETATM    1  S   UNK N   1      33.617  14.548   6.973  0.00  0.00    -0.135 SA
HETATM    2  O   UNK N   1      31.743  18.151   8.631  0.00  0.00    -0.277 OA
HETATM    3  N   UNK N   1      32.456  16.002   8.775  0.00  0.00    -0.219 NA
HETATM    4  C   UNK N   1      32.057  15.085   7.763  0.00  0.00     0.160 A 
HETATM    5  C   UNK N   1      34.449  14.791   8.595  0.00  0.00     0.029 C 
HETATM    6  C   UNK N   1      33.846  16.083   9.194  0.00  0.00     0.182 C 
HETATM    7  C   UNK N   1      31.161  16.281   7.130  0.00  0.00     0.199 A 
HETATM    8  C   UNK N   1      31.694  16.964   8.338  0.00  0.00     0.227 A 
HETATM    9  C   UNK N   1      35.963  14.809   8.431  0.00  0.00     0.029 C 
HETATM   10  C   UNK N   1      34.108  13.613   9.494  0.00  0.00     0.029 C 
ENDROOT
BRANCH   7  11
HETATM   11  N   UNK N   1      31.829  16.862   5.987  0.00  0.00    -0.344 N 
HETATM   12  C   UNK N   1      31.156  17.334   4.910  0.00  0.00     0.242 C 
HETATM   13  O   UNK N   1      31.775  17.852   3.997  0.00  0.00    -0.271 OA
HETATM   14  H   UNK N   1      32.812  16.915   5.990  0.00  0.00     0.163 HD
BRANCH  12  15
HETATM   15  C   UNK N   1      29.667  17.224   4.815  0.00  0.00     0.278 C 
BRANCH  15  16
HETATM   16  O   UNK N   1      29.108  18.033   5.777  0.00  0.00    -0.342 OA
BRANCH  16  17
HETATM   17  C   UNK N   1      28.204  18.997   5.498  0.00  0.00     0.069 A 
HETATM   18  C   UNK N   1      27.714  19.192   4.193  0.00  0.00     0.037 A 
HETATM   19  C   UNK N   1      26.765  20.186   3.943  0.00  0.00     0.003 A 
HETATM   20  C   UNK N   1      26.296  20.985   4.989  0.00  0.00     0.000 A 
HETATM   21  C   UNK N   1      26.781  20.794   6.287  0.00  0.00     0.003 A 
HETATM   22  C   UNK N   1      27.734  19.804   6.538  0.00  0.00     0.037 A 
ENDBRANCH  16  17
ENDBRANCH  15  16
ENDBRANCH  12  15
ENDBRANCH   7  11
BRANCH   6  23
HETATM   23  C   UNK N   1      34.592  17.319   8.676  0.00  0.00     0.160 C 
HETATM   24  O   UNK N   1      35.312  17.941   9.439  0.00  0.00    -0.649 OA
BRANCH  23  25
HETATM   25  O   UNK N   1      34.562  17.676   7.376  0.00  0.00    -0.775 OA
HETATM   26  H   UNK N   1      33.798  17.718   6.835  0.00  0.00     0.167 HD
ENDBRANCH  23  25
ENDBRANCH   6  23
TORSDOF 6
ENDMDL
MODEL 8
REMARK VINA RESULT:      -6.4     13.892     17.349
REMARK  6 active torsions:
REMARK  status: ('A' for Active; 'I' for Inactive)
REMARK    1  A    between atoms: O_3  and  C_16 
REMARK    2  A    between atoms: O_6  and  C_18 
REMARK    3  A    between atoms: O_6  and  C_19 
REMARK    4  A    between atoms: C_12  and  N_8 
REMARK       I    between atoms: N_8  and  C_17 
REMARK    5  A    between atoms: C_11  and  C_16 
REMARK    6  A    between atoms: C_17  and  C_18 
ROOT
HETATM    1  S   UNK N   1      31.672  23.086  -5.732  0.00  0.00    -0.135 SA
HETATM    2  O   UNK N   1      27.972  24.557  -3.889  0.00  0.00    -0.277 OA
HETATM    3  N   UNK N   1      29.259  22.926  -4.805  0.00  0.00    -0.219 NA
HETATM    4  C   UNK N   1      29.875  23.175  -6.062  0.00  0.00     0.160 A 
HETATM    5  C   UNK N   1      31.304  21.864  -4.408  0.00  0.00     0.029 C 
HETATM    6  C   UNK N   1      30.026  22.374  -3.700  0.00  0.00     0.182 C 
HETATM    7  C   UNK N   1      29.093  24.596  -6.087  0.00  0.00     0.199 A 
HETATM    8  C   UNK N   1      28.559  24.027  -4.823  0.00  0.00     0.227 A 
HETATM    9  C   UNK N   1      32.507  21.675  -3.494  0.00  0.00     0.029 C 
HETATM   10  C   UNK N   1      31.017  20.519  -5.057  0.00  0.00     0.029 C 
ENDROOT
BRANCH   7  11
HETATM   11  N   UNK N   1      29.988  25.672  -5.721  0.00  0.00    -0.344 N 
HETATM   12  C   UNK N   1      30.016  26.855  -6.380  0.00  0.00     0.242 C 
HETATM   13  O   UNK N   1      30.763  27.738  -5.995  0.00  0.00    -0.271 OA
HETATM   14  H   UNK N   1      30.603  25.538  -4.964  0.00  0.00     0.163 HD
BRANCH  12  15
HETATM   15  C   UNK N   1      29.154  27.097  -7.579  0.00  0.00     0.278 C 
BRANCH  15  16
HETATM   16  O   UNK N   1      28.297  28.135  -7.296  0.00  0.00    -0.342 OA
BRANCH  16  17
HETATM   17  C   UNK N   1      27.286  28.036  -6.406  0.00  0.00     0.069 A 
HETATM   18  C   UNK N   1      26.301  27.037  -6.517  0.00  0.00     0.037 A 
HETATM   19  C   UNK N   1      25.279  26.953  -5.568  0.00  0.00     0.003 A 
HETATM   20  C   UNK N   1      25.237  27.857  -4.504  0.00  0.00     0.000 A 
HETATM   21  C   UNK N   1      26.214  28.850  -4.389  0.00  0.00     0.003 A 
HETATM   22  C   UNK N   1      27.233  28.940  -5.341  0.00  0.00     0.037 A 
ENDBRANCH  16  17
ENDBRANCH  15  16
ENDBRANCH  12  15
ENDBRANCH   7  11
BRANCH   6  23
HETATM   23  C   UNK N   1      30.381  23.387  -2.606  0.00  0.00     0.160 C 
HETATM   24  O   UNK N   1      30.369  23.030  -1.440  0.00  0.00    -0.649 OA
BRANCH  23  25
HETATM   25  O   UNK N   1      30.811  24.631  -2.900  0.00  0.00    -0.775 OA
HETATM   26  H   UNK N   1      31.506  25.088  -2.469  0.00  0.00     0.167 HD
ENDBRANCH  23  25
ENDBRANCH   6  23
TORSDOF 6
ENDMDL
MODEL 9
REMARK VINA RESULT:      -6.3     13.503     16.264
REMARK  6 active torsions:
REMARK  status: ('A' for Active; 'I' for Inactive)
REMARK    1  A    between atoms: O_3  and  C_16 
REMARK    2  A    between atoms: O_6  and  C_18 
REMARK    3  A    between atoms: O_6  and  C_19 
REMARK    4  A    between atoms: C_12  and  N_8 
REMARK       I    between atoms: N_8  and  C_17 
REMARK    5  A    between atoms: C_11  and  C_16 
REMARK    6  A    between atoms: C_17  and  C_18 
ROOT
HETATM    1  S   UNK N   1      30.775  23.214  -5.911  0.00  0.00    -0.135 SA
HETATM    2  O   UNK N   1      30.430  23.076  -1.540  0.00  0.00    -0.277 OA
HETATM    3  N   UNK N   1      29.936  22.330  -3.625  0.00  0.00    -0.219 NA
HETATM    4  C   UNK N   1      29.503  23.274  -4.598  0.00  0.00     0.160 A 
HETATM    5  C   UNK N   1      31.039  21.443  -5.487  0.00  0.00     0.029 C 
HETATM    6  C   UNK N   1      30.971  21.360  -3.944  0.00  0.00     0.182 C 
HETATM    7  C   UNK N   1      29.552  24.398  -3.430  0.00  0.00     0.199 A 
HETATM    8  C   UNK N   1      29.918  23.190  -2.646  0.00  0.00     0.227 A 
HETATM    9  C   UNK N   1      32.334  20.927  -6.097  0.00  0.00     0.029 C 
HETATM   10  C   UNK N   1      29.904  20.628  -6.086  0.00  0.00     0.029 C 
ENDROOT
BRANCH   7  11
HETATM   11  N   UNK N   1      30.748  25.202  -3.551  0.00  0.00    -0.344 N 
HETATM   12  C   UNK N   1      30.714  26.553  -3.644  0.00  0.00     0.242 C 
HETATM   13  O   UNK N   1      31.760  27.176  -3.701  0.00  0.00    -0.271 OA
HETATM   14  H   UNK N   1      31.622  24.749  -3.568  0.00  0.00     0.163 HD
BRANCH  12  15
HETATM   15  C   UNK N   1      29.416  27.296  -3.689  0.00  0.00     0.278 C 
BRANCH  15  16
HETATM   16  O   UNK N   1      28.931  27.245  -4.975  0.00  0.00    -0.342 OA
BRANCH  16  17
HETATM   17  C   UNK N   1      27.613  27.200  -5.267  0.00  0.00     0.069 A 
HETATM   18  C   UNK N   1      27.135  26.555  -6.423  0.00  0.00     0.037 A 
HETATM   19  C   UNK N   1      25.764  26.511  -6.685  0.00  0.00     0.003 A 
HETATM   20  C   UNK N   1      24.863  27.103  -5.796  0.00  0.00     0.000 A 
HETATM   21  C   UNK N   1      25.333  27.745  -4.646  0.00  0.00     0.003 A 
HETATM   22  C   UNK N   1      26.705  27.795  -4.385  0.00  0.00     0.037 A 
ENDBRANCH  16  17
ENDBRANCH  15  16
ENDBRANCH  12  15
ENDBRANCH   7  11
BRANCH   6  23
HETATM   23  C   UNK N   1      32.339  21.667  -3.324  0.00  0.00     0.160 C 
HETATM   24  O   UNK N   1      33.063  22.489  -3.861  0.00  0.00    -0.649 OA
BRANCH  23  25
HETATM   25  O   UNK N   1      32.721  21.138  -2.143  0.00  0.00    -0.775 OA
HETATM   26  H   UNK N   1      33.377  20.481  -2.023  0.00  0.00     0.167 HD
ENDBRANCH  23  25
ENDBRANCH   6  23
TORSDOF 6
ENDMDL
