MODEL 1
REMARK VINA RESULT:      -5.4      0.000      0.000
REMARK  8 active torsions:
REMARK  status: ('A' for Active; 'I' for Inactive)
REMARK    1  A    between atoms: C_7  and  O_1 
REMARK    2  A    between atoms: C_8  and  O_2 
REMARK    3  A    between atoms: C_9  and  O_3 
REMARK    4  A    between atoms: O_4  and  C_12 
REMARK    5  A    between atoms: N_5  and  C_11 
REMARK    6  A    between atoms: C_6  and  C_12 
REMARK    7  A    between atoms: C_11  and  C_13 
REMARK    8  A    between atoms: C_13  and  C_14 
ROOT
HETATM    1  N   UNK N   1      21.881  19.855   3.324  0.00  0.00     0.100 N 
HETATM    2  C   UNK N   1      21.043  19.414   2.187  0.00  0.00     0.277 C 
HETATM    3  C   UNK N   1      19.801  18.662   2.693  0.00  0.00     0.184 C 
HETATM    4  C   UNK N   1      20.203  17.493   3.587  0.00  0.00     0.179 C 
HETATM    5  C   UNK N   1      21.069  18.007   4.726  0.00  0.00     0.177 C 
HETATM    6  C   UNK N   1      22.285  18.699   4.132  0.00  0.00     0.307 C 
ENDROOT
BRANCH   1   7
HETATM    7  C   UNK N   1      23.116  20.441   2.819  0.00  0.00     0.273 C 
BRANCH   7   8
HETATM    8  C   UNK N   1      24.319  19.821   3.510  0.00  0.00     0.030 C 
BRANCH   8   9
HETATM    9  C   UNK N   1      25.590  20.377   2.904  0.00  0.00    -0.003 C 
HETATM   10  C   UNK N   1      26.767  20.095   3.813  0.00  0.00     0.005 C 
ENDBRANCH   8   9
ENDBRANCH   7   8
ENDBRANCH   1   7
BRANCH   2  11
HETATM   11  C   UNK N   1      20.550  20.613   1.368  0.00  0.00     0.202 C 
BRANCH  11  12
HETATM   12  O   UNK N   1      20.567  20.331   0.001  0.00  0.00    -0.399 OA
HETATM   13  H   UNK N   1      21.340  20.110  -0.541  0.00  0.00     0.209 HD
ENDBRANCH  11  12
ENDBRANCH   2  11
BRANCH   3  14
HETATM   14  O   UNK N   1      19.056  18.183   1.612  0.00  0.00    -0.391 OA
HETATM   15  H   UNK N   1      19.201  17.324   1.186  0.00  0.00     0.210 HD
ENDBRANCH   3  14
BRANCH   5  16
HETATM   16  O   UNK N   1      21.489  16.939   5.522  0.00  0.00    -0.391 OA
HETATM   17  H   UNK N   1      21.103  16.720   6.385  0.00  0.00     0.210 HD
ENDBRANCH   5  16
BRANCH   4  18
HETATM   18  O   UNK N   1      19.063  16.873   4.099  0.00  0.00    -0.390 OA
HETATM   19  H   UNK N   1      18.829  16.856   5.040  0.00  0.00     0.210 HD
ENDBRANCH   4  18
TORSDOF 8
ENDMDL
MODEL 2
REMARK VINA RESULT:      -5.1      7.916     10.268
REMARK  8 active torsions:
REMARK  status: ('A' for Active; 'I' for Inactive)
REMARK    1  A    between atoms: C_7  and  O_1 
REMARK    2  A    between atoms: C_8  and  O_2 
REMARK    3  A    between atoms: C_9  and  O_3 
REMARK    4  A    between atoms: O_4  and  C_12 
REMARK    5  A    between atoms: N_5  and  C_11 
REMARK    6  A    between atoms: C_6  and  C_12 
REMARK    7  A    between atoms: C_11  and  C_13 
REMARK    8  A    between atoms: C_13  and  C_14 
ROOT
HETATM    1  N   UNK N   1      30.171  16.332   6.812  0.00  0.00     0.100 N 
HETATM    2  C   UNK N   1      30.734  17.146   7.911  0.00  0.00     0.277 C 
HETATM    3  C   UNK N   1      29.657  17.448   8.966  0.00  0.00     0.184 C 
HETATM    4  C   UNK N   1      28.447  18.122   8.325  0.00  0.00     0.179 C 
HETATM    5  C   UNK N   1      27.922  17.244   7.200  0.00  0.00     0.177 C 
HETATM    6  C   UNK N   1      29.041  17.033   6.193  0.00  0.00     0.307 C 
ENDROOT
BRANCH   1   7
HETATM    7  C   UNK N   1      31.169  16.176   5.762  0.00  0.00     0.273 C 
BRANCH   7   8
HETATM    8  C   UNK N   1      31.091  17.333   4.780  0.00  0.00     0.030 C 
BRANCH   8   9
HETATM    9  C   UNK N   1      32.480  17.658   4.274  0.00  0.00    -0.003 C 
HETATM   10  C   UNK N   1      33.499  17.432   5.370  0.00  0.00     0.005 C 
ENDBRANCH   8   9
ENDBRANCH   7   8
ENDBRANCH   1   7
BRANCH   2  11
HETATM   11  C   UNK N   1      31.873  16.403   8.621  0.00  0.00     0.202 C 
BRANCH  11  12
HETATM   12  O   UNK N   1      32.832  17.294   9.104  0.00  0.00    -0.399 OA
HETATM   13  H   UNK N   1      33.528  17.109   9.754  0.00  0.00     0.209 HD
ENDBRANCH  11  12
ENDBRANCH   2  11
BRANCH   3  14
HETATM   14  O   UNK N   1      30.177  18.281   9.960  0.00  0.00    -0.391 OA
HETATM   15  H   UNK N   1      30.885  18.928   9.816  0.00  0.00     0.210 HD
ENDBRANCH   3  14
BRANCH   5  16
HETATM   16  O   UNK N   1      26.847  17.874   6.569  0.00  0.00    -0.391 OA
HETATM   17  H   UNK N   1      26.090  18.259   7.040  0.00  0.00     0.210 HD
ENDBRANCH   5  16
BRANCH   4  18
HETATM   18  O   UNK N   1      27.450  18.315   9.282  0.00  0.00    -0.390 OA
HETATM   19  H   UNK N   1      27.326  19.138   9.780  0.00  0.00     0.210 HD
ENDBRANCH   4  18
TORSDOF 8
ENDMDL
MODEL 3
REMARK VINA RESULT:      -5.1      2.063      4.375
REMARK  8 active torsions:
REMARK  status: ('A' for Active; 'I' for Inactive)
REMARK    1  A    between atoms: C_7  and  O_1 
REMARK    2  A    between atoms: C_8  and  O_2 
REMARK    3  A    between atoms: C_9  and  O_3 
REMARK    4  A    between atoms: O_4  and  C_12 
REMARK    5  A    between atoms: N_5  and  C_11 
REMARK    6  A    between atoms: C_6  and  C_12 
REMARK    7  A    between atoms: C_11  and  C_13 
REMARK    8  A    between atoms: C_13  and  C_14 
ROOT
HETATM    1  N   UNK N   1      21.764  18.013   3.902  0.00  0.00     0.100 N 
HETATM    2  C   UNK N   1      20.296  17.932   3.746  0.00  0.00     0.277 C 
HETATM    3  C   UNK N   1      19.848  18.659   2.467  0.00  0.00     0.184 C 
HETATM    4  C   UNK N   1      20.338  20.104   2.466  0.00  0.00     0.179 C 
HETATM    5  C   UNK N   1      21.849  20.121   2.641  0.00  0.00     0.177 C 
HETATM    6  C   UNK N   1      22.191  19.416   3.943  0.00  0.00     0.307 C 
ENDROOT
BRANCH   1   7
HETATM    7  C   UNK N   1      22.149  17.440   5.185  0.00  0.00     0.273 C 
BRANCH   7   8
HETATM    8  C   UNK N   1      21.431  18.151   6.320  0.00  0.00     0.030 C 
BRANCH   8   9
HETATM    9  C   UNK N   1      20.847  17.124   7.267  0.00  0.00    -0.003 C 
HETATM   10  C   UNK N   1      21.413  15.753   6.962  0.00  0.00     0.005 C 
ENDBRANCH   8   9
ENDBRANCH   7   8
ENDBRANCH   1   7
BRANCH   2  11
HETATM   11  C   UNK N   1      19.833  16.474   3.628  0.00  0.00     0.202 C 
BRANCH  11  12
HETATM   12  O   UNK N   1      18.679  16.250   4.379  0.00  0.00    -0.399 OA
HETATM   13  H   UNK N   1      18.594  15.698   5.172  0.00  0.00     0.209 HD
ENDBRANCH  11  12
ENDBRANCH   2  11
BRANCH   3  14
HETATM   14  O   UNK N   1      18.454  18.644   2.367  0.00  0.00    -0.391 OA
HETATM   15  H   UNK N   1      17.951  19.086   1.666  0.00  0.00     0.210 HD
ENDBRANCH   3  14
BRANCH   5  16
HETATM   16  O   UNK N   1      22.305  21.440   2.696  0.00  0.00    -0.391 OA
HETATM   17  H   UNK N   1      23.217  21.708   2.501  0.00  0.00     0.210 HD
ENDBRANCH   5  16
BRANCH   4  18
HETATM   18  O   UNK N   1      19.991  20.722   1.265  0.00  0.00    -0.390 OA
HETATM   19  H   UNK N   1      19.138  20.605   0.819  0.00  0.00     0.210 HD
ENDBRANCH   4  18
TORSDOF 8
ENDMDL
MODEL 4
REMARK VINA RESULT:      -4.9      7.603      9.685
REMARK  8 active torsions:
REMARK  status: ('A' for Active; 'I' for Inactive)
REMARK    1  A    between atoms: C_7  and  O_1 
REMARK    2  A    between atoms: C_8  and  O_2 
REMARK    3  A    between atoms: C_9  and  O_3 
REMARK    4  A    between atoms: O_4  and  C_12 
REMARK    5  A    between atoms: N_5  and  C_11 
REMARK    6  A    between atoms: C_6  and  C_12 
REMARK    7  A    between atoms: C_11  and  C_13 
REMARK    8  A    between atoms: C_13  and  C_14 
ROOT
HETATM    1  N   UNK N   1      30.063  16.771   7.251  0.00  0.00     0.100 N 
HETATM    2  C   UNK N   1      28.989  17.754   7.513  0.00  0.00     0.277 C 
HETATM    3  C   UNK N   1      28.109  17.937   6.266  0.00  0.00     0.184 C 
HETATM    4  C   UNK N   1      28.955  18.334   5.060  0.00  0.00     0.179 C 
HETATM    5  C   UNK N   1      30.045  17.294   4.849  0.00  0.00     0.177 C 
HETATM    6  C   UNK N   1      30.881  17.210   6.115  0.00  0.00     0.307 C 
ENDROOT
BRANCH   1   7
HETATM    7  C   UNK N   1      30.963  16.716   8.395  0.00  0.00     0.273 C 
BRANCH   7   8
HETATM    8  C   UNK N   1      31.928  17.889   8.367  0.00  0.00     0.030 C 
BRANCH   8   9
HETATM    9  C   UNK N   1      33.322  17.402   8.701  0.00  0.00    -0.003 C 
HETATM   10  C   UNK N   1      34.356  18.311   8.072  0.00  0.00     0.005 C 
ENDBRANCH   8   9
ENDBRANCH   7   8
ENDBRANCH   1   7
BRANCH   2  11
HETATM   11  C   UNK N   1      28.076  17.282   8.652  0.00  0.00     0.202 C 
BRANCH  11  12
HETATM   12  O   UNK N   1      27.478  18.363   9.300  0.00  0.00    -0.399 OA
HETATM   13  H   UNK N   1      26.730  18.893   8.985  0.00  0.00     0.209 HD
ENDBRANCH  11  12
ENDBRANCH   2  11
BRANCH   3  14
HETATM   14  O   UNK N   1      27.145  18.923   6.498  0.00  0.00    -0.391 OA
HETATM   15  H   UNK N   1      27.202  19.832   6.166  0.00  0.00     0.210 HD
ENDBRANCH   3  14
BRANCH   5  16
HETATM   16  O   UNK N   1      30.861  17.672   3.781  0.00  0.00    -0.391 OA
HETATM   17  H   UNK N   1      30.529  18.055   2.953  0.00  0.00     0.210 HD
ENDBRANCH   5  16
BRANCH   4  18
HETATM   18  O   UNK N   1      28.152  18.418   3.924  0.00  0.00    -0.390 OA
HETATM   19  H   UNK N   1      28.493  18.457   3.016  0.00  0.00     0.210 HD
ENDBRANCH   4  18
TORSDOF 8
ENDMDL
MODEL 5
REMARK VINA RESULT:      -4.9      7.818      9.291
REMARK  8 active torsions:
REMARK  status: ('A' for Active; 'I' for Inactive)
REMARK    1  A    between atoms: C_7  and  O_1 
REMARK    2  A    between atoms: C_8  and  O_2 
REMARK    3  A    between atoms: C_9  and  O_3 
REMARK    4  A    between atoms: O_4  and  C_12 
REMARK    5  A    between atoms: N_5  and  C_11 
REMARK    6  A    between atoms: C_6  and  C_12 
REMARK    7  A    between atoms: C_11  and  C_13 
REMARK    8  A    between atoms: C_13  and  C_14 
ROOT
HETATM    1  N   UNK N   1      30.570  17.271   6.675  0.00  0.00     0.100 N 
HETATM    2  C   UNK N   1      29.195  16.995   6.203  0.00  0.00     0.277 C 
HETATM    3  C   UNK N   1      28.173  17.804   7.017  0.00  0.00     0.184 C 
HETATM    4  C   UNK N   1      28.325  17.523   8.509  0.00  0.00     0.179 C 
HETATM    5  C   UNK N   1      29.758  17.814   8.930  0.00  0.00     0.177 C 
HETATM    6  C   UNK N   1      30.688  16.945   8.101  0.00  0.00     0.307 C 
ENDROOT
BRANCH   1   7
HETATM    7  C   UNK N   1      31.506  16.393   5.985  0.00  0.00     0.273 C 
BRANCH   7   8
HETATM    8  C   UNK N   1      32.797  17.133   5.676  0.00  0.00     0.030 C 
BRANCH   8   9
HETATM    9  C   UNK N   1      32.711  17.737   4.290  0.00  0.00    -0.003 C 
HETATM   10  C   UNK N   1      32.488  16.650   3.261  0.00  0.00     0.005 C 
ENDBRANCH   8   9
ENDBRANCH   7   8
ENDBRANCH   1   7
BRANCH   2  11
HETATM   11  C   UNK N   1      29.027  17.394   4.732  0.00  0.00     0.202 C 
BRANCH  11  12
HETATM   12  O   UNK N   1      28.873  18.774   4.598  0.00  0.00    -0.399 OA
HETATM   13  H   UNK N   1      28.767  19.274   3.774  0.00  0.00     0.209 HD
ENDBRANCH  11  12
ENDBRANCH   2  11
BRANCH   3  14
HETATM   14  O   UNK N   1      26.874  17.480   6.617  0.00  0.00    -0.391 OA
HETATM   15  H   UNK N   1      26.310  16.828   7.063  0.00  0.00     0.210 HD
ENDBRANCH   3  14
BRANCH   5  16
HETATM   16  O   UNK N   1      29.925  17.510  10.283  0.00  0.00    -0.391 OA
HETATM   17  H   UNK N   1      30.019  18.176  10.982  0.00  0.00     0.210 HD
ENDBRANCH   5  16
BRANCH   4  18
HETATM   18  O   UNK N   1      27.445  18.325   9.235  0.00  0.00    -0.390 OA
HETATM   19  H   UNK N   1      27.011  18.050  10.059  0.00  0.00     0.210 HD
ENDBRANCH   4  18
TORSDOF 8
ENDMDL
MODEL 6
REMARK VINA RESULT:      -4.8      7.830     10.030
REMARK  8 active torsions:
REMARK  status: ('A' for Active; 'I' for Inactive)
REMARK    1  A    between atoms: C_7  and  O_1 
REMARK    2  A    between atoms: C_8  and  O_2 
REMARK    3  A    between atoms: C_9  and  O_3 
REMARK    4  A    between atoms: O_4  and  C_12 
REMARK    5  A    between atoms: N_5  and  C_11 
REMARK    6  A    between atoms: C_6  and  C_12 
REMARK    7  A    between atoms: C_11  and  C_13 
REMARK    8  A    between atoms: C_13  and  C_14 
ROOT
HETATM    1  N   UNK N   1      22.177  12.905   9.227  0.00  0.00     0.100 N 
HETATM    2  C   UNK N   1      23.471  13.147   9.901  0.00  0.00     0.277 C 
HETATM    3  C   UNK N   1      23.699  12.116  11.018  0.00  0.00     0.184 C 
HETATM    4  C   UNK N   1      22.537  12.124  12.007  0.00  0.00     0.179 C 
HETATM    5  C   UNK N   1      21.237  11.882  11.255  0.00  0.00     0.177 C 
HETATM    6  C   UNK N   1      21.082  12.966  10.202  0.00  0.00     0.307 C 
ENDROOT
BRANCH   1   7
HETATM    7  C   UNK N   1      21.920  13.972   8.269  0.00  0.00     0.273 C 
BRANCH   7   8
HETATM    8  C   UNK N   1      20.689  14.764   8.675  0.00  0.00     0.030 C 
BRANCH   8   9
HETATM    9  C   UNK N   1      20.811  16.183   8.160  0.00  0.00    -0.003 C 
HETATM   10  C   UNK N   1      19.715  17.046   8.748  0.00  0.00     0.005 C 
ENDBRANCH   8   9
ENDBRANCH   7   8
ENDBRANCH   1   7
BRANCH   2  11
HETATM   11  C   UNK N   1      24.639  13.017   8.915  0.00  0.00     0.202 C 
BRANCH  11  12
HETATM   12  O   UNK N   1      25.643  13.944   9.197  0.00  0.00    -0.399 OA
HETATM   13  H   UNK N   1      26.178  14.000  10.003  0.00  0.00     0.209 HD
ENDBRANCH  11  12
ENDBRANCH   2  11
BRANCH   3  14
HETATM   14  O   UNK N   1      24.887  12.398  11.699  0.00  0.00    -0.391 OA
HETATM   15  H   UNK N   1      25.263  11.841  12.397  0.00  0.00     0.210 HD
ENDBRANCH   3  14
BRANCH   5  16
HETATM   16  O   UNK N   1      20.160  11.941  12.141  0.00  0.00    -0.391 OA
HETATM   17  H   UNK N   1      19.890  11.208  12.718  0.00  0.00     0.210 HD
ENDBRANCH   5  16
BRANCH   4  18
HETATM   18  O   UNK N   1      22.724  11.130  12.967  0.00  0.00    -0.390 OA
HETATM   19  H   UNK N   1      23.218  10.309  12.812  0.00  0.00     0.210 HD
ENDBRANCH   4  18
TORSDOF 8
ENDMDL
MODEL 7
REMARK VINA RESULT:      -4.8     11.111     13.592
REMARK  8 active torsions:
REMARK  status: ('A' for Active; 'I' for Inactive)
REMARK    1  A    between atoms: C_7  and  O_1 
REMARK    2  A    between atoms: C_8  and  O_2 
REMARK    3  A    between atoms: C_9  and  O_3 
REMARK    4  A    between atoms: O_4  and  C_12 
REMARK    5  A    between atoms: N_5  and  C_11 
REMARK    6  A    between atoms: C_6  and  C_12 
REMARK    7  A    between atoms: C_11  and  C_13 
REMARK    8  A    between atoms: C_13  and  C_14 
ROOT
HETATM    1  N   UNK N   1      33.021  16.610   7.091  0.00  0.00     0.100 N 
HETATM    2  C   UNK N   1      33.445  15.431   7.877  0.00  0.00     0.277 C 
HETATM    3  C   UNK N   1      33.770  15.836   9.324  0.00  0.00     0.184 C 
HETATM    4  C   UNK N   1      34.819  16.943   9.354  0.00  0.00     0.179 C 
HETATM    5  C   UNK N   1      34.331  18.119   8.522  0.00  0.00     0.177 C 
HETATM    6  C   UNK N   1      34.074  17.632   7.105  0.00  0.00     0.307 C 
ENDROOT
BRANCH   1   7
HETATM    7  C   UNK N   1      32.853  16.229   5.695  0.00  0.00     0.273 C 
BRANCH   7   8
HETATM    8  C   UNK N   1      33.137  17.411   4.784  0.00  0.00     0.030 C 
BRANCH   8   9
HETATM    9  C   UNK N   1      32.087  17.471   3.694  0.00  0.00    -0.003 C 
HETATM   10  C   UNK N   1      30.711  17.249   4.284  0.00  0.00     0.005 C 
ENDBRANCH   8   9
ENDBRANCH   7   8
ENDBRANCH   1   7
BRANCH   2  11
HETATM   11  C   UNK N   1      32.332  14.377   7.936  0.00  0.00     0.202 C 
BRANCH  11  12
HETATM   12  O   UNK N   1      32.861  13.089   8.022  0.00  0.00    -0.399 OA
HETATM   13  H   UNK N   1      33.032  12.579   8.828  0.00  0.00     0.209 HD
ENDBRANCH  11  12
ENDBRANCH   2  11
BRANCH   3  14
HETATM   14  O   UNK N   1      34.243  14.732  10.038  0.00  0.00    -0.391 OA
HETATM   15  H   UNK N   1      33.846  14.400  10.859  0.00  0.00     0.210 HD
ENDBRANCH   3  14
BRANCH   5  16
HETATM   16  O   UNK N   1      35.306  19.119   8.496  0.00  0.00    -0.391 OA
HETATM   17  H   UNK N   1      36.244  18.968   8.694  0.00  0.00     0.210 HD
ENDBRANCH   5  16
BRANCH   4  18
HETATM   18  O   UNK N   1      35.041  17.351  10.669  0.00  0.00    -0.390 OA
HETATM   19  H   UNK N   1      34.475  17.108  11.418  0.00  0.00     0.210 HD
ENDBRANCH   4  18
TORSDOF 8
ENDMDL
MODEL 8
REMARK VINA RESULT:      -4.7     19.058     21.769
REMARK  8 active torsions:
REMARK  status: ('A' for Active; 'I' for Inactive)
REMARK    1  A    between atoms: C_7  and  O_1 
REMARK    2  A    between atoms: C_8  and  O_2 
REMARK    3  A    between atoms: C_9  and  O_3 
REMARK    4  A    between atoms: O_4  and  C_12 
REMARK    5  A    between atoms: N_5  and  C_11 
REMARK    6  A    between atoms: C_6  and  C_12 
REMARK    7  A    between atoms: C_11  and  C_13 
REMARK    8  A    between atoms: C_13  and  C_14 
ROOT
HETATM    1  N   UNK N   1      43.117  21.249   1.314  0.00  0.00     0.100 N 
HETATM    2  C   UNK N   1      42.747  22.386   2.183  0.00  0.00     0.277 C 
HETATM    3  C   UNK N   1      43.979  22.908   2.941  0.00  0.00     0.184 C 
HETATM    4  C   UNK N   1      44.643  21.785   3.732  0.00  0.00     0.179 C 
HETATM    5  C   UNK N   1      44.989  20.644   2.788  0.00  0.00     0.177 C 
HETATM    6  C   UNK N   1      43.710  20.172   2.116  0.00  0.00     0.307 C 
ENDROOT
BRANCH   1   7
HETATM    7  C   UNK N   1      41.915  20.685   0.713  0.00  0.00     0.273 C 
BRANCH   7   8
HETATM    8  C   UNK N   1      40.951  20.219   1.792  0.00  0.00     0.030 C 
BRANCH   8   9
HETATM    9  C   UNK N   1      39.559  20.721   1.473  0.00  0.00    -0.003 C 
HETATM   10  C   UNK N   1      39.543  21.382   0.112  0.00  0.00     0.005 C 
ENDBRANCH   8   9
ENDBRANCH   7   8
ENDBRANCH   1   7
BRANCH   2  11
HETATM   11  C   UNK N   1      42.190  23.553   1.358  0.00  0.00     0.202 C 
BRANCH  11  12
HETATM   12  O   UNK N   1      41.100  24.146   1.994  0.00  0.00    -0.399 OA
HETATM   13  H   UNK N   1      40.343  24.583   1.574  0.00  0.00     0.209 HD
ENDBRANCH  11  12
ENDBRANCH   2  11
BRANCH   3  14
HETATM   14  O   UNK N   1      43.607  23.932   3.817  0.00  0.00    -0.391 OA
HETATM   15  H   UNK N   1      43.394  23.800   4.754  0.00  0.00     0.210 HD
ENDBRANCH   3  14
BRANCH   5  16
HETATM   16  O   UNK N   1      45.549  19.586   3.508  0.00  0.00    -0.391 OA
HETATM   17  H   UNK N   1      45.244  19.305   4.385  0.00  0.00     0.210 HD
ENDBRANCH   5  16
BRANCH   4  18
HETATM   18  O   UNK N   1      45.801  22.259   4.348  0.00  0.00    -0.390 OA
HETATM   19  H   UNK N   1      45.902  22.372   5.306  0.00  0.00     0.210 HD
ENDBRANCH   4  18
TORSDOF 8
ENDMDL
MODEL 9
REMARK VINA RESULT:      -4.6     11.459     13.709
REMARK  8 active torsions:
REMARK  status: ('A' for Active; 'I' for Inactive)
REMARK    1  A    between atoms: C_7  and  O_1 
REMARK    2  A    between atoms: C_8  and  O_2 
REMARK    3  A    between atoms: C_9  and  O_3 
REMARK    4  A    between atoms: O_4  and  C_12 
REMARK    5  A    between atoms: N_5  and  C_11 
REMARK    6  A    between atoms: C_6  and  C_12 
REMARK    7  A    between atoms: C_11  and  C_13 
REMARK    8  A    between atoms: C_13  and  C_14 
ROOT
HETATM    1  N   UNK N   1      33.055  16.434   7.660  0.00  0.00     0.100 N 
HETATM    2  C   UNK N   1      33.832  17.299   8.575  0.00  0.00     0.277 C 
HETATM    3  C   UNK N   1      34.918  16.484   9.295  0.00  0.00     0.184 C 
HETATM    4  C   UNK N   1      34.305  15.294  10.027  0.00  0.00     0.179 C 
HETATM    5  C   UNK N   1      33.513  14.452   9.039  0.00  0.00     0.177 C 
HETATM    6  C   UNK N   1      32.445  15.329   8.407  0.00  0.00     0.307 C 
ENDROOT
BRANCH   1   7
HETATM    7  C   UNK N   1      31.948  17.194   7.094  0.00  0.00     0.273 C 
BRANCH   7   8
HETATM    8  C   UNK N   1      30.637  16.785   7.745  0.00  0.00     0.030 C 
BRANCH   8   9
HETATM    9  C   UNK N   1      29.782  18.014   7.969  0.00  0.00    -0.003 C 
HETATM   10  C   UNK N   1      30.053  18.594   9.340  0.00  0.00     0.005 C 
ENDBRANCH   8   9
ENDBRANCH   7   8
ENDBRANCH   1   7
BRANCH   2  11
HETATM   11  C   UNK N   1      34.538  18.423   7.805  0.00  0.00     0.202 C 
BRANCH  11  12
HETATM   12  O   UNK N   1      35.029  19.398   8.674  0.00  0.00    -0.399 OA
HETATM   13  H   UNK N   1      35.954  19.663   8.794  0.00  0.00     0.209 HD
ENDBRANCH  11  12
ENDBRANCH   2  11
BRANCH   3  14
HETATM   14  O   UNK N   1      35.596  17.292  10.213  0.00  0.00    -0.391 OA
HETATM   15  H   UNK N   1      36.343  17.867   9.988  0.00  0.00     0.210 HD
ENDBRANCH   3  14
BRANCH   5  16
HETATM   16  O   UNK N   1      32.902  13.388   9.706  0.00  0.00    -0.391 OA
HETATM   17  H   UNK N   1      33.331  12.534   9.875  0.00  0.00     0.210 HD
ENDBRANCH   5  16
BRANCH   4  18
HETATM   18  O   UNK N   1      35.313  14.524  10.607  0.00  0.00    -0.390 OA
HETATM   19  H   UNK N   1      35.151  13.767  11.193  0.00  0.00     0.210 HD
ENDBRANCH   4  18
TORSDOF 8
ENDMDL
