MODEL 1
REMARK VINA RESULT:      -6.0      0.000      0.000
REMARK  4 active torsions:
REMARK  status: ('A' for Active; 'I' for Inactive)
REMARK    1  A    between atoms: N_2  and  C_4 
REMARK    2  A    between atoms: N_3  and  C_6 
REMARK    3  A    between atoms: C_4  and  C_5 
REMARK    4  A    between atoms: C_5  and  C_6 
ROOT
HETATM    1  S   UNK N   1      29.012  16.798   5.471  0.00  0.00    -0.086 SA
HETATM    2  N   UNK N   1      31.743  17.599   6.969  0.00  0.00    -0.345 N 
HETATM    3  C   UNK N   1      30.510  17.668   7.711  0.00  0.00     0.052 A 
HETATM    4  C   UNK N   1      31.806  17.244   5.578  0.00  0.00     0.052 A 
HETATM    5  C   UNK N   1      29.255  17.350   7.149  0.00  0.00     0.032 A 
HETATM    6  C   UNK N   1      30.671  16.876   4.822  0.00  0.00     0.032 A 
HETATM    7  C   UNK N   1      30.549  18.065   9.066  0.00  0.00     0.031 A 
HETATM    8  C   UNK N   1      33.063  17.247   4.931  0.00  0.00     0.031 A 
HETATM    9  C   UNK N   1      28.097  17.438   7.935  0.00  0.00     0.021 A 
HETATM   10  C   UNK N   1      30.815  16.522   3.474  0.00  0.00     0.021 A 
HETATM   11  C   UNK N   1      29.389  18.155   9.833  0.00  0.00     0.002 A 
HETATM   12  C   UNK N   1      33.189  16.898   3.587  0.00  0.00     0.002 A 
HETATM   13  C   UNK N   1      28.160  17.841   9.266  0.00  0.00     0.002 A 
HETATM   14  C   UNK N   1      32.064  16.532   2.858  0.00  0.00     0.002 A 
ENDROOT
BRANCH   2  15
HETATM   15  C   UNK N   1      33.005  17.795   7.673  0.00  0.00     0.131 C 
BRANCH  15  16
HETATM   16  C   UNK N   1      33.511  16.538   8.365  0.00  0.00     0.050 C 
BRANCH  16  17
HETATM   17  C   UNK N   1      34.584  16.963   9.356  0.00  0.00     0.273 C 
BRANCH  17  18
HETATM   18  N   UNK N   1      35.296  15.811   9.887  0.00  0.00     0.080 N 
HETATM   19  C   UNK N   1      35.628  16.091  11.276  0.00  0.00     0.309 C 
HETATM   20  C   UNK N   1      34.351  14.710   9.904  0.00  0.00     0.309 C 
ENDBRANCH  17  18
ENDBRANCH  16  17
ENDBRANCH  15  16
ENDBRANCH   2  15
TORSDOF 4
ENDMDL
MODEL 2
REMARK VINA RESULT:      -6.0      0.392      4.301
REMARK  4 active torsions:
REMARK  status: ('A' for Active; 'I' for Inactive)
REMARK    1  A    between atoms: N_2  and  C_4 
REMARK    2  A    between atoms: N_3  and  C_6 
REMARK    3  A    between atoms: C_4  and  C_5 
REMARK    4  A    between atoms: C_5  and  C_6 
ROOT
HETATM    1  S   UNK N   1      29.098  17.238   5.342  0.00  0.00    -0.086 SA
HETATM    2  N   UNK N   1      31.796  17.466   7.078  0.00  0.00    -0.345 N 
HETATM    3  C   UNK N   1      31.910  17.168   5.673  0.00  0.00     0.052 A 
HETATM    4  C   UNK N   1      30.536  17.610   7.753  0.00  0.00     0.052 A 
HETATM    5  C   UNK N   1      30.791  17.035   4.821  0.00  0.00     0.032 A 
HETATM    6  C   UNK N   1      29.290  17.528   7.091  0.00  0.00     0.032 A 
HETATM    7  C   UNK N   1      33.194  17.007   5.110  0.00  0.00     0.031 A 
HETATM    8  C   UNK N   1      30.533  17.861   9.144  0.00  0.00     0.031 A 
HETATM    9  C   UNK N   1      30.980  16.747   3.463  0.00  0.00     0.021 A 
HETATM   10  C   UNK N   1      28.103  17.702   7.814  0.00  0.00     0.021 A 
HETATM   11  C   UNK N   1      33.367  16.714   3.758  0.00  0.00     0.002 A 
HETATM   12  C   UNK N   1      29.342  18.024   9.851  0.00  0.00     0.002 A 
HETATM   13  C   UNK N   1      32.257  16.583   2.933  0.00  0.00     0.002 A 
HETATM   14  C   UNK N   1      28.126  17.948   9.185  0.00  0.00     0.002 A 
ENDROOT
BRANCH   2  15
HETATM   15  C   UNK N   1      33.007  17.739   7.844  0.00  0.00     0.131 C 
BRANCH  15  16
HETATM   16  C   UNK N   1      33.564  16.511   8.549  0.00  0.00     0.050 C 
BRANCH  16  17
HETATM   17  C   UNK N   1      34.725  16.972   9.417  0.00  0.00     0.273 C 
BRANCH  17  18
HETATM   18  N   UNK N   1      34.812  16.187  10.640  0.00  0.00     0.080 N 
HETATM   19  C   UNK N   1      34.021  14.981  10.454  0.00  0.00     0.309 C 
HETATM   20  C   UNK N   1      36.193  15.759  10.761  0.00  0.00     0.309 C 
ENDBRANCH  17  18
ENDBRANCH  16  17
ENDBRANCH  15  16
ENDBRANCH   2  15
TORSDOF 4
ENDMDL
MODEL 3
REMARK VINA RESULT:      -5.8      2.888      7.212
REMARK  4 active torsions:
REMARK  status: ('A' for Active; 'I' for Inactive)
REMARK    1  A    between atoms: N_2  and  C_4 
REMARK    2  A    between atoms: N_3  and  C_6 
REMARK    3  A    between atoms: C_4  and  C_5 
REMARK    4  A    between atoms: C_5  and  C_6 
ROOT
HETATM    1  S   UNK N   1      32.329  17.362   7.326  0.00  0.00    -0.086 SA
HETATM    2  N   UNK N   1      29.575  17.374   5.665  0.00  0.00    -0.345 N 
HETATM    3  C   UNK N   1      30.804  17.143   4.949  0.00  0.00     0.052 A 
HETATM    4  C   UNK N   1      29.523  17.654   7.073  0.00  0.00     0.052 A 
HETATM    5  C   UNK N   1      32.068  17.128   5.578  0.00  0.00     0.032 A 
HETATM    6  C   UNK N   1      30.670  17.676   7.899  0.00  0.00     0.032 A 
HETATM    7  C   UNK N   1      30.753  16.914   3.558  0.00  0.00     0.031 A 
HETATM    8  C   UNK N   1      28.269  17.907   7.672  0.00  0.00     0.031 A 
HETATM    9  C   UNK N   1      33.222  16.894   4.817  0.00  0.00     0.021 A 
HETATM   10  C   UNK N   1      30.537  17.936   9.270  0.00  0.00     0.021 A 
HETATM   11  C   UNK N   1      31.908  16.689   2.812  0.00  0.00     0.002 A 
HETATM   12  C   UNK N   1      28.153  18.172   9.036  0.00  0.00     0.002 A 
HETATM   13  C   UNK N   1      33.146  16.679   3.443  0.00  0.00     0.002 A 
HETATM   14  C   UNK N   1      29.289  18.183   9.836  0.00  0.00     0.002 A 
ENDROOT
BRANCH   2  15
HETATM   15  C   UNK N   1      28.307  17.216   4.961  0.00  0.00     0.131 C 
BRANCH  15  16
HETATM   16  C   UNK N   1      27.826  18.494   4.291  0.00  0.00     0.050 C 
BRANCH  16  17
HETATM   17  C   UNK N   1      26.362  18.297   3.929  0.00  0.00     0.273 C 
BRANCH  17  18
HETATM   18  N   UNK N   1      25.614  19.538   4.066  0.00  0.00     0.080 N 
HETATM   19  C   UNK N   1      25.907  20.094   5.377  0.00  0.00     0.309 C 
HETATM   20  C   UNK N   1      26.165  20.463   3.093  0.00  0.00     0.309 C 
ENDBRANCH  17  18
ENDBRANCH  16  17
ENDBRANCH  15  16
ENDBRANCH   2  15
TORSDOF 4
ENDMDL
MODEL 4
REMARK VINA RESULT:      -5.6      7.344     11.254
REMARK  4 active torsions:
REMARK  status: ('A' for Active; 'I' for Inactive)
REMARK    1  A    between atoms: N_2  and  C_4 
REMARK    2  A    between atoms: N_3  and  C_6 
REMARK    3  A    between atoms: C_4  and  C_5 
REMARK    4  A    between atoms: C_5  and  C_6 
ROOT
HETATM    1  S   UNK N   1      35.817   9.339  17.369  0.00  0.00    -0.086 SA
HETATM    2  N   UNK N   1      35.191  11.787  15.380  0.00  0.00    -0.345 N 
HETATM    3  C   UNK N   1      35.240  12.052  16.796  0.00  0.00     0.052 A 
HETATM    4  C   UNK N   1      35.353  10.476  14.818  0.00  0.00     0.052 A 
HETATM    5  C   UNK N   1      35.496  11.049  17.757  0.00  0.00     0.032 A 
HETATM    6  C   UNK N   1      35.629   9.329  15.596  0.00  0.00     0.032 A 
HETATM    7  C   UNK N   1      35.030  13.370  17.254  0.00  0.00     0.031 A 
HETATM    8  C   UNK N   1      35.245  10.317  13.417  0.00  0.00     0.031 A 
HETATM    9  C   UNK N   1      35.531  11.381  19.118  0.00  0.00     0.021 A 
HETATM   10  C   UNK N   1      35.795   8.086  14.972  0.00  0.00     0.021 A 
HETATM   11  C   UNK N   1      35.061  13.686  18.611  0.00  0.00     0.002 A 
HETATM   12  C   UNK N   1      35.406   9.072  12.812  0.00  0.00     0.002 A 
HETATM   13  C   UNK N   1      35.312  12.689  19.546  0.00  0.00     0.002 A 
HETATM   14  C   UNK N   1      35.685   7.955  13.590  0.00  0.00     0.002 A 
ENDROOT
BRANCH   2  15
HETATM   15  C   UNK N   1      35.076  12.909  14.455  0.00  0.00     0.131 C 
BRANCH  15  16
HETATM   16  C   UNK N   1      36.413  13.549  14.114  0.00  0.00     0.050 C 
BRANCH  16  17
HETATM   17  C   UNK N   1      36.486  13.674  12.600  0.00  0.00     0.273 C 
BRANCH  17  18
HETATM   18  N   UNK N   1      35.304  14.336  12.069  0.00  0.00     0.080 N 
HETATM   19  C   UNK N   1      35.683  15.686  11.681  0.00  0.00     0.309 C 
HETATM   20  C   UNK N   1      34.953  13.640  10.845  0.00  0.00     0.309 C 
ENDBRANCH  17  18
ENDBRANCH  16  17
ENDBRANCH  15  16
ENDBRANCH   2  15
TORSDOF 4
ENDMDL
MODEL 5
REMARK VINA RESULT:      -5.5      7.796     10.961
REMARK  4 active torsions:
REMARK  status: ('A' for Active; 'I' for Inactive)
REMARK    1  A    between atoms: N_2  and  C_4 
REMARK    2  A    between atoms: N_3  and  C_6 
REMARK    3  A    between atoms: C_4  and  C_5 
REMARK    4  A    between atoms: C_5  and  C_6 
ROOT
HETATM    1  S   UNK N   1      24.921  13.457   8.757  0.00  0.00    -0.086 SA
HETATM    2  N   UNK N   1      22.072  14.490   7.679  0.00  0.00    -0.345 N 
HETATM    3  C   UNK N   1      22.102  13.700   8.883  0.00  0.00     0.052 A 
HETATM    4  C   UNK N   1      23.244  14.793   6.906  0.00  0.00     0.052 A 
HETATM    5  C   UNK N   1      23.295  13.186   9.438  0.00  0.00     0.032 A 
HETATM    6  C   UNK N   1      24.545  14.389   7.284  0.00  0.00     0.032 A 
HETATM    7  C   UNK N   1      20.889  13.425   9.552  0.00  0.00     0.031 A 
HETATM    8  C   UNK N   1      23.101  15.542   5.717  0.00  0.00     0.031 A 
HETATM    9  C   UNK N   1      23.246  12.427  10.614  0.00  0.00     0.021 A 
HETATM   10  C   UNK N   1      25.643  14.741   6.489  0.00  0.00     0.021 A 
HETATM   11  C   UNK N   1      20.855  12.662  10.718  0.00  0.00     0.002 A 
HETATM   12  C   UNK N   1      24.203  15.879   4.932  0.00  0.00     0.002 A 
HETATM   13  C   UNK N   1      22.036  12.161  11.250  0.00  0.00     0.002 A 
HETATM   14  C   UNK N   1      25.476  15.480   5.320  0.00  0.00     0.002 A 
ENDROOT
BRANCH   2  15
HETATM   15  C   UNK N   1      20.815  15.107   7.269  0.00  0.00     0.131 C 
BRANCH  15  16
HETATM   16  C   UNK N   1      20.776  16.610   7.503  0.00  0.00     0.050 C 
BRANCH  16  17
HETATM   17  C   UNK N   1      20.164  16.842   8.876  0.00  0.00     0.273 C 
BRANCH  17  18
HETATM   18  N   UNK N   1      19.060  17.788   8.807  0.00  0.00     0.080 N 
HETATM   19  C   UNK N   1      17.854  17.102   9.244  0.00  0.00     0.309 C 
HETATM   20  C   UNK N   1      19.331  18.815   9.796  0.00  0.00     0.309 C 
ENDBRANCH  17  18
ENDBRANCH  16  17
ENDBRANCH  15  16
ENDBRANCH   2  15
TORSDOF 4
ENDMDL
MODEL 6
REMARK VINA RESULT:      -5.5      5.514      9.620
REMARK  4 active torsions:
REMARK  status: ('A' for Active; 'I' for Inactive)
REMARK    1  A    between atoms: N_2  and  C_4 
REMARK    2  A    between atoms: N_3  and  C_6 
REMARK    3  A    between atoms: C_4  and  C_5 
REMARK    4  A    between atoms: C_5  and  C_6 
ROOT
HETATM    1  S   UNK N   1      33.913  10.951  14.717  0.00  0.00    -0.086 SA
HETATM    2  N   UNK N   1      35.897  12.850  13.043  0.00  0.00    -0.345 N 
HETATM    3  C   UNK N   1      35.217  11.788  12.346  0.00  0.00     0.052 A 
HETATM    4  C   UNK N   1      35.777  13.067  14.458  0.00  0.00     0.052 A 
HETATM    5  C   UNK N   1      34.333  10.891  12.986  0.00  0.00     0.032 A 
HETATM    6  C   UNK N   1      34.936  12.294  15.291  0.00  0.00     0.032 A 
HETATM    7  C   UNK N   1      35.430  11.633  10.960  0.00  0.00     0.031 A 
HETATM    8  C   UNK N   1      36.521  14.112  15.052  0.00  0.00     0.031 A 
HETATM    9  C   UNK N   1      33.704   9.884  12.242  0.00  0.00     0.021 A 
HETATM   10  C   UNK N   1      34.856  12.581  16.660  0.00  0.00     0.021 A 
HETATM   11  C   UNK N   1      34.804  10.622  10.234  0.00  0.00     0.002 A 
HETATM   12  C   UNK N   1      36.435  14.381  16.418  0.00  0.00     0.002 A 
HETATM   13  C   UNK N   1      33.939   9.745  10.876  0.00  0.00     0.002 A 
HETATM   14  C   UNK N   1      35.599  13.616  17.222  0.00  0.00     0.002 A 
ENDROOT
BRANCH   2  15
HETATM   15  C   UNK N   1      36.667  13.821  12.274  0.00  0.00     0.131 C 
BRANCH  15  16
HETATM   16  C   UNK N   1      35.862  15.048  11.874  0.00  0.00     0.050 C 
BRANCH  16  17
HETATM   17  C   UNK N   1      36.237  15.393  10.441  0.00  0.00     0.273 C 
BRANCH  17  18
HETATM   18  N   UNK N   1      35.053  15.574   9.615  0.00  0.00     0.080 N 
HETATM   19  C   UNK N   1      33.921  15.000  10.325  0.00  0.00     0.309 C 
HETATM   20  C   UNK N   1      34.812  17.003   9.543  0.00  0.00     0.309 C 
ENDBRANCH  17  18
ENDBRANCH  16  17
ENDBRANCH  15  16
ENDBRANCH   2  15
TORSDOF 4
ENDMDL
MODEL 7
REMARK VINA RESULT:      -5.4     12.641     15.634
REMARK  4 active torsions:
REMARK  status: ('A' for Active; 'I' for Inactive)
REMARK    1  A    between atoms: N_2  and  C_4 
REMARK    2  A    between atoms: N_3  and  C_6 
REMARK    3  A    between atoms: C_4  and  C_5 
REMARK    4  A    between atoms: C_5  and  C_6 
ROOT
HETATM    1  S   UNK N   1      29.587  22.208  -6.594  0.00  0.00    -0.086 SA
HETATM    2  N   UNK N   1      27.617  23.883  -4.681  0.00  0.00    -0.345 N 
HETATM    3  C   UNK N   1      28.798  23.296  -4.101  0.00  0.00     0.052 A 
HETATM    4  C   UNK N   1      27.247  23.710  -6.058  0.00  0.00     0.052 A 
HETATM    5  C   UNK N   1      29.723  22.533  -4.846  0.00  0.00     0.032 A 
HETATM    6  C   UNK N   1      28.035  22.994  -6.987  0.00  0.00     0.032 A 
HETATM    7  C   UNK N   1      29.055  23.491  -2.726  0.00  0.00     0.031 A 
HETATM    8  C   UNK N   1      26.045  24.294  -6.519  0.00  0.00     0.031 A 
HETATM    9  C   UNK N   1      30.852  21.995  -4.214  0.00  0.00     0.021 A 
HETATM   10  C   UNK N   1      27.618  22.887  -8.320  0.00  0.00     0.021 A 
HETATM   11  C   UNK N   1      30.178  22.945  -2.109  0.00  0.00     0.002 A 
HETATM   12  C   UNK N   1      25.640  24.173  -7.848  0.00  0.00     0.002 A 
HETATM   13  C   UNK N   1      31.079  22.194  -2.854  0.00  0.00     0.002 A 
HETATM   14  C   UNK N   1      26.429  23.472  -8.750  0.00  0.00     0.002 A 
ENDROOT
BRANCH   2  15
HETATM   15  C   UNK N   1      26.803  24.782  -3.871  0.00  0.00     0.131 C 
BRANCH  15  16
HETATM   16  C   UNK N   1      27.212  26.242  -3.996  0.00  0.00     0.050 C 
BRANCH  16  17
HETATM   17  C   UNK N   1      26.203  27.067  -3.210  0.00  0.00     0.273 C 
BRANCH  17  18
HETATM   18  N   UNK N   1      25.721  28.194  -3.993  0.00  0.00     0.080 N 
HETATM   19  C   UNK N   1      26.391  29.392  -3.512  0.00  0.00     0.309 C 
HETATM   20  C   UNK N   1      26.182  27.983  -5.353  0.00  0.00     0.309 C 
ENDBRANCH  17  18
ENDBRANCH  16  17
ENDBRANCH  15  16
ENDBRANCH   2  15
TORSDOF 4
ENDMDL
MODEL 8
REMARK VINA RESULT:      -5.4      2.146      5.858
REMARK  4 active torsions:
REMARK  status: ('A' for Active; 'I' for Inactive)
REMARK    1  A    between atoms: N_2  and  C_4 
REMARK    2  A    between atoms: N_3  and  C_6 
REMARK    3  A    between atoms: C_4  and  C_5 
REMARK    4  A    between atoms: C_5  and  C_6 
ROOT
HETATM    1  S   UNK N   1      35.203  14.444   5.922  0.00  0.00    -0.086 SA
HETATM    2  N   UNK N   1      33.675  16.906   7.318  0.00  0.00    -0.345 N 
HETATM    3  C   UNK N   1      33.464  16.680   5.911  0.00  0.00     0.052 A 
HETATM    4  C   UNK N   1      34.576  16.122   8.116  0.00  0.00     0.052 A 
HETATM    5  C   UNK N   1      34.092  15.636   5.197  0.00  0.00     0.032 A 
HETATM    6  C   UNK N   1      35.299  15.020   7.607  0.00  0.00     0.032 A 
HETATM    7  C   UNK N   1      32.585  17.530   5.205  0.00  0.00     0.031 A 
HETATM    8  C   UNK N   1      34.743  16.453   9.479  0.00  0.00     0.031 A 
HETATM    9  C   UNK N   1      33.836  15.475   3.829  0.00  0.00     0.021 A 
HETATM   10  C   UNK N   1      36.144  14.289   8.453  0.00  0.00     0.021 A 
HETATM   11  C   UNK N   1      32.345  17.362   3.843  0.00  0.00     0.002 A 
HETATM   12  C   UNK N   1      35.593  15.721  10.307  0.00  0.00     0.002 A 
HETATM   13  C   UNK N   1      32.972  16.333   3.152  0.00  0.00     0.002 A 
HETATM   14  C   UNK N   1      36.292  14.636   9.794  0.00  0.00     0.002 A 
ENDROOT
BRANCH   2  15
HETATM   15  C   UNK N   1      32.865  17.908   8.002  0.00  0.00     0.131 C 
BRANCH  15  16
HETATM   16  C   UNK N   1      31.595  17.341   8.616  0.00  0.00     0.050 C 
BRANCH  16  17
HETATM   17  C   UNK N   1      30.462  18.303   8.291  0.00  0.00     0.273 C 
BRANCH  17  18
HETATM   18  N   UNK N   1      29.498  18.369   9.380  0.00  0.00     0.080 N 
HETATM   19  C   UNK N   1      28.177  18.546   8.798  0.00  0.00     0.309 C 
HETATM   20  C   UNK N   1      29.497  17.062  10.012  0.00  0.00     0.309 C 
ENDBRANCH  17  18
ENDBRANCH  16  17
ENDBRANCH  15  16
ENDBRANCH   2  15
TORSDOF 4
ENDMDL
MODEL 9
REMARK VINA RESULT:      -5.4      7.528     12.031
REMARK  4 active torsions:
REMARK  status: ('A' for Active; 'I' for Inactive)
REMARK    1  A    between atoms: N_2  and  C_4 
REMARK    2  A    between atoms: N_3  and  C_6 
REMARK    3  A    between atoms: C_4  and  C_5 
REMARK    4  A    between atoms: C_5  and  C_6 
ROOT
HETATM    1  S   UNK N   1      35.783   9.031  17.453  0.00  0.00    -0.086 SA
HETATM    2  N   UNK N   1      35.114  11.416  15.401  0.00  0.00    -0.345 N 
HETATM    3  C   UNK N   1      35.338  10.097  14.867  0.00  0.00     0.052 A 
HETATM    4  C   UNK N   1      35.231  11.730  16.798  0.00  0.00     0.052 A 
HETATM    5  C   UNK N   1      35.649   8.981  15.675  0.00  0.00     0.032 A 
HETATM    6  C   UNK N   1      35.521  10.763  17.786  0.00  0.00     0.032 A 
HETATM    7  C   UNK N   1      35.238   9.897  13.473  0.00  0.00     0.031 A 
HETATM    8  C   UNK N   1      35.032  13.066  17.214  0.00  0.00     0.031 A 
HETATM    9  C   UNK N   1      35.850   7.727  15.085  0.00  0.00     0.021 A 
HETATM   10  C   UNK N   1      35.597  11.143  19.133  0.00  0.00     0.021 A 
HETATM   11  C   UNK N   1      35.447   8.645  12.898  0.00  0.00     0.002 A 
HETATM   12  C   UNK N   1      35.118  13.430  18.558  0.00  0.00     0.002 A 
HETATM   13  C   UNK N   1      35.755   7.557  13.706  0.00  0.00     0.002 A 
HETATM   14  C   UNK N   1      35.398  12.466  19.518  0.00  0.00     0.002 A 
ENDROOT
BRANCH   2  15
HETATM   15  C   UNK N   1      34.646  12.470  14.508  0.00  0.00     0.131 C 
BRANCH  15  16
HETATM   16  C   UNK N   1      35.772  13.314  13.929  0.00  0.00     0.050 C 
BRANCH  16  17
HETATM   17  C   UNK N   1      35.287  13.870  12.599  0.00  0.00     0.273 C 
BRANCH  17  18
HETATM   18  N   UNK N   1      36.376  14.489  11.858  0.00  0.00     0.080 N 
HETATM   19  C   UNK N   1      36.619  13.689  10.668  0.00  0.00     0.309 C 
HETATM   20  C   UNK N   1      35.886  15.775  11.397  0.00  0.00     0.309 C 
ENDBRANCH  17  18
ENDBRANCH  16  17
ENDBRANCH  15  16
ENDBRANCH   2  15
TORSDOF 4
ENDMDL
