MODEL 1
REMARK VINA RESULT:      -7.9      0.000      0.000
REMARK  2 active torsions:
REMARK  status: ('A' for Active; 'I' for Inactive)
REMARK    1  A    between atoms: S_1  and  C_16 
REMARK    2  A    between atoms: S_1  and  C_28 
ROOT
HETATM    1  O   UNK N   1      27.159  28.434  -5.466  0.00  0.00    -0.309 OA
HETATM    2  O   UNK N   1      26.751  29.999  -3.922  0.00  0.00    -0.265 OA
HETATM    3  O   UNK N   1      33.152  19.856  -5.081  0.00  0.00    -0.293 OA
HETATM    4  C   UNK N   1      27.977  26.178  -5.550  0.00  0.00    -0.008 C 
HETATM    5  C   UNK N   1      27.468  24.925  -6.253  0.00  0.00     0.002 C 
HETATM    6  C   UNK N   1      28.547  23.797  -6.284  0.00  0.00     0.010 C 
HETATM    7  C   UNK N   1      26.806  27.141  -5.759  0.00  0.00     0.079 C 
HETATM    8  C   UNK N   1      28.962  23.505  -4.811  0.00  0.00     0.004 C 
HETATM    9  C   UNK N   1      28.295  25.874  -4.088  0.00  0.00     0.013 C 
HETATM   10  C   UNK N   1      26.929  25.491  -7.570  0.00  0.00     0.009 C 
HETATM   11  C   UNK N   1      30.127  22.486  -4.716  0.00  0.00    -0.016 C 
HETATM   12  C   UNK N   1      29.347  24.775  -4.012  0.00  0.00     0.007 C 
HETATM   13  C   UNK N   1      26.428  26.914  -7.226  0.00  0.00     0.040 C 
HETATM   14  C   UNK N   1      27.981  22.476  -6.887  0.00  0.00     0.064 C 
HETATM   15  C   UNK N   1      29.238  26.740  -6.239  0.00  0.00     0.019 C 
HETATM   16  C   UNK N   1      25.589  26.831  -4.849  0.00  0.00     0.049 C 
HETATM   17  C   UNK N   1      30.027  21.364  -5.746  0.00  0.00    -0.067 C 
HETATM   18  C   UNK N   1      28.925  21.274  -6.764  0.00  0.00     0.051 C 
HETATM   19  C   UNK N   1      31.512  23.133  -4.931  0.00  0.00     0.022 C 
HETATM   20  C   UNK N   1      30.086  21.898  -3.299  0.00  0.00     0.020 C 
HETATM   21  C   UNK N   1      25.513  27.975  -3.838  0.00  0.00     0.114 C 
HETATM   22  C   UNK N   1      26.503  28.909  -4.407  0.00  0.00     0.259 C 
HETATM   23  C   UNK N   1      32.643  22.125  -4.634  0.00  0.00     0.084 C 
HETATM   24  C   UNK N   1      31.057  20.514  -5.892  0.00  0.00     0.053 C 
HETATM   25  C   UNK N   1      32.326  20.749  -5.172  0.00  0.00     0.149 C 
ENDROOT
BRANCH  14  26
HETATM   26  S   UNK N   1      27.613  22.670  -8.672  0.00  0.00    -0.087 SA
BRANCH  26  27
HETATM   27  C   UNK N   1      25.933  22.050  -8.579  0.00  0.00     0.182 C 
HETATM   28  O   UNK N   1      25.344  21.730  -9.598  0.00  0.00    -0.286 OA
HETATM   29  C   UNK N   1      25.248  21.955  -7.260  0.00  0.00     0.104 C 
ENDBRANCH  26  27
ENDBRANCH  14  26
TORSDOF 2
ENDMDL
MODEL 2
REMARK VINA RESULT:      -7.8     12.273     15.721
REMARK  2 active torsions:
REMARK  status: ('A' for Active; 'I' for Inactive)
REMARK    1  A    between atoms: S_1  and  C_16 
REMARK    2  A    between atoms: S_1  and  C_28 
ROOT
HETATM    1  O   UNK N   1      33.531  14.540   2.403  0.00  0.00    -0.309 OA
HETATM    2  O   UNK N   1      33.359  13.065   0.732  0.00  0.00    -0.265 OA
HETATM    3  O   UNK N   1      26.336  20.743   6.807  0.00  0.00    -0.293 OA
HETATM    4  C   UNK N   1      32.079  15.659   3.953  0.00  0.00    -0.008 C 
HETATM    5  C   UNK N   1      32.149  15.867   5.462  0.00  0.00     0.002 C 
HETATM    6  C   UNK N   1      31.148  16.963   5.945  0.00  0.00     0.010 C 
HETATM    7  C   UNK N   1      33.210  14.652   3.732  0.00  0.00     0.079 C 
HETATM    8  C   UNK N   1      29.723  16.533   5.485  0.00  0.00     0.004 C 
HETATM    9  C   UNK N   1      30.695  15.158   3.550  0.00  0.00     0.013 C 
HETATM   10  C   UNK N   1      33.651  16.060   5.692  0.00  0.00     0.009 C 
HETATM   11  C   UNK N   1      28.651  17.610   5.797  0.00  0.00    -0.016 C 
HETATM   12  C   UNK N   1      29.640  16.168   3.982  0.00  0.00     0.007 C 
HETATM   13  C   UNK N   1      34.342  15.204   4.604  0.00  0.00     0.040 C 
HETATM   14  C   UNK N   1      31.129  17.081   7.498  0.00  0.00     0.064 C 
HETATM   15  C   UNK N   1      32.392  16.963   3.189  0.00  0.00     0.019 C 
HETATM   16  C   UNK N   1      32.847  13.215   4.191  0.00  0.00     0.049 C 
HETATM   17  C   UNK N   1      28.873  18.306   7.136  0.00  0.00    -0.067 C 
HETATM   18  C   UNK N   1      30.028  17.997   8.046  0.00  0.00     0.051 C 
HETATM   19  C   UNK N   1      28.604  18.734   4.739  0.00  0.00     0.022 C 
HETATM   20  C   UNK N   1      27.293  16.895   5.799  0.00  0.00     0.020 C 
HETATM   21  C   UNK N   1      32.721  12.383   2.914  0.00  0.00     0.114 C 
HETATM   22  C   UNK N   1      33.248  13.332   1.915  0.00  0.00     0.259 C 
HETATM   23  C   UNK N   1      27.399  19.668   4.984  0.00  0.00     0.084 C 
HETATM   24  C   UNK N   1      28.125  19.377   7.451  0.00  0.00     0.053 C 
HETATM   25  C   UNK N   1      27.203  19.962   6.454  0.00  0.00     0.149 C 
ENDROOT
BRANCH  14  26
HETATM   26  S   UNK N   1      32.718  17.742   8.130  0.00  0.00    -0.087 SA
BRANCH  26  27
HETATM   27  C   UNK N   1      33.154  16.286   9.081  0.00  0.00     0.182 C 
HETATM   28  O   UNK N   1      34.210  16.250   9.692  0.00  0.00    -0.286 OA
HETATM   29  C   UNK N   1      32.241  15.110   9.101  0.00  0.00     0.104 C 
ENDBRANCH  26  27
ENDBRANCH  14  26
TORSDOF 2
ENDMDL
MODEL 3
REMARK VINA RESULT:      -7.7     12.841     15.751
REMARK  2 active torsions:
REMARK  status: ('A' for Active; 'I' for Inactive)
REMARK    1  A    between atoms: S_1  and  C_16 
REMARK    2  A    between atoms: S_1  and  C_28 
ROOT
HETATM    1  O   UNK N   1      34.701  16.226   5.929  0.00  0.00    -0.309 OA
HETATM    2  O   UNK N   1      36.520  14.944   5.714  0.00  0.00    -0.265 OA
HETATM    3  O   UNK N   1      25.037  15.078   2.064  0.00  0.00    -0.293 OA
HETATM    4  C   UNK N   1      32.324  16.011   5.671  0.00  0.00    -0.008 C 
HETATM    5  C   UNK N   1      31.151  16.414   6.559  0.00  0.00     0.002 C 
HETATM    6  C   UNK N   1      29.797  16.378   5.785  0.00  0.00     0.010 C 
HETATM    7  C   UNK N   1      33.510  16.240   6.609  0.00  0.00     0.079 C 
HETATM    8  C   UNK N   1      29.621  14.940   5.212  0.00  0.00     0.004 C 
HETATM    9  C   UNK N   1      32.159  14.569   5.197  0.00  0.00     0.013 C 
HETATM   10  C   UNK N   1      31.643  17.733   7.162  0.00  0.00     0.009 C 
HETATM   11  C   UNK N   1      28.366  14.811   4.311  0.00  0.00    -0.016 C 
HETATM   12  C   UNK N   1      30.853  14.431   4.425  0.00  0.00     0.007 C 
HETATM   13  C   UNK N   1      33.180  17.587   7.263  0.00  0.00     0.040 C 
HETATM   14  C   UNK N   1      28.588  16.664   6.726  0.00  0.00     0.064 C 
HETATM   15  C   UNK N   1      32.448  16.939   4.444  0.00  0.00     0.019 C 
HETATM   16  C   UNK N   1      33.646  15.147   7.701  0.00  0.00     0.049 C 
HETATM   17  C   UNK N   1      27.172  15.607   4.830  0.00  0.00    -0.067 C 
HETATM   18  C   UNK N   1      27.218  16.450   6.073  0.00  0.00     0.051 C 
HETATM   19  C   UNK N   1      28.608  15.307   2.869  0.00  0.00     0.022 C 
HETATM   20  C   UNK N   1      28.013  13.319   4.253  0.00  0.00     0.020 C 
HETATM   21  C   UNK N   1      34.904  14.352   7.349  0.00  0.00     0.114 C 
HETATM   22  C   UNK N   1      35.470  15.195   6.279  0.00  0.00     0.259 C 
HETATM   23  C   UNK N   1      27.401  14.978   1.964  0.00  0.00     0.084 C 
HETATM   24  C   UNK N   1      26.078  15.727   4.058  0.00  0.00     0.053 C 
HETATM   25  C   UNK N   1      26.086  15.222   2.669  0.00  0.00     0.149 C 
ENDROOT
BRANCH  14  26
HETATM   26  S   UNK N   1      28.614  18.396   7.326  0.00  0.00    -0.087 SA
BRANCH  26  27
HETATM   27  C   UNK N   1      28.547  17.985   9.070  0.00  0.00     0.182 C 
HETATM   28  O   UNK N   1      27.634  17.300   9.500  0.00  0.00    -0.286 OA
HETATM   29  C   UNK N   1      29.590  18.505   9.996  0.00  0.00     0.104 C 
ENDBRANCH  26  27
ENDBRANCH  14  26
TORSDOF 2
ENDMDL
MODEL 4
REMARK VINA RESULT:      -7.6     14.618     16.653
REMARK  2 active torsions:
REMARK  status: ('A' for Active; 'I' for Inactive)
REMARK    1  A    between atoms: S_1  and  C_16 
REMARK    2  A    between atoms: S_1  and  C_28 
ROOT
HETATM    1  O   UNK N   1      20.718  18.264   3.910  0.00  0.00    -0.309 OA
HETATM    2  O   UNK N   1      18.820  18.533   2.760  0.00  0.00    -0.265 OA
HETATM    3  O   UNK N   1      23.137  11.634  11.646  0.00  0.00    -0.293 OA
HETATM    4  C   UNK N   1      21.755  16.585   5.278  0.00  0.00    -0.008 C 
HETATM    5  C   UNK N   1      23.160  15.991   5.291  0.00  0.00     0.002 C 
HETATM    6  C   UNK N   1      23.439  15.188   6.599  0.00  0.00     0.010 C 
HETATM    7  C   UNK N   1      21.780  17.399   3.982  0.00  0.00     0.079 C 
HETATM    8  C   UNK N   1      22.344  14.086   6.716  0.00  0.00     0.004 C 
HETATM    9  C   UNK N   1      20.709  15.474   5.309  0.00  0.00     0.013 C 
HETATM   10  C   UNK N   1      24.026  17.207   4.951  0.00  0.00     0.009 C 
HETATM   11  C   UNK N   1      22.439  13.297   8.048  0.00  0.00    -0.016 C 
HETATM   12  C   UNK N   1      20.901  14.626   6.560  0.00  0.00     0.007 C 
HETATM   13  C   UNK N   1      23.147  18.090   4.034  0.00  0.00     0.040 C 
HETATM   14  C   UNK N   1      24.824  14.476   6.553  0.00  0.00     0.064 C 
HETATM   15  C   UNK N   1      21.531  17.530   6.478  0.00  0.00     0.019 C 
HETATM   16  C   UNK N   1      21.684  16.522   2.707  0.00  0.00     0.049 C 
HETATM   17  C   UNK N   1      23.876  13.032   8.486  0.00  0.00    -0.067 C 
HETATM   18  C   UNK N   1      25.076  13.512   7.719  0.00  0.00     0.051 C 
HETATM   19  C   UNK N   1      21.765  14.028   9.229  0.00  0.00     0.022 C 
HETATM   20  C   UNK N   1      21.708  11.965   7.826  0.00  0.00     0.020 C 
HETATM   21  C   UNK N   1      20.308  16.804   2.102  0.00  0.00     0.114 C 
HETATM   22  C   UNK N   1      19.879  17.952   2.923  0.00  0.00     0.259 C 
HETATM   23  C   UNK N   1      21.712  13.122  10.478  0.00  0.00     0.084 C 
HETATM   24  C   UNK N   1      24.105  12.515   9.705  0.00  0.00     0.053 C 
HETATM   25  C   UNK N   1      22.993  12.342  10.663  0.00  0.00     0.149 C 
ENDROOT
BRANCH  14  26
HETATM   26  S   UNK N   1      26.194  15.694   6.580  0.00  0.00    -0.087 SA
BRANCH  26  27
HETATM   27  C   UNK N   1      27.164  14.904   5.295  0.00  0.00     0.182 C 
HETATM   28  O   UNK N   1      28.380  14.861   5.389  0.00  0.00    -0.286 OA
HETATM   29  C   UNK N   1      26.487  14.328   4.101  0.00  0.00     0.104 C 
ENDBRANCH  26  27
ENDBRANCH  14  26
TORSDOF 2
ENDMDL
MODEL 5
REMARK VINA RESULT:      -7.6      2.665      7.533
REMARK  2 active torsions:
REMARK  status: ('A' for Active; 'I' for Inactive)
REMARK    1  A    between atoms: S_1  and  C_16 
REMARK    2  A    between atoms: S_1  and  C_28 
ROOT
HETATM    1  O   UNK N   1      30.715  20.388  -9.390  0.00  0.00    -0.309 OA
HETATM    2  O   UNK N   1      30.152  18.854 -10.916  0.00  0.00    -0.265 OA
HETATM    3  O   UNK N   1      25.017  27.894  -4.825  0.00  0.00    -0.293 OA
HETATM    4  C   UNK N   1      29.616  21.814  -7.802  0.00  0.00    -0.008 C 
HETATM    5  C   UNK N   1      29.875  22.105  -6.327  0.00  0.00     0.002 C 
HETATM    6  C   UNK N   1      29.103  23.370  -5.840  0.00  0.00     0.010 C 
HETATM    7  C   UNK N   1      30.556  20.633  -8.050  0.00  0.00     0.079 C 
HETATM    8  C   UNK N   1      27.589  23.137  -6.127  0.00  0.00     0.004 C 
HETATM    9  C   UNK N   1      28.139  21.508  -8.031  0.00  0.00     0.013 C 
HETATM   10  C   UNK N   1      31.404  22.078  -6.258  0.00  0.00     0.009 C 
HETATM   11  C   UNK N   1      26.727  24.383  -5.800  0.00  0.00    -0.016 C 
HETATM   12  C   UNK N   1      27.295  22.694  -7.581  0.00  0.00     0.007 C 
HETATM   13  C   UNK N   1      31.844  21.058  -7.335  0.00  0.00     0.040 C 
HETATM   14  C   UNK N   1      29.266  23.588  -4.306  0.00  0.00     0.064 C 
HETATM   15  C   UNK N   1      30.034  23.003  -8.693  0.00  0.00     0.019 C 
HETATM   16  C   UNK N   1      30.037  19.301  -7.446  0.00  0.00     0.049 C 
HETATM   17  C   UNK N   1      27.189  25.121  -4.547  0.00  0.00    -0.067 C 
HETATM   18  C   UNK N   1      28.376  24.696  -3.729  0.00  0.00     0.051 C 
HETATM   19  C   UNK N   1      26.733  25.432  -6.933  0.00  0.00     0.022 C 
HETATM   20  C   UNK N   1      25.286  23.887  -5.612  0.00  0.00     0.020 C 
HETATM   21  C   UNK N   1      29.656  18.419  -8.635  0.00  0.00     0.114 C 
HETATM   22  C   UNK N   1      30.207  19.209  -9.751  0.00  0.00     0.259 C 
HETATM   23  C   UNK N   1      25.711  26.554  -6.650  0.00  0.00     0.084 C 
HETATM   24  C   UNK N   1      26.643  26.312  -4.248  0.00  0.00     0.053 C 
HETATM   25  C   UNK N   1      25.717  26.967  -5.196  0.00  0.00     0.149 C 
ENDROOT
BRANCH  14  26
HETATM   26  S   UNK N   1      30.993  24.035  -3.882  0.00  0.00    -0.087 SA
BRANCH  26  27
HETATM   27  C   UNK N   1      31.194  22.792  -2.606  0.00  0.00     0.182 C 
HETATM   28  O   UNK N   1      30.611  22.911  -1.541  0.00  0.00    -0.286 OA
HETATM   29  C   UNK N   1      32.096  21.629  -2.836  0.00  0.00     0.104 C 
ENDBRANCH  26  27
ENDBRANCH  14  26
TORSDOF 2
ENDMDL
MODEL 6
REMARK VINA RESULT:      -7.3     11.769     14.537
REMARK  2 active torsions:
REMARK  status: ('A' for Active; 'I' for Inactive)
REMARK    1  A    between atoms: S_1  and  C_16 
REMARK    2  A    between atoms: S_1  and  C_28 
ROOT
HETATM    1  O   UNK N   1      26.668  17.658   5.200  0.00  0.00    -0.309 OA
HETATM    2  O   UNK N   1      25.063  18.157   3.727  0.00  0.00    -0.265 OA
HETATM    3  O   UNK N   1      35.813  12.718   3.929  0.00  0.00    -0.293 OA
HETATM    4  C   UNK N   1      28.996  17.072   5.175  0.00  0.00    -0.008 C 
HETATM    5  C   UNK N   1      30.195  17.581   5.969  0.00  0.00     0.002 C 
HETATM    6  C   UNK N   1      31.427  16.633   5.833  0.00  0.00     0.010 C 
HETATM    7  C   UNK N   1      27.920  18.087   5.564  0.00  0.00     0.079 C 
HETATM    8  C   UNK N   1      31.753  16.501   4.315  0.00  0.00     0.004 C 
HETATM    9  C   UNK N   1      29.324  17.036   3.685  0.00  0.00     0.013 C 
HETATM   10  C   UNK N   1      29.582  17.833   7.350  0.00  0.00     0.009 C 
HETATM   11  C   UNK N   1      32.886  15.478   4.041  0.00  0.00    -0.016 C 
HETATM   12  C   UNK N   1      30.526  16.128   3.448  0.00  0.00     0.007 C 
HETATM   13  C   UNK N   1      28.114  18.236   7.077  0.00  0.00     0.040 C 
HETATM   14  C   UNK N   1      32.686  17.221   6.538  0.00  0.00     0.064 C 
HETATM   15  C   UNK N   1      28.570  15.663   5.637  0.00  0.00     0.019 C 
HETATM   16  C   UNK N   1      28.100  19.465   4.874  0.00  0.00     0.049 C 
HETATM   17  C   UNK N   1      33.996  15.519   5.087  0.00  0.00    -0.067 C 
HETATM   18  C   UNK N   1      33.978  16.438   6.276  0.00  0.00     0.051 C 
HETATM   19  C   UNK N   1      32.384  14.018   4.014  0.00  0.00     0.022 C 
HETATM   20  C   UNK N   1      33.460  15.815   2.658  0.00  0.00     0.020 C 
HETATM   21  C   UNK N   1      26.949  19.591   3.875  0.00  0.00     0.114 C 
HETATM   22  C   UNK N   1      26.124  18.431   4.260  0.00  0.00     0.259 C 
HETATM   23  C   UNK N   1      33.502  13.062   3.545  0.00  0.00     0.084 C 
HETATM   24  C   UNK N   1      34.948  14.571   5.070  0.00  0.00     0.053 C 
HETATM   25  C   UNK N   1      34.841  13.422   4.145  0.00  0.00     0.149 C 
ENDROOT
BRANCH  14  26
HETATM   26  S   UNK N   1      32.464  17.264   8.358  0.00  0.00    -0.087 SA
BRANCH  26  27
HETATM   27  C   UNK N   1      34.145  17.764   8.733  0.00  0.00     0.182 C 
HETATM   28  O   UNK N   1      34.597  18.790   8.254  0.00  0.00    -0.286 OA
HETATM   29  C   UNK N   1      34.997  16.910   9.606  0.00  0.00     0.104 C 
ENDBRANCH  26  27
ENDBRANCH  14  26
TORSDOF 2
ENDMDL
MODEL 7
REMARK VINA RESULT:      -7.3      2.020      5.359
REMARK  2 active torsions:
REMARK  status: ('A' for Active; 'I' for Inactive)
REMARK    1  A    between atoms: S_1  and  C_16 
REMARK    2  A    between atoms: S_1  and  C_28 
ROOT
HETATM    1  O   UNK N   1      25.973  22.067 -10.302  0.00  0.00    -0.309 OA
HETATM    2  O   UNK N   1      26.332  21.625 -12.464  0.00  0.00    -0.265 OA
HETATM    3  O   UNK N   1      32.398  21.491  -2.053  0.00  0.00    -0.293 OA
HETATM    4  C   UNK N   1      27.268  22.557  -8.340  0.00  0.00    -0.008 C 
HETATM    5  C   UNK N   1      27.144  23.633  -7.267  0.00  0.00     0.002 C 
HETATM    6  C   UNK N   1      28.017  23.308  -6.014  0.00  0.00     0.010 C 
HETATM    7  C   UNK N   1      26.252  23.041  -9.376  0.00  0.00     0.079 C 
HETATM    8  C   UNK N   1      29.488  23.141  -6.498  0.00  0.00     0.004 C 
HETATM    9  C   UNK N   1      28.705  22.479  -8.849  0.00  0.00     0.013 C 
HETATM   10  C   UNK N   1      25.626  23.765  -7.117  0.00  0.00     0.009 C 
HETATM   11  C   UNK N   1      30.437  22.689  -5.358  0.00  0.00    -0.016 C 
HETATM   12  C   UNK N   1      29.642  22.164  -7.690  0.00  0.00     0.007 C 
HETATM   13  C   UNK N   1      25.050  23.450  -8.518  0.00  0.00     0.040 C 
HETATM   14  C   UNK N   1      27.989  24.470  -4.977  0.00  0.00     0.064 C 
HETATM   15  C   UNK N   1      26.842  21.174  -7.804  0.00  0.00     0.019 C 
HETATM   16  C   UNK N   1      26.749  24.260 -10.197  0.00  0.00     0.049 C 
HETATM   17  C   UNK N   1      30.116  23.341  -4.016  0.00  0.00    -0.067 C 
HETATM   18  C   UNK N   1      28.978  24.302  -3.817  0.00  0.00     0.051 C 
HETATM   19  C   UNK N   1      30.394  21.166  -5.108  0.00  0.00     0.022 C 
HETATM   20  C   UNK N   1      31.861  23.064  -5.792  0.00  0.00     0.020 C 
HETATM   21  C   UNK N   1      26.987  23.744 -11.617  0.00  0.00     0.114 C 
HETATM   22  C   UNK N   1      26.389  22.399 -11.524  0.00  0.00     0.259 C 
HETATM   23  C   UNK N   1      31.491  20.741  -4.108  0.00  0.00     0.084 C 
HETATM   24  C   UNK N   1      30.744  22.909  -2.910  0.00  0.00     0.053 C 
HETATM   25  C   UNK N   1      31.623  21.722  -2.966  0.00  0.00     0.149 C 
ENDROOT
BRANCH  14  26
HETATM   26  S   UNK N   1      26.327  24.642  -4.222  0.00  0.00    -0.087 SA
BRANCH  26  27
HETATM   27  C   UNK N   1      26.204  26.416  -4.458  0.00  0.00     0.182 C 
HETATM   28  O   UNK N   1      26.911  27.168  -3.808  0.00  0.00    -0.286 OA
HETATM   29  C   UNK N   1      25.217  26.970  -5.425  0.00  0.00     0.104 C 
ENDBRANCH  26  27
ENDBRANCH  14  26
TORSDOF 2
ENDMDL
MODEL 8
REMARK VINA RESULT:      -7.2     18.038     21.256
REMARK  2 active torsions:
REMARK  status: ('A' for Active; 'I' for Inactive)
REMARK    1  A    between atoms: S_1  and  C_16 
REMARK    2  A    between atoms: S_1  and  C_28 
ROOT
HETATM    1  O   UNK N   1      35.061  16.386   7.980  0.00  0.00    -0.309 OA
HETATM    2  O   UNK N   1      34.917  18.617   7.964  0.00  0.00    -0.265 OA
HETATM    3  O   UNK N   1      37.431   9.748  15.725  0.00  0.00    -0.293 OA
HETATM    4  C   UNK N   1      35.031  14.605   9.591  0.00  0.00    -0.008 C 
HETATM    5  C   UNK N   1      34.273  13.283   9.650  0.00  0.00     0.002 C 
HETATM    6  C   UNK N   1      34.867  12.320  10.725  0.00  0.00     0.010 C 
HETATM    7  C   UNK N   1      34.346  15.298   8.411  0.00  0.00     0.079 C 
HETATM    8  C   UNK N   1      34.836  13.067  12.092  0.00  0.00     0.004 C 
HETATM    9  C   UNK N   1      34.909  15.347  10.919  0.00  0.00     0.013 C 
HETATM   10  C   UNK N   1      34.256  12.857   8.179  0.00  0.00     0.009 C 
HETATM   11  C   UNK N   1      35.519  12.256  13.224  0.00  0.00    -0.016 C 
HETATM   12  C   UNK N   1      35.466  14.480  12.042  0.00  0.00     0.007 C 
HETATM   13  C   UNK N   1      34.228  14.177   7.372  0.00  0.00     0.040 C 
HETATM   14  C   UNK N   1      34.012  11.026  10.872  0.00  0.00     0.064 C 
HETATM   15  C   UNK N   1      36.524  14.386   9.266  0.00  0.00     0.019 C 
HETATM   16  C   UNK N   1      32.935  15.842   8.757  0.00  0.00     0.049 C 
HETATM   17  C   UNK N   1      35.249  10.757  13.135  0.00  0.00    -0.067 C 
HETATM   18  C   UNK N   1      34.425  10.129  12.046  0.00  0.00     0.051 C 
HETATM   19  C   UNK N   1      37.056  12.408  13.227  0.00  0.00     0.022 C 
HETATM   20  C   UNK N   1      34.979  12.806  14.551  0.00  0.00     0.020 C 
HETATM   21  C   UNK N   1      33.058  17.367   8.750  0.00  0.00     0.114 C 
HETATM   22  C   UNK N   1      34.408  17.530   8.180  0.00  0.00     0.259 C 
HETATM   23  C   UNK N   1      37.671  11.749  14.481  0.00  0.00     0.084 C 
HETATM   24  C   UNK N   1      35.920   9.921  13.945  0.00  0.00     0.053 C 
HETATM   25  C   UNK N   1      37.010  10.428  14.804  0.00  0.00     0.149 C 
ENDROOT
BRANCH  14  26
HETATM   26  S   UNK N   1      34.118   9.989   9.364  0.00  0.00    -0.087 SA
BRANCH  26  27
HETATM   27  C   UNK N   1      32.450   9.340   9.473  0.00  0.00     0.182 C 
HETATM   28  O   UNK N   1      31.502  10.038   9.154  0.00  0.00    -0.286 OA
HETATM   29  C   UNK N   1      32.222   7.959   9.981  0.00  0.00     0.104 C 
ENDBRANCH  26  27
ENDBRANCH  14  26
TORSDOF 2
ENDMDL
MODEL 9
REMARK VINA RESULT:      -7.2      2.131      6.729
REMARK  2 active torsions:
REMARK  status: ('A' for Active; 'I' for Inactive)
REMARK    1  A    between atoms: S_1  and  C_16 
REMARK    2  A    between atoms: S_1  and  C_28 
ROOT
HETATM    1  O   UNK N   1      32.033  23.214  -4.211  0.00  0.00    -0.309 OA
HETATM    2  O   UNK N   1      33.027  21.304  -3.609  0.00  0.00    -0.265 OA
HETATM    3  O   UNK N   1      24.439  25.062 -11.181  0.00  0.00    -0.293 OA
HETATM    4  C   UNK N   1      30.004  23.908  -5.292  0.00  0.00    -0.008 C 
HETATM    5  C   UNK N   1      28.960  24.963  -4.942  0.00  0.00     0.002 C 
HETATM    6  C   UNK N   1      28.018  25.271  -6.147  0.00  0.00     0.010 C 
HETATM    7  C   UNK N   1      30.849  23.880  -4.017  0.00  0.00     0.079 C 
HETATM    8  C   UNK N   1      27.360  23.928  -6.584  0.00  0.00     0.004 C 
HETATM    9  C   UNK N   1      29.328  22.584  -5.634  0.00  0.00     0.013 C 
HETATM   10  C   UNK N   1      29.819  26.082  -4.347  0.00  0.00     0.009 C 
HETATM   11  C   UNK N   1      26.494  24.082  -7.861  0.00  0.00    -0.016 C 
HETATM   12  C   UNK N   1      28.378  22.783  -6.809  0.00  0.00     0.007 C 
HETATM   13  C   UNK N   1      31.016  25.365  -3.678  0.00  0.00     0.040 C 
HETATM   14  C   UNK N   1      26.874  26.250  -5.747  0.00  0.00     0.064 C 
HETATM   15  C   UNK N   1      30.880  24.355  -6.482  0.00  0.00     0.019 C 
HETATM   16  C   UNK N   1      30.154  23.149  -2.839  0.00  0.00     0.049 C 
HETATM   17  C   UNK N   1      25.716  25.394  -7.902  0.00  0.00    -0.067 C 
HETATM   18  C   UNK N   1      25.801  26.440  -6.827  0.00  0.00     0.051 C 
HETATM   19  C   UNK N   1      27.327  24.046  -9.161  0.00  0.00     0.022 C 
HETATM   20  C   UNK N   1      25.520  22.897  -7.881  0.00  0.00     0.020 C 
HETATM   21  C   UNK N   1      30.941  21.855  -2.621  0.00  0.00     0.114 C 
HETATM   22  C   UNK N   1      32.104  22.092  -3.496  0.00  0.00     0.259 C 
HETATM   23  C   UNK N   1      26.409  24.004 -10.402  0.00  0.00     0.084 C 
HETATM   24  C   UNK N   1      25.065  25.735  -9.027  0.00  0.00     0.053 C 
HETATM   25  C   UNK N   1      25.221  24.927 -10.255  0.00  0.00     0.149 C 
ENDROOT
BRANCH  14  26
HETATM   26  S   UNK N   1      27.534  27.919  -5.370  0.00  0.00    -0.087 SA
BRANCH  26  27
HETATM   27  C   UNK N   1      26.636  28.126  -3.832  0.00  0.00     0.182 C 
HETATM   28  O   UNK N   1      26.313  29.242  -3.460  0.00  0.00    -0.286 OA
HETATM   29  C   UNK N   1      26.312  26.938  -2.995  0.00  0.00     0.104 C 
ENDBRANCH  26  27
ENDBRANCH  14  26
TORSDOF 2
ENDMDL
