REMARK  4 active torsions:
REMARK  status: ('A' for Active; 'I' for Inactive)
REMARK    1  A    between atoms: O_1  and  C_11 
REMARK    2  A    between atoms: C_4  and  C_6 
REMARK    3  A    between atoms: C_6  and  C_10 
REMARK    4  A    between atoms: C_6  and  C_11 
ROOT
HETATM    1  C   UNK N   1       4.072   0.215   0.081  0.00  0.00     0.140 C 
ENDROOT
BRANCH   1   2
HETATM    2  C   UNK N   1       5.369   0.951  -0.343  0.00  0.00     0.094 C 
HETATM    3  N   UNK N   1       6.545   0.245   0.181  0.00  0.00    -0.416 N 
HETATM    4  C   UNK N   1       7.767   0.871  -0.321  0.00  0.00     0.114 C 
HETATM    5  H   UNK N   1       6.515  -0.563   0.803  0.00  0.00     0.153 HD
HETATM    6  C   UNK N   1       7.878   2.297   0.207  0.00  0.00     0.019 C 
HETATM    7  C   UNK N   1       6.673   3.095  -0.271  0.00  0.00     0.004 C 
HETATM    8  C   UNK N   1       5.390   2.398   0.165  0.00  0.00     0.026 C 
ENDBRANCH   1   2
BRANCH   1   9
HETATM    9  C   UNK N   1       2.690   0.829  -0.072  0.00  0.00    -0.043 A 
HETATM   10  C   UNK N   1       1.543   0.024   0.050  0.00  0.00     0.008 A 
HETATM   11  C   UNK N   1       0.266   0.585  -0.027  0.00  0.00     0.001 A 
HETATM   12  C   UNK N   1       0.118   1.962  -0.210  0.00  0.00     0.000 A 
HETATM   13  C   UNK N   1       1.247   2.773  -0.332  0.00  0.00     0.001 A 
HETATM   14  C   UNK N   1       2.525   2.209  -0.265  0.00  0.00     0.008 A 
ENDBRANCH   1   9
BRANCH   1  15
HETATM   15  C   UNK N   1       4.153  -1.278   0.301  0.00  0.00     0.269 C 
HETATM   16  O   UNK N   1       4.720  -1.703   1.289  0.00  0.00    -0.264 OA
BRANCH  15  17
HETATM   17  O   UNK N   1       3.567  -2.126  -0.584  0.00  0.00    -0.326 OA
HETATM   18  C   UNK N   1       3.561  -3.489  -0.387  0.00  0.00     0.213 C 
ENDBRANCH  15  17
ENDBRANCH   1  15
TORSDOF 4
