MODEL 1
REMARK VINA RESULT:      -6.2      0.000      0.000
REMARK  4 active torsions:
REMARK  status: ('A' for Active; 'I' for Inactive)
REMARK    1  A    between atoms: O_1  and  C_11 
REMARK    2  A    between atoms: C_4  and  C_6 
REMARK    3  A    between atoms: C_6  and  C_10 
REMARK    4  A    between atoms: C_6  and  C_11 
ROOT
HETATM    1  C   UNK N   1      33.245  17.098   8.134  0.00  0.00     0.140 C 
ENDROOT
BRANCH   1   2
HETATM    2  C   UNK N   1      33.949  16.249   9.223  0.00  0.00     0.094 C 
HETATM    3  N   UNK N   1      34.727  17.117  10.116  0.00  0.00    -0.416 N 
HETATM    4  C   UNK N   1      35.291  16.330  11.211  0.00  0.00     0.114 C 
HETATM    5  H   UNK N   1      34.856  18.122   9.991  0.00  0.00     0.153 HD
HETATM    6  C   UNK N   1      36.284  15.311  10.664  0.00  0.00     0.019 C 
HETATM    7  C   UNK N   1      35.559  14.383   9.701  0.00  0.00     0.004 C 
HETATM    8  C   UNK N   1      34.886  15.202   8.607  0.00  0.00     0.026 C 
ENDBRANCH   1   2
BRANCH   1   9
HETATM    9  C   UNK N   1      31.748  17.364   8.138  0.00  0.00    -0.043 A 
HETATM   10  C   UNK N   1      31.212  18.363   8.971  0.00  0.00     0.008 A 
HETATM   11  C   UNK N   1      29.847  18.660   8.941  0.00  0.00     0.001 A 
HETATM   12  C   UNK N   1      29.002  17.975   8.064  0.00  0.00     0.000 A 
HETATM   13  C   UNK N   1      29.521  16.982   7.232  0.00  0.00     0.001 A 
HETATM   14  C   UNK N   1      30.885  16.678   7.270  0.00  0.00     0.008 A 
ENDBRANCH   1   9
BRANCH   1  15
HETATM   15  C   UNK N   1      34.109  17.983   7.266  0.00  0.00     0.269 C 
HETATM   16  O   UNK N   1      34.852  18.789   7.793  0.00  0.00    -0.264 OA
BRANCH  15  17
HETATM   17  O   UNK N   1      34.074  17.849   5.915  0.00  0.00    -0.326 OA
HETATM   18  C   UNK N   1      33.955  16.617   5.311  0.00  0.00     0.213 C 
ENDBRANCH  15  17
ENDBRANCH   1  15
TORSDOF 4
ENDMDL
MODEL 2
REMARK VINA RESULT:      -6.0      1.615      4.890
REMARK  4 active torsions:
REMARK  status: ('A' for Active; 'I' for Inactive)
REMARK    1  A    between atoms: O_1  and  C_11 
REMARK    2  A    between atoms: C_4  and  C_6 
REMARK    3  A    between atoms: C_6  and  C_10 
REMARK    4  A    between atoms: C_6  and  C_11 
ROOT
HETATM    1  C   UNK N   1      32.731  17.399   7.130  0.00  0.00     0.140 C 
ENDROOT
BRANCH   1   2
HETATM    2  C   UNK N   1      31.323  17.856   7.591  0.00  0.00     0.094 C 
HETATM    3  N   UNK N   1      31.317  18.092   9.040  0.00  0.00    -0.416 N 
HETATM    4  C   UNK N   1      30.025  18.638   9.451  0.00  0.00     0.114 C 
HETATM    5  H   UNK N   1      32.098  17.903   9.668  0.00  0.00     0.153 HD
HETATM    6  C   UNK N   1      28.922  17.616   9.199  0.00  0.00     0.019 C 
HETATM    7  C   UNK N   1      28.880  17.293   7.712  0.00  0.00     0.004 C 
HETATM    8  C   UNK N   1      30.251  16.813   7.252  0.00  0.00     0.026 C 
ENDBRANCH   1   2
BRANCH   1   9
HETATM    9  C   UNK N   1      33.010  16.881   5.729  0.00  0.00    -0.043 A 
HETATM   10  C   UNK N   1      33.682  15.658   5.550  0.00  0.00     0.008 A 
HETATM   11  C   UNK N   1      33.891  15.140   4.270  0.00  0.00     0.001 A 
HETATM   12  C   UNK N   1      33.416  15.828   3.151  0.00  0.00     0.000 A 
HETATM   13  C   UNK N   1      32.747  17.042   3.313  0.00  0.00     0.001 A 
HETATM   14  C   UNK N   1      32.547  17.566   4.595  0.00  0.00     0.008 A 
ENDBRANCH   1   9
BRANCH   1  15
HETATM   15  C   UNK N   1      33.915  17.827   7.966  0.00  0.00     0.269 C 
HETATM   16  O   UNK N   1      34.743  18.576   7.485  0.00  0.00    -0.264 OA
BRANCH  15  17
HETATM   17  O   UNK N   1      34.027  17.398   9.251  0.00  0.00    -0.326 OA
HETATM   18  C   UNK N   1      34.341  16.092   9.555  0.00  0.00     0.213 C 
ENDBRANCH  15  17
ENDBRANCH   1  15
TORSDOF 4
ENDMDL
MODEL 3
REMARK VINA RESULT:      -6.0      2.017      4.230
REMARK  4 active torsions:
REMARK  status: ('A' for Active; 'I' for Inactive)
REMARK    1  A    between atoms: O_1  and  C_11 
REMARK    2  A    between atoms: C_4  and  C_6 
REMARK    3  A    between atoms: C_6  and  C_10 
REMARK    4  A    between atoms: C_6  and  C_11 
ROOT
HETATM    1  C   UNK N   1      32.326  17.289   6.806  0.00  0.00     0.140 C 
ENDROOT
BRANCH   1   2
HETATM    2  C   UNK N   1      32.311  16.596   5.420  0.00  0.00     0.094 C 
HETATM    3  N   UNK N   1      33.539  15.814   5.232  0.00  0.00    -0.416 N 
HETATM    4  C   UNK N   1      33.467  15.066   3.978  0.00  0.00     0.114 C 
HETATM    5  H   UNK N   1      34.327  15.794   5.880  0.00  0.00     0.153 HD
HETATM    6  C   UNK N   1      33.413  16.030   2.798  0.00  0.00     0.019 C 
HETATM    7  C   UNK N   1      32.174  16.904   2.932  0.00  0.00     0.004 C 
HETATM    8  C   UNK N   1      32.191  17.615   4.279  0.00  0.00     0.026 C 
ENDBRANCH   1   2
BRANCH   1   9
HETATM    9  C   UNK N   1      31.063  17.544   7.613  0.00  0.00    -0.043 A 
HETATM   10  C   UNK N   1      31.115  18.341   8.771  0.00  0.00     0.008 A 
HETATM   11  C   UNK N   1      29.952  18.633   9.488  0.00  0.00     0.001 A 
HETATM   12  C   UNK N   1      28.719  18.147   9.047  0.00  0.00     0.000 A 
HETATM   13  C   UNK N   1      28.653  17.356   7.899  0.00  0.00     0.001 A 
HETATM   14  C   UNK N   1      29.819  17.055   7.188  0.00  0.00     0.008 A 
ENDBRANCH   1   9
BRANCH   1  15
HETATM   15  C   UNK N   1      33.649  17.375   7.533  0.00  0.00     0.269 C 
HETATM   16  O   UNK N   1      34.431  18.259   7.240  0.00  0.00    -0.264 OA
BRANCH  15  17
HETATM   17  O   UNK N   1      33.937  16.491   8.523  0.00  0.00    -0.326 OA
HETATM   18  C   UNK N   1      34.728  16.836   9.596  0.00  0.00     0.213 C 
ENDBRANCH  15  17
ENDBRANCH   1  15
TORSDOF 4
ENDMDL
MODEL 4
REMARK VINA RESULT:      -5.6     10.949     13.187
REMARK  4 active torsions:
REMARK  status: ('A' for Active; 'I' for Inactive)
REMARK    1  A    between atoms: O_1  and  C_11 
REMARK    2  A    between atoms: C_4  and  C_6 
REMARK    3  A    between atoms: C_6  and  C_10 
REMARK    4  A    between atoms: C_6  and  C_11 
ROOT
HETATM    1  C   UNK N   1      21.240  13.618   8.726  0.00  0.00     0.140 C 
ENDROOT
BRANCH   1   2
HETATM    2  C   UNK N   1      21.398  13.389   7.201  0.00  0.00     0.094 C 
HETATM    3  N   UNK N   1      20.359  14.126   6.470  0.00  0.00    -0.416 N 
HETATM    4  C   UNK N   1      20.584  14.007   5.030  0.00  0.00     0.114 C 
HETATM    5  H   UNK N   1      19.594  14.644   6.901  0.00  0.00     0.153 HD
HETATM    6  C   UNK N   1      20.436  12.553   4.597  0.00  0.00     0.019 C 
HETATM    7  C   UNK N   1      21.466  11.711   5.336  0.00  0.00     0.004 C 
HETATM    8  C   UNK N   1      21.302  11.902   6.839  0.00  0.00     0.026 C 
ENDBRANCH   1   2
BRANCH   1   9
HETATM    9  C   UNK N   1      22.228  13.075   9.746  0.00  0.00    -0.043 A 
HETATM   10  C   UNK N   1      21.763  12.506  10.946  0.00  0.00     0.008 A 
HETATM   11  C   UNK N   1      22.656  11.949  11.864  0.00  0.00     0.001 A 
HETATM   12  C   UNK N   1      24.025  11.937  11.588  0.00  0.00     0.000 A 
HETATM   13  C   UNK N   1      24.501  12.497  10.402  0.00  0.00     0.001 A 
HETATM   14  C   UNK N   1      23.607  13.064   9.487  0.00  0.00     0.008 A 
ENDBRANCH   1   9
BRANCH   1  15
HETATM   15  C   UNK N   1      20.298  14.709   9.178  0.00  0.00     0.269 C 
HETATM   16  O   UNK N   1      19.231  14.405   9.676  0.00  0.00    -0.264 OA
BRANCH  15  17
HETATM   17  O   UNK N   1      20.662  16.012   9.055  0.00  0.00    -0.326 OA
HETATM   18  C   UNK N   1      19.759  16.987   8.694  0.00  0.00     0.213 C 
ENDBRANCH  15  17
ENDBRANCH   1  15
TORSDOF 4
ENDMDL
MODEL 5
REMARK VINA RESULT:      -5.5      6.952      9.789
REMARK  4 active torsions:
REMARK  status: ('A' for Active; 'I' for Inactive)
REMARK    1  A    between atoms: O_1  and  C_11 
REMARK    2  A    between atoms: C_4  and  C_6 
REMARK    3  A    between atoms: C_6  and  C_10 
REMARK    4  A    between atoms: C_6  and  C_11 
ROOT
HETATM    1  C   UNK N   1      35.677  12.101  15.227  0.00  0.00     0.140 C 
ENDROOT
BRANCH   1   2
HETATM    2  C   UNK N   1      36.088  10.783  14.523  0.00  0.00     0.094 C 
HETATM    3  N   UNK N   1      36.888  11.077  13.327  0.00  0.00    -0.416 N 
HETATM    4  C   UNK N   1      37.375   9.832  12.735  0.00  0.00     0.114 C 
HETATM    5  H   UNK N   1      37.077  12.011  12.963  0.00  0.00     0.153 HD
HETATM    6  C   UNK N   1      36.201   8.993  12.244  0.00  0.00     0.019 C 
HETATM    7  C   UNK N   1      35.300   8.666  13.426  0.00  0.00     0.004 C 
HETATM    8  C   UNK N   1      34.864   9.956  14.111  0.00  0.00     0.026 C 
ENDBRANCH   1   2
BRANCH   1   9
HETATM    9  C   UNK N   1      35.494  12.208  16.732  0.00  0.00    -0.043 A 
HETATM   10  C   UNK N   1      35.697  11.081  17.549  0.00  0.00     0.008 A 
HETATM   11  C   UNK N   1      35.593  11.178  18.938  0.00  0.00     0.001 A 
HETATM   12  C   UNK N   1      35.300  12.408  19.532  0.00  0.00     0.000 A 
HETATM   13  C   UNK N   1      35.096  13.535  18.734  0.00  0.00     0.001 A 
HETATM   14  C   UNK N   1      35.191  13.434  17.343  0.00  0.00     0.008 A 
ENDBRANCH   1   9
BRANCH   1  15
HETATM   15  C   UNK N   1      35.826  13.388  14.449  0.00  0.00     0.269 C 
HETATM   16  O   UNK N   1      36.784  14.105  14.663  0.00  0.00    -0.264 OA
BRANCH  15  17
HETATM   17  O   UNK N   1      34.911  13.715  13.499  0.00  0.00    -0.326 OA
HETATM   18  C   UNK N   1      35.288  14.175  12.257  0.00  0.00     0.213 C 
ENDBRANCH  15  17
ENDBRANCH   1  15
TORSDOF 4
ENDMDL
MODEL 6
REMARK VINA RESULT:      -5.5      3.997      7.086
REMARK  4 active torsions:
REMARK  status: ('A' for Active; 'I' for Inactive)
REMARK    1  A    between atoms: O_1  and  C_11 
REMARK    2  A    between atoms: C_4  and  C_6 
REMARK    3  A    between atoms: C_6  and  C_10 
REMARK    4  A    between atoms: C_6  and  C_11 
ROOT
HETATM    1  C   UNK N   1      28.748  17.868   7.435  0.00  0.00     0.140 C 
ENDROOT
BRANCH   1   2
HETATM    2  C   UNK N   1      28.295  19.186   6.756  0.00  0.00     0.094 C 
HETATM    3  N   UNK N   1      27.059  19.677   7.379  0.00  0.00    -0.416 N 
HETATM    4  C   UNK N   1      26.703  20.980   6.821  0.00  0.00     0.114 C 
HETATM    5  H   UNK N   1      26.528  19.182   8.096  0.00  0.00     0.153 HD
HETATM    6  C   UNK N   1      26.385  20.842   5.336  0.00  0.00     0.019 C 
HETATM    7  C   UNK N   1      27.615  20.308   4.616  0.00  0.00     0.004 C 
HETATM    8  C   UNK N   1      28.054  18.996   5.254  0.00  0.00     0.026 C 
ENDBRANCH   1   2
BRANCH   1   9
HETATM    9  C   UNK N   1      30.194  17.399   7.440  0.00  0.00    -0.043 A 
HETATM   10  C   UNK N   1      31.089  17.886   8.410  0.00  0.00     0.008 A 
HETATM   11  C   UNK N   1      32.404  17.418   8.466  0.00  0.00     0.001 A 
HETATM   12  C   UNK N   1      32.838  16.445   7.563  0.00  0.00     0.000 A 
HETATM   13  C   UNK N   1      31.961  15.953   6.595  0.00  0.00     0.001 A 
HETATM   14  C   UNK N   1      30.647  16.429   6.534  0.00  0.00     0.008 A 
ENDBRANCH   1   9
BRANCH   1  15
HETATM   15  C   UNK N   1      27.802  17.228   8.425  0.00  0.00     0.269 C 
HETATM   16  O   UNK N   1      27.732  17.675   9.553  0.00  0.00    -0.264 OA
BRANCH  15  17
HETATM   17  O   UNK N   1      27.020  16.187   8.039  0.00  0.00    -0.326 OA
HETATM   18  C   UNK N   1      26.778  15.914   6.711  0.00  0.00     0.213 C 
ENDBRANCH  15  17
ENDBRANCH   1  15
TORSDOF 4
ENDMDL
MODEL 7
REMARK VINA RESULT:      -5.4     14.795     16.536
REMARK  4 active torsions:
REMARK  status: ('A' for Active; 'I' for Inactive)
REMARK    1  A    between atoms: O_1  and  C_11 
REMARK    2  A    between atoms: C_4  and  C_6 
REMARK    3  A    between atoms: C_6  and  C_10 
REMARK    4  A    between atoms: C_6  and  C_11 
ROOT
HETATM    1  C   UNK N   1      27.016  24.133  -5.188  0.00  0.00     0.140 C 
ENDROOT
BRANCH   1   2
HETATM    2  C   UNK N   1      28.404  23.776  -4.596  0.00  0.00     0.094 C 
HETATM    3  N   UNK N   1      28.976  22.625  -5.307  0.00  0.00    -0.416 N 
HETATM    4  C   UNK N   1      30.333  22.368  -4.829  0.00  0.00     0.114 C 
HETATM    5  H   UNK N   1      28.497  22.085  -6.028  0.00  0.00     0.153 HD
HETATM    6  C   UNK N   1      30.302  21.966  -3.359  0.00  0.00     0.019 C 
HETATM    7  C   UNK N   1      29.692  23.102  -2.550  0.00  0.00     0.004 C 
HETATM    8  C   UNK N   1      28.314  23.443  -3.102  0.00  0.00     0.026 C 
ENDBRANCH   1   2
BRANCH   1   9
HETATM    9  C   UNK N   1      26.322  25.458  -4.915  0.00  0.00    -0.043 A 
HETATM   10  C   UNK N   1      26.605  26.174  -3.738  0.00  0.00     0.008 A 
HETATM   11  C   UNK N   1      26.021  27.421  -3.504  0.00  0.00     0.001 A 
HETATM   12  C   UNK N   1      25.159  27.978  -4.451  0.00  0.00     0.000 A 
HETATM   13  C   UNK N   1      24.869  27.279  -5.624  0.00  0.00     0.001 A 
HETATM   14  C   UNK N   1      25.446  26.026  -5.853  0.00  0.00     0.008 A 
ENDBRANCH   1   9
BRANCH   1  15
HETATM   15  C   UNK N   1      26.517  23.308  -6.351  0.00  0.00     0.269 C 
HETATM   16  O   UNK N   1      27.182  23.250  -7.367  0.00  0.00    -0.264 OA
BRANCH  15  17
HETATM   17  O   UNK N   1      25.352  22.618  -6.241  0.00  0.00    -0.326 OA
HETATM   18  C   UNK N   1      24.948  21.720  -7.204  0.00  0.00     0.213 C 
ENDBRANCH  15  17
ENDBRANCH   1  15
TORSDOF 4
ENDMDL
MODEL 8
REMARK VINA RESULT:      -5.3      4.696      7.989
REMARK  4 active torsions:
REMARK  status: ('A' for Active; 'I' for Inactive)
REMARK    1  A    between atoms: O_1  and  C_11 
REMARK    2  A    between atoms: C_4  and  C_6 
REMARK    3  A    between atoms: C_6  and  C_10 
REMARK    4  A    between atoms: C_6  and  C_11 
ROOT
HETATM    1  C   UNK N   1      27.880  17.313   6.261  0.00  0.00     0.140 C 
ENDROOT
BRANCH   1   2
HETATM    2  C   UNK N   1      27.070  18.476   5.634  0.00  0.00     0.094 C 
HETATM    3  N   UNK N   1      25.739  18.004   5.228  0.00  0.00    -0.416 N 
HETATM    4  C   UNK N   1      24.936  19.128   4.750  0.00  0.00     0.114 C 
HETATM    5  H   UNK N   1      25.421  17.036   5.274  0.00  0.00     0.153 HD
HETATM    6  C   UNK N   1      25.562  19.718   3.490  0.00  0.00     0.019 C 
HETATM    7  C   UNK N   1      26.965  20.209   3.820  0.00  0.00     0.004 C 
HETATM    8  C   UNK N   1      27.782  19.066   4.411  0.00  0.00     0.026 C 
ENDBRANCH   1   2
BRANCH   1   9
HETATM    9  C   UNK N   1      29.102  17.539   7.136  0.00  0.00    -0.043 A 
HETATM   10  C   UNK N   1      30.347  17.003   6.761  0.00  0.00     0.008 A 
HETATM   11  C   UNK N   1      31.491  17.255   7.522  0.00  0.00     0.001 A 
HETATM   12  C   UNK N   1      31.409  18.060   8.660  0.00  0.00     0.000 A 
HETATM   13  C   UNK N   1      30.180  18.599   9.044  0.00  0.00     0.001 A 
HETATM   14  C   UNK N   1      29.034  18.338   8.287  0.00  0.00     0.008 A 
ENDBRANCH   1   9
BRANCH   1  15
HETATM   15  C   UNK N   1      27.226  15.951   6.312  0.00  0.00     0.269 C 
HETATM   16  O   UNK N   1      27.505  15.126   5.463  0.00  0.00    -0.264 OA
BRANCH  15  17
HETATM   17  O   UNK N   1      26.364  15.650   7.319  0.00  0.00    -0.326 OA
HETATM   18  C   UNK N   1      25.386  14.692   7.173  0.00  0.00     0.213 C 
ENDBRANCH  15  17
ENDBRANCH   1  15
TORSDOF 4
ENDMDL
MODEL 9
REMARK VINA RESULT:      -5.3     11.609     13.986
REMARK  4 active torsions:
REMARK  status: ('A' for Active; 'I' for Inactive)
REMARK    1  A    between atoms: O_1  and  C_11 
REMARK    2  A    between atoms: C_4  and  C_6 
REMARK    3  A    between atoms: C_6  and  C_10 
REMARK    4  A    between atoms: C_6  and  C_11 
ROOT
HETATM    1  C   UNK N   1      35.266  10.533  20.124  0.00  0.00     0.140 C 
ENDROOT
BRANCH   1   2
HETATM    2  C   UNK N   1      33.969  10.282  20.936  0.00  0.00     0.094 C 
HETATM    3  N   UNK N   1      34.294  10.045  22.348  0.00  0.00    -0.416 N 
HETATM    4  C   UNK N   1      33.064   9.930  23.130  0.00  0.00     0.114 C 
HETATM    5  H   UNK N   1      35.238   9.972  22.728  0.00  0.00     0.153 HD
HETATM    6  C   UNK N   1      32.273   8.706  22.682  0.00  0.00     0.019 C 
HETATM    7  C   UNK N   1      31.919   8.860  21.209  0.00  0.00     0.004 C 
HETATM    8  C   UNK N   1      33.188   9.078  20.395  0.00  0.00     0.026 C 
ENDBRANCH   1   2
BRANCH   1   9
HETATM    9  C   UNK N   1      35.341  11.529  18.979  0.00  0.00    -0.043 A 
HETATM   10  C   UNK N   1      35.475  11.073  17.655  0.00  0.00     0.008 A 
HETATM   11  C   UNK N   1      35.483  11.973  16.587  0.00  0.00     0.001 A 
HETATM   12  C   UNK N   1      35.340  13.342  16.827  0.00  0.00     0.000 A 
HETATM   13  C   UNK N   1      35.205  13.809  18.135  0.00  0.00     0.001 A 
HETATM   14  C   UNK N   1      35.208  12.907  19.204  0.00  0.00     0.008 A 
ENDBRANCH   1   9
BRANCH   1  15
HETATM   15  C   UNK N   1      36.570  10.056  20.722  0.00  0.00     0.269 C 
HETATM   16  O   UNK N   1      37.304  10.860  21.263  0.00  0.00    -0.264 OA
BRANCH  15  17
HETATM   17  O   UNK N   1      36.893   8.737  20.678  0.00  0.00    -0.326 OA
HETATM   18  C   UNK N   1      36.864   8.022  19.502  0.00  0.00     0.213 C 
ENDBRANCH  15  17
ENDBRANCH   1  15
TORSDOF 4
ENDMDL
