REMARK  8 active torsions:
REMARK  status: ('A' for Active; 'I' for Inactive)
REMARK    1  A    between atoms: O_1  and  C_8 
REMARK    2  A    between atoms: O_1  and  C_10 
REMARK    3  A    between atoms: O_2  and  C_7 
REMARK    4  A    between atoms: O_3  and  C_9 
REMARK    5  A    between atoms: O_3  and  C_16 
REMARK    6  A    between atoms: O_4  and  C_11 
REMARK       I    between atoms: N_6  and  C_16 
REMARK    7  A    between atoms: C_7  and  C_8 
REMARK    8  A    between atoms: C_7  and  C_9 
ROOT
HETATM    1  C   UNK N   1       4.476   1.213  -0.224  0.00  0.00     0.166 C 
ENDROOT
BRANCH   1   2
HETATM    2  O   UNK N   1       3.440   1.826   0.484  0.00  0.00    -0.391 OA
HETATM    3  H   UNK N   1       3.449   2.662   0.976  0.00  0.00     0.210 HD
ENDBRANCH   1   2
BRANCH   1   4
HETATM    4  C   UNK N   1       4.620  -0.232   0.205  0.00  0.00     0.209 C 
BRANCH   4   5
HETATM    5  O   UNK N   1       3.488  -0.983  -0.023  0.00  0.00    -0.346 OA
BRANCH   5   6
HETATM    6  C   UNK N   1       3.531  -2.342  -0.019  0.00  0.00     0.102 A 
HETATM    7  C   UNK N   1       2.340  -3.118  -0.060  0.00  0.00     0.101 A 
HETATM    8  C   UNK N   1       2.439  -4.516  -0.057  0.00  0.00     0.039 A 
HETATM    9  C   UNK N   1       3.681  -5.150  -0.014  0.00  0.00     0.003 A 
HETATM   10  C   UNK N   1       4.849  -4.395   0.027  0.00  0.00     0.003 A 
HETATM   11  C   UNK N   1       4.775  -3.004   0.026  0.00  0.00     0.039 A 
BRANCH   7  12
HETATM   12  O   UNK N   1       1.092  -2.580  -0.094  0.00  0.00    -0.353 OA
HETATM   13  C   UNK N   1       0.800  -1.236  -0.068  0.00  0.00     0.210 C 
ENDBRANCH   7  12
ENDBRANCH   5   6
ENDBRANCH   4   5
ENDBRANCH   1   4
BRANCH   1  14
HETATM   14  C   UNK N   1       5.805   1.856   0.127  0.00  0.00     0.214 C 
BRANCH  14  15
HETATM   15  O   UNK N   1       5.833   3.199  -0.165  0.00  0.00    -0.302 OA
BRANCH  15  16
HETATM   16  C   UNK N   1       6.985   3.909  -0.069  0.00  0.00     0.358 C 
HETATM   17  O   UNK N   1       8.042   3.356   0.195  0.00  0.00    -0.239 OA
HETATM   18  N   UNK N   1       6.964   5.240  -0.272  0.00  0.00    -0.346 N 
HETATM   19  H   UNK N   1       7.800   5.740  -0.420  0.00  0.00     0.161 HD
HETATM   20  H   UNK N   1       6.104   5.719  -0.272  0.00  0.00     0.161 HD
ENDBRANCH  15  16
ENDBRANCH  14  15
ENDBRANCH   1  14
TORSDOF 8
