MODEL 1
REMARK VINA RESULT:      -5.9      0.000      0.000
REMARK  8 active torsions:
REMARK  status: ('A' for Active; 'I' for Inactive)
REMARK    1  A    between atoms: O_1  and  C_8 
REMARK    2  A    between atoms: O_1  and  C_10 
REMARK    3  A    between atoms: O_2  and  C_7 
REMARK    4  A    between atoms: O_3  and  C_9 
REMARK    5  A    between atoms: O_3  and  C_16 
REMARK    6  A    between atoms: O_4  and  C_11 
REMARK       I    between atoms: N_6  and  C_16 
REMARK    7  A    between atoms: C_7  and  C_8 
REMARK    8  A    between atoms: C_7  and  C_9 
ROOT
HETATM    1  C   UNK N   1      35.630  16.213  10.965  0.00  0.00     0.166 C 
ENDROOT
BRANCH   1   2
HETATM    2  O   UNK N   1      37.015  16.043  10.894  0.00  0.00    -0.391 OA
HETATM    3  H   UNK N   1      37.650  15.909  11.615  0.00  0.00     0.210 HD
ENDBRANCH   1   2
BRANCH   1   4
HETATM    4  C   UNK N   1      34.982  14.981  11.562  0.00  0.00     0.209 C 
BRANCH   4   5
HETATM    5  O   UNK N   1      35.884  14.121  12.148  0.00  0.00    -0.346 OA
BRANCH   5   6
HETATM    6  C   UNK N   1      35.588  13.471  13.305  0.00  0.00     0.102 A 
HETATM    7  C   UNK N   1      36.091  13.925  14.555  0.00  0.00     0.101 A 
HETATM    8  C   UNK N   1      35.754  13.221  15.719  0.00  0.00     0.039 A 
HETATM    9  C   UNK N   1      34.940  12.089  15.667  0.00  0.00     0.003 A 
HETATM   10  C   UNK N   1      34.447  11.641  14.445  0.00  0.00     0.003 A 
HETATM   11  C   UNK N   1      34.769  12.324  13.275  0.00  0.00     0.039 A 
BRANCH   7  12
HETATM   12  O   UNK N   1      36.897  15.011  14.693  0.00  0.00    -0.353 OA
HETATM   13  C   UNK N   1      37.377  15.504  15.884  0.00  0.00     0.210 C 
ENDBRANCH   7  12
ENDBRANCH   5   6
ENDBRANCH   4   5
ENDBRANCH   1   4
BRANCH   1  14
HETATM   14  C   UNK N   1      35.042  16.324   9.571  0.00  0.00     0.214 C 
BRANCH  14  15
HETATM   15  O   UNK N   1      34.325  17.483   9.393  0.00  0.00    -0.302 OA
BRANCH  15  16
HETATM   16  C   UNK N   1      34.567  18.297   8.335  0.00  0.00     0.358 C 
HETATM   17  O   UNK N   1      35.309  19.262   8.443  0.00  0.00    -0.239 OA
HETATM   18  N   UNK N   1      33.985  18.035   7.149  0.00  0.00    -0.346 N 
HETATM   19  H   UNK N   1      34.303  18.471   6.325  0.00  0.00     0.161 HD
HETATM   20  H   UNK N   1      33.232  17.402   7.106  0.00  0.00     0.161 HD
ENDBRANCH  15  16
ENDBRANCH  14  15
ENDBRANCH   1  14
TORSDOF 8
ENDMDL
MODEL 2
REMARK VINA RESULT:      -5.7      2.205      3.737
REMARK  8 active torsions:
REMARK  status: ('A' for Active; 'I' for Inactive)
REMARK    1  A    between atoms: O_1  and  C_8 
REMARK    2  A    between atoms: O_1  and  C_10 
REMARK    3  A    between atoms: O_2  and  C_7 
REMARK    4  A    between atoms: O_3  and  C_9 
REMARK    5  A    between atoms: O_3  and  C_16 
REMARK    6  A    between atoms: O_4  and  C_11 
REMARK       I    between atoms: N_6  and  C_16 
REMARK    7  A    between atoms: C_7  and  C_8 
REMARK    8  A    between atoms: C_7  and  C_9 
ROOT
HETATM    1  C   UNK N   1      35.827  13.901  12.883  0.00  0.00     0.166 C 
ENDROOT
BRANCH   1   2
HETATM    2  O   UNK N   1      34.483  13.608  12.641  0.00  0.00    -0.391 OA
HETATM    3  H   UNK N   1      33.816  14.142  12.183  0.00  0.00     0.210 HD
ENDBRANCH   1   2
BRANCH   1   4
HETATM    4  C   UNK N   1      36.128  13.794  14.364  0.00  0.00     0.209 C 
BRANCH   4   5
HETATM    5  O   UNK N   1      35.009  13.553  15.130  0.00  0.00    -0.346 OA
BRANCH   5   6
HETATM    6  C   UNK N   1      35.086  12.835  16.282  0.00  0.00     0.102 A 
HETATM    7  C   UNK N   1      35.080  11.413  16.267  0.00  0.00     0.101 A 
HETATM    8  C   UNK N   1      35.165  10.719  17.483  0.00  0.00     0.039 A 
HETATM    9  C   UNK N   1      35.252  11.402  18.696  0.00  0.00     0.003 A 
HETATM   10  C   UNK N   1      35.257  12.793  18.716  0.00  0.00     0.003 A 
HETATM   11  C   UNK N   1      35.173  13.503  17.521  0.00  0.00     0.039 A 
BRANCH   7  12
HETATM   12  O   UNK N   1      34.989  10.672  15.131  0.00  0.00    -0.353 OA
HETATM   13  C   UNK N   1      33.863  10.540  14.352  0.00  0.00     0.210 C 
ENDBRANCH   7  12
ENDBRANCH   5   6
ENDBRANCH   4   5
ENDBRANCH   1   4
BRANCH   1  14
HETATM   14  C   UNK N   1      36.121  15.348  12.531  0.00  0.00     0.214 C 
BRANCH  14  15
HETATM   15  O   UNK N   1      36.139  15.565  11.174  0.00  0.00    -0.302 OA
BRANCH  15  16
HETATM   16  C   UNK N   1      35.238  16.394  10.589  0.00  0.00     0.358 C 
HETATM   17  O   UNK N   1      35.562  17.512  10.220  0.00  0.00    -0.239 OA
HETATM   18  N   UNK N   1      33.971  15.975  10.409  0.00  0.00    -0.346 N 
HETATM   19  H   UNK N   1      33.362  16.460   9.805  0.00  0.00     0.161 HD
HETATM   20  H   UNK N   1      33.649  15.177  10.886  0.00  0.00     0.161 HD
ENDBRANCH  15  16
ENDBRANCH  14  15
ENDBRANCH   1  14
TORSDOF 8
ENDMDL
MODEL 3
REMARK VINA RESULT:      -5.7      1.989      2.873
REMARK  8 active torsions:
REMARK  status: ('A' for Active; 'I' for Inactive)
REMARK    1  A    between atoms: O_1  and  C_8 
REMARK    2  A    between atoms: O_1  and  C_10 
REMARK    3  A    between atoms: O_2  and  C_7 
REMARK    4  A    between atoms: O_3  and  C_9 
REMARK    5  A    between atoms: O_3  and  C_16 
REMARK    6  A    between atoms: O_4  and  C_11 
REMARK       I    between atoms: N_6  and  C_16 
REMARK    7  A    between atoms: C_7  and  C_8 
REMARK    8  A    between atoms: C_7  and  C_9 
ROOT
HETATM    1  C   UNK N   1      35.552  13.408  12.127  0.00  0.00     0.166 C 
ENDROOT
BRANCH   1   2
HETATM    2  O   UNK N   1      34.193  13.480  11.815  0.00  0.00    -0.391 OA
HETATM    3  H   UNK N   1      33.569  12.760  11.633  0.00  0.00     0.210 HD
ENDBRANCH   1   2
BRANCH   1   4
HETATM    4  C   UNK N   1      35.772  13.739  13.588  0.00  0.00     0.209 C 
BRANCH   4   5
HETATM    5  O   UNK N   1      34.707  13.394  14.391  0.00  0.00    -0.346 OA
BRANCH   5   6
HETATM    6  C   UNK N   1      34.797  12.371  15.281  0.00  0.00     0.102 A 
HETATM    7  C   UNK N   1      35.267  12.585  16.606  0.00  0.00     0.101 A 
HETATM    8  C   UNK N   1      35.338  11.496  17.486  0.00  0.00     0.039 A 
HETATM    9  C   UNK N   1      34.958  10.216  17.081  0.00  0.00     0.003 A 
HETATM   10  C   UNK N   1      34.499  10.002  15.786  0.00  0.00     0.003 A 
HETATM   11  C   UNK N   1      34.420  11.069  14.893  0.00  0.00     0.039 A 
BRANCH   7  12
HETATM   12  O   UNK N   1      35.665  13.796  17.077  0.00  0.00    -0.353 OA
HETATM   13  C   UNK N   1      35.287  14.351  18.278  0.00  0.00     0.210 C 
ENDBRANCH   7  12
ENDBRANCH   5   6
ENDBRANCH   4   5
ENDBRANCH   1   4
BRANCH   1  14
HETATM   14  C   UNK N   1      36.324  14.471  11.368  0.00  0.00     0.214 C 
BRANCH  14  15
HETATM   15  O   UNK N   1      35.931  15.745  11.703  0.00  0.00    -0.302 OA
BRANCH  15  16
HETATM   16  C   UNK N   1      35.312  16.544  10.798  0.00  0.00     0.358 C 
HETATM   17  O   UNK N   1      35.849  17.563  10.390  0.00  0.00    -0.239 OA
HETATM   18  N   UNK N   1      34.092  16.207  10.339  0.00  0.00    -0.346 N 
HETATM   19  H   UNK N   1      33.717  16.641   9.538  0.00  0.00     0.161 HD
HETATM   20  H   UNK N   1      33.568  15.519  10.809  0.00  0.00     0.161 HD
ENDBRANCH  15  16
ENDBRANCH  14  15
ENDBRANCH   1  14
TORSDOF 8
ENDMDL
MODEL 4
REMARK VINA RESULT:      -5.6      1.448      1.970
REMARK  8 active torsions:
REMARK  status: ('A' for Active; 'I' for Inactive)
REMARK    1  A    between atoms: O_1  and  C_8 
REMARK    2  A    between atoms: O_1  and  C_10 
REMARK    3  A    between atoms: O_2  and  C_7 
REMARK    4  A    between atoms: O_3  and  C_9 
REMARK    5  A    between atoms: O_3  and  C_16 
REMARK    6  A    between atoms: O_4  and  C_11 
REMARK       I    between atoms: N_6  and  C_16 
REMARK    7  A    between atoms: C_7  and  C_8 
REMARK    8  A    between atoms: C_7  and  C_9 
ROOT
HETATM    1  C   UNK N   1      35.669  16.278  10.951  0.00  0.00     0.166 C 
ENDROOT
BRANCH   1   2
HETATM    2  O   UNK N   1      37.052  16.123  10.834  0.00  0.00    -0.391 OA
HETATM    3  H   UNK N   1      37.678  16.624  10.287  0.00  0.00     0.210 HD
ENDBRANCH   1   2
BRANCH   1   4
HETATM    4  C   UNK N   1      35.063  15.069  11.631  0.00  0.00     0.209 C 
BRANCH   4   5
HETATM    5  O   UNK N   1      35.745  14.682  12.764  0.00  0.00    -0.346 OA
BRANCH   5   6
HETATM    6  C   UNK N   1      36.127  13.390  12.950  0.00  0.00     0.102 A 
HETATM    7  C   UNK N   1      35.534  12.584  13.960  0.00  0.00     0.101 A 
HETATM    8  C   UNK N   1      35.961  11.257  14.108  0.00  0.00     0.039 A 
HETATM    9  C   UNK N   1      36.953  10.723  13.285  0.00  0.00     0.003 A 
HETATM   10  C   UNK N   1      37.537  11.509  12.296  0.00  0.00     0.003 A 
HETATM   11  C   UNK N   1      37.129  12.830  12.130  0.00  0.00     0.039 A 
BRANCH   7  12
HETATM   12  O   UNK N   1      34.570  13.029  14.808  0.00  0.00    -0.353 OA
HETATM   13  C   UNK N   1      34.658  13.042  16.181  0.00  0.00     0.210 C 
ENDBRANCH   7  12
ENDBRANCH   5   6
ENDBRANCH   4   5
ENDBRANCH   1   4
BRANCH   1  14
HETATM   14  C   UNK N   1      35.026  16.313   9.577  0.00  0.00     0.214 C 
BRANCH  14  15
HETATM   15  O   UNK N   1      34.279  17.448   9.374  0.00  0.00    -0.302 OA
BRANCH  15  16
HETATM   16  C   UNK N   1      34.531  18.270   8.325  0.00  0.00     0.358 C 
HETATM   17  O   UNK N   1      35.293  19.219   8.440  0.00  0.00    -0.239 OA
HETATM   18  N   UNK N   1      33.937  18.036   7.139  0.00  0.00    -0.346 N 
HETATM   19  H   UNK N   1      34.260  18.475   6.319  0.00  0.00     0.161 HD
HETATM   20  H   UNK N   1      33.172  17.418   7.092  0.00  0.00     0.161 HD
ENDBRANCH  15  16
ENDBRANCH  14  15
ENDBRANCH   1  14
TORSDOF 8
ENDMDL
MODEL 5
REMARK VINA RESULT:      -5.6      6.252      8.622
REMARK  8 active torsions:
REMARK  status: ('A' for Active; 'I' for Inactive)
REMARK    1  A    between atoms: O_1  and  C_8 
REMARK    2  A    between atoms: O_1  and  C_10 
REMARK    3  A    between atoms: O_2  and  C_7 
REMARK    4  A    between atoms: O_3  and  C_9 
REMARK    5  A    between atoms: O_3  and  C_16 
REMARK    6  A    between atoms: O_4  and  C_11 
REMARK       I    between atoms: N_6  and  C_16 
REMARK    7  A    between atoms: C_7  and  C_8 
REMARK    8  A    between atoms: C_7  and  C_9 
ROOT
HETATM    1  C   UNK N   1      33.309  16.650   5.447  0.00  0.00     0.166 C 
ENDROOT
BRANCH   1   2
HETATM    2  O   UNK N   1      33.189  17.926   4.893  0.00  0.00    -0.391 OA
HETATM    3  H   UNK N   1      33.170  18.786   5.341  0.00  0.00     0.210 HD
ENDBRANCH   1   2
BRANCH   1   4
HETATM    4  C   UNK N   1      31.970  16.181   5.976  0.00  0.00     0.209 C 
BRANCH   4   5
HETATM    5  O   UNK N   1      30.962  17.104   5.801  0.00  0.00    -0.346 OA
BRANCH   5   6
HETATM    6  C   UNK N   1      30.220  17.544   6.852  0.00  0.00     0.102 A 
HETATM    7  C   UNK N   1      28.889  18.012   6.671  0.00  0.00     0.101 A 
HETATM    8  C   UNK N   1      28.165  18.451   7.787  0.00  0.00     0.039 A 
HETATM    9  C   UNK N   1      28.729  18.437   9.063  0.00  0.00     0.003 A 
HETATM   10  C   UNK N   1      30.031  17.982   9.245  0.00  0.00     0.003 A 
HETATM   11  C   UNK N   1      30.770  17.541   8.150  0.00  0.00     0.039 A 
BRANCH   7  12
HETATM   12  O   UNK N   1      28.269  18.067   5.462  0.00  0.00    -0.353 OA
HETATM   13  C   UNK N   1      28.073  19.205   4.715  0.00  0.00     0.210 C 
ENDBRANCH   7  12
ENDBRANCH   5   6
ENDBRANCH   4   5
ENDBRANCH   1   4
BRANCH   1  14
HETATM   14  C   UNK N   1      34.215  16.688   6.664  0.00  0.00     0.214 C 
BRANCH  14  15
HETATM   15  O   UNK N   1      34.572  17.969   7.014  0.00  0.00    -0.302 OA
BRANCH  15  16
HETATM   16  C   UNK N   1      34.726  18.317   8.316  0.00  0.00     0.358 C 
HETATM   17  O   UNK N   1      35.355  19.318   8.627  0.00  0.00    -0.239 OA
HETATM   18  N   UNK N   1      34.175  17.554   9.278  0.00  0.00    -0.346 N 
HETATM   19  H   UNK N   1      34.087  17.891  10.200  0.00  0.00     0.161 HD
HETATM   20  H   UNK N   1      33.857  16.648   9.059  0.00  0.00     0.161 HD
ENDBRANCH  15  16
ENDBRANCH  14  15
ENDBRANCH   1  14
TORSDOF 8
ENDMDL
MODEL 6
REMARK VINA RESULT:      -5.5      7.152      9.159
REMARK  8 active torsions:
REMARK  status: ('A' for Active; 'I' for Inactive)
REMARK    1  A    between atoms: O_1  and  C_8 
REMARK    2  A    between atoms: O_1  and  C_10 
REMARK    3  A    between atoms: O_2  and  C_7 
REMARK    4  A    between atoms: O_3  and  C_9 
REMARK    5  A    between atoms: O_3  and  C_16 
REMARK    6  A    between atoms: O_4  and  C_11 
REMARK       I    between atoms: N_6  and  C_16 
REMARK    7  A    between atoms: C_7  and  C_8 
REMARK    8  A    between atoms: C_7  and  C_9 
ROOT
HETATM    1  C   UNK N   1      28.292  17.887   8.409  0.00  0.00     0.166 C 
ENDROOT
BRANCH   1   2
HETATM    2  O   UNK N   1      27.346  18.307   9.347  0.00  0.00    -0.391 OA
HETATM    3  H   UNK N   1      27.166  17.952  10.231  0.00  0.00     0.210 HD
ENDBRANCH   1   2
BRANCH   1   4
HETATM    4  C   UNK N   1      29.673  18.366   8.807  0.00  0.00     0.209 C 
BRANCH   4   5
HETATM    5  O   UNK N   1      30.615  17.361   8.821  0.00  0.00    -0.346 OA
BRANCH   5   6
HETATM    6  C   UNK N   1      31.645  17.348   7.933  0.00  0.00     0.102 A 
HETATM    7  C   UNK N   1      31.529  16.688   6.679  0.00  0.00     0.101 A 
HETATM    8  C   UNK N   1      32.619  16.707   5.798  0.00  0.00     0.039 A 
HETATM    9  C   UNK N   1      33.806  17.359   6.135  0.00  0.00     0.003 A 
HETATM   10  C   UNK N   1      33.924  18.005   7.361  0.00  0.00     0.003 A 
HETATM   11  C   UNK N   1      32.854  17.999   8.253  0.00  0.00     0.039 A 
BRANCH   7  12
HETATM   12  O   UNK N   1      30.414  16.023   6.278  0.00  0.00    -0.353 OA
HETATM   13  C   UNK N   1      29.948  15.948   4.986  0.00  0.00     0.210 C 
ENDBRANCH   7  12
ENDBRANCH   5   6
ENDBRANCH   4   5
ENDBRANCH   1   4
BRANCH   1  14
HETATM   14  C   UNK N   1      28.027  18.541   7.066  0.00  0.00     0.214 C 
BRANCH  14  15
HETATM   15  O   UNK N   1      28.022  19.913   7.140  0.00  0.00    -0.302 OA
BRANCH  15  16
HETATM   16  C   UNK N   1      26.889  20.620   6.905  0.00  0.00     0.358 C 
HETATM   17  O   UNK N   1      26.621  21.019   5.781  0.00  0.00    -0.239 OA
HETATM   18  N   UNK N   1      26.044  20.881   7.921  0.00  0.00    -0.346 N 
HETATM   19  H   UNK N   1      25.128  21.197   7.746  0.00  0.00     0.161 HD
HETATM   20  H   UNK N   1      26.347  20.755   8.849  0.00  0.00     0.161 HD
ENDBRANCH  15  16
ENDBRANCH  14  15
ENDBRANCH   1  14
TORSDOF 8
ENDMDL
MODEL 7
REMARK VINA RESULT:      -5.5      1.853      3.071
REMARK  8 active torsions:
REMARK  status: ('A' for Active; 'I' for Inactive)
REMARK    1  A    between atoms: O_1  and  C_8 
REMARK    2  A    between atoms: O_1  and  C_10 
REMARK    3  A    between atoms: O_2  and  C_7 
REMARK    4  A    between atoms: O_3  and  C_9 
REMARK    5  A    between atoms: O_3  and  C_16 
REMARK    6  A    between atoms: O_4  and  C_11 
REMARK       I    between atoms: N_6  and  C_16 
REMARK    7  A    between atoms: C_7  and  C_8 
REMARK    8  A    between atoms: C_7  and  C_9 
ROOT
HETATM    1  C   UNK N   1      34.821  14.656  11.259  0.00  0.00     0.166 C 
ENDROOT
BRANCH   1   2
HETATM    2  O   UNK N   1      33.434  14.821  11.281  0.00  0.00    -0.391 OA
HETATM    3  H   UNK N   1      32.858  15.224  10.613  0.00  0.00     0.210 HD
ENDBRANCH   1   2
BRANCH   1   4
HETATM    4  C   UNK N   1      35.300  14.077  12.574  0.00  0.00     0.209 C 
BRANCH   4   5
HETATM    5  O   UNK N   1      34.530  13.024  13.017  0.00  0.00    -0.346 OA
BRANCH   5   6
HETATM    6  C   UNK N   1      34.747  12.455  14.233  0.00  0.00     0.102 A 
HETATM    7  C   UNK N   1      34.398  11.100  14.487  0.00  0.00     0.101 A 
HETATM    8  C   UNK N   1      34.645  10.560  15.756  0.00  0.00     0.039 A 
HETATM    9  C   UNK N   1      35.224  11.330  16.766  0.00  0.00     0.003 A 
HETATM   10  C   UNK N   1      35.567  12.656  16.523  0.00  0.00     0.003 A 
HETATM   11  C   UNK N   1      35.329  13.214  15.269  0.00  0.00     0.039 A 
BRANCH   7  12
HETATM   12  O   UNK N   1      33.822  10.286  13.563  0.00  0.00    -0.353 OA
HETATM   13  C   UNK N   1      34.496   9.547  12.618  0.00  0.00     0.210 C 
ENDBRANCH   7  12
ENDBRANCH   5   6
ENDBRANCH   4   5
ENDBRANCH   1   4
BRANCH   1  14
HETATM   14  C   UNK N   1      35.510  16.004  11.156  0.00  0.00     0.214 C 
BRANCH  14  15
HETATM   15  O   UNK N   1      35.636  16.432   9.856  0.00  0.00    -0.302 OA
BRANCH  15  16
HETATM   16  C   UNK N   1      34.804  17.376   9.349  0.00  0.00     0.358 C 
HETATM   17  O   UNK N   1      35.230  18.469   9.008  0.00  0.00    -0.239 OA
HETATM   18  N   UNK N   1      33.493  17.103   9.214  0.00  0.00    -0.346 N 
HETATM   19  H   UNK N   1      32.913  17.676   8.660  0.00  0.00     0.161 HD
HETATM   20  H   UNK N   1      33.108  16.322   9.674  0.00  0.00     0.161 HD
ENDBRANCH  15  16
ENDBRANCH  14  15
ENDBRANCH   1  14
TORSDOF 8
ENDMDL
MODEL 8
REMARK VINA RESULT:      -5.4      3.961      7.752
REMARK  8 active torsions:
REMARK  status: ('A' for Active; 'I' for Inactive)
REMARK    1  A    between atoms: O_1  and  C_8 
REMARK    2  A    between atoms: O_1  and  C_10 
REMARK    3  A    between atoms: O_2  and  C_7 
REMARK    4  A    between atoms: O_3  and  C_9 
REMARK    5  A    between atoms: O_3  and  C_16 
REMARK    6  A    between atoms: O_4  and  C_11 
REMARK       I    between atoms: N_6  and  C_16 
REMARK    7  A    between atoms: C_7  and  C_8 
REMARK    8  A    between atoms: C_7  and  C_9 
ROOT
HETATM    1  C   UNK N   1      34.646  17.971   8.283  0.00  0.00     0.166 C 
ENDROOT
BRANCH   1   2
HETATM    2  O   UNK N   1      35.334  19.127   8.658  0.00  0.00    -0.391 OA
HETATM    3  H   UNK N   1      35.644  19.859   8.103  0.00  0.00     0.210 HD
ENDBRANCH   1   2
BRANCH   1   4
HETATM    4  C   UNK N   1      33.214  18.308   7.924  0.00  0.00     0.209 C 
BRANCH   4   5
HETATM    5  O   UNK N   1      32.288  17.560   8.617  0.00  0.00    -0.346 OA
BRANCH   5   6
HETATM    6  C   UNK N   1      30.957  17.673   8.363  0.00  0.00     0.102 A 
HETATM    7  C   UNK N   1      30.366  17.048   7.231  0.00  0.00     0.101 A 
HETATM    8  C   UNK N   1      28.989  17.193   7.016  0.00  0.00     0.039 A 
HETATM    9  C   UNK N   1      28.198  17.937   7.891  0.00  0.00     0.003 A 
HETATM   10  C   UNK N   1      28.772  18.552   9.000  0.00  0.00     0.003 A 
HETATM   11  C   UNK N   1      30.139  18.422   9.233  0.00  0.00     0.039 A 
BRANCH   7  12
HETATM   12  O   UNK N   1      31.066  16.314   6.326  0.00  0.00    -0.353 OA
HETATM   13  C   UNK N   1      31.335  14.968   6.424  0.00  0.00     0.210 C 
ENDBRANCH   7  12
ENDBRANCH   5   6
ENDBRANCH   4   5
ENDBRANCH   1   4
BRANCH   1  14
HETATM   14  C   UNK N   1      34.537  17.019   9.460  0.00  0.00     0.214 C 
BRANCH  14  15
HETATM   15  O   UNK N   1      35.692  16.966  10.203  0.00  0.00    -0.302 OA
BRANCH  15  16
HETATM   16  C   UNK N   1      36.207  15.778  10.608  0.00  0.00     0.358 C 
HETATM   17  O   UNK N   1      36.493  14.910   9.797  0.00  0.00    -0.239 OA
HETATM   18  N   UNK N   1      36.410  15.555  11.920  0.00  0.00    -0.346 N 
HETATM   19  H   UNK N   1      36.971  14.803  12.222  0.00  0.00     0.161 HD
HETATM   20  H   UNK N   1      35.992  16.148  12.585  0.00  0.00     0.161 HD
ENDBRANCH  15  16
ENDBRANCH  14  15
ENDBRANCH   1  14
TORSDOF 8
ENDMDL
MODEL 9
REMARK VINA RESULT:      -5.4      5.622      8.714
REMARK  8 active torsions:
REMARK  status: ('A' for Active; 'I' for Inactive)
REMARK    1  A    between atoms: O_1  and  C_8 
REMARK    2  A    between atoms: O_1  and  C_10 
REMARK    3  A    between atoms: O_2  and  C_7 
REMARK    4  A    between atoms: O_3  and  C_9 
REMARK    5  A    between atoms: O_3  and  C_16 
REMARK    6  A    between atoms: O_4  and  C_11 
REMARK       I    between atoms: N_6  and  C_16 
REMARK    7  A    between atoms: C_7  and  C_8 
REMARK    8  A    between atoms: C_7  and  C_9 
ROOT
HETATM    1  C   UNK N   1      28.273  18.047   8.265  0.00  0.00     0.166 C 
ENDROOT
BRANCH   1   2
HETATM    2  O   UNK N   1      27.468  18.116   9.404  0.00  0.00    -0.391 OA
HETATM    3  H   UNK N   1      27.705  18.394  10.303  0.00  0.00     0.210 HD
ENDBRANCH   1   2
BRANCH   1   4
HETATM    4  C   UNK N   1      29.736  18.048   8.657  0.00  0.00     0.209 C 
BRANCH   4   5
HETATM    5  O   UNK N   1      30.439  16.982   8.140  0.00  0.00    -0.346 OA
BRANCH   5   6
HETATM    6  C   UNK N   1      31.374  17.159   7.170  0.00  0.00     0.102 A 
HETATM    7  C   UNK N   1      32.740  17.386   7.495  0.00  0.00     0.101 A 
HETATM    8  C   UNK N   1      33.666  17.560   6.457  0.00  0.00     0.039 A 
HETATM    9  C   UNK N   1      33.267  17.514   5.121  0.00  0.00     0.003 A 
HETATM   10  C   UNK N   1      31.932  17.293   4.798  0.00  0.00     0.003 A 
HETATM   11  C   UNK N   1      30.994  17.118   5.813  0.00  0.00     0.039 A 
BRANCH   7  12
HETATM   12  O   UNK N   1      33.210  17.455   8.768  0.00  0.00    -0.353 OA
HETATM   13  C   UNK N   1      34.478  17.109   9.173  0.00  0.00     0.210 C 
ENDBRANCH   7  12
ENDBRANCH   5   6
ENDBRANCH   4   5
ENDBRANCH   1   4
BRANCH   1  14
HETATM   14  C   UNK N   1      28.097  19.294   7.420  0.00  0.00     0.214 C 
BRANCH  14  15
HETATM   15  O   UNK N   1      27.907  19.006   6.089  0.00  0.00    -0.302 OA
BRANCH  15  16
HETATM   16  C   UNK N   1      27.749  19.997   5.177  0.00  0.00     0.358 C 
HETATM   17  O   UNK N   1      27.391  21.114   5.520  0.00  0.00    -0.239 OA
HETATM   18  N   UNK N   1      27.994  19.749   3.876  0.00  0.00    -0.346 N 
HETATM   19  H   UNK N   1      28.096  20.488   3.233  0.00  0.00     0.161 HD
HETATM   20  H   UNK N   1      28.072  18.818   3.565  0.00  0.00     0.161 HD
ENDBRANCH  15  16
ENDBRANCH  14  15
ENDBRANCH   1  14
TORSDOF 8
ENDMDL
