MODEL 1
REMARK VINA RESULT:      -7.2      0.000      0.000
REMARK  3 active torsions:
REMARK  status: ('A' for Active; 'I' for Inactive)
REMARK       I    between atoms: N_5  and  C_14 
REMARK    1  A    between atoms: C_6  and  C_9 
REMARK    2  A    between atoms: C_7  and  C_10 
REMARK    3  A    between atoms: C_9  and  C_14 
ROOT
HETATM    1  N   UNK N   1      36.863  13.744  10.263  0.00  0.00    -0.309 N 
HETATM    2  N   UNK N   1      37.784  12.746  12.045  0.00  0.00    -0.340 N 
ATOM      3  HN  UNK N   1      38.415  12.191  12.622  1.00  0.00     0.167 HD
HETATM    4  C   UNK N   1      36.119  14.070  11.336  0.00  0.00     0.054 A 
HETATM    5  C   UNK N   1      36.692  13.443  12.446  0.00  0.00     0.068 A 
HETATM    6  C   UNK N   1      37.850  12.951  10.715  0.00  0.00     0.112 A 
HETATM    7  C   UNK N   1      36.733  14.085   8.956  0.00  0.00     0.105 A 
HETATM    8  C   UNK N   1      37.661  13.573   8.037  0.00  0.00    -0.046 A 
HETATM    9  C   UNK N   1      38.807  12.420   9.854  0.00  0.00     0.050 A 
HETATM   10  C   UNK N   1      38.700  12.739   8.491  0.00  0.00     0.012 A 
HETATM   11  C   UNK N   1      37.537  13.896   6.593  0.00  0.00     0.049 C 
ENDROOT
BRANCH   5  12
HETATM   12  C   UNK N   1      36.231  13.469  13.852  0.00  0.00    -0.007 A 
HETATM   13  C   UNK N   1      36.909  14.264  14.789  0.00  0.00     0.014 A 
HETATM   14  C   UNK N   1      36.513  14.268  16.130  0.00  0.00     0.007 A 
HETATM   15  C   UNK N   1      35.445  13.469  16.546  0.00  0.00    -0.062 A 
HETATM   16  C   UNK N   1      34.766  12.675  15.620  0.00  0.00     0.007 A 
HETATM   17  C   UNK N   1      35.037  13.458  17.975  0.00  0.00     0.048 C 
HETATM   18  C   UNK N   1      35.156  12.679  14.277  0.00  0.00     0.014 A 
ENDBRANCH   5  12
BRANCH   4  19
HETATM   19  C   UNK N   1      34.920  14.983  11.328  0.00  0.00     0.163 C 
BRANCH  19  20
HETATM   20  C   UNK N   1      35.081  16.229  10.495  0.00  0.00     0.224 C 
HETATM   21  O   UNK N   1      35.940  17.042  10.801  0.00  0.00    -0.273 OA
HETATM   22  N   UNK N   1      34.255  16.480   9.438  0.00  0.00    -0.361 N 
HETATM   23  C   UNK N   1      34.394  17.694   8.673  0.00  0.00     0.152 C 
HETATM   24  C   UNK N   1      33.216  15.554   9.067  0.00  0.00     0.152 C 
ENDBRANCH  19  20
ENDBRANCH   4  19
TORSDOF 3
ENDMDL
MODEL 2
REMARK VINA RESULT:      -7.2     18.141     22.826
REMARK  3 active torsions:
REMARK  status: ('A' for Active; 'I' for Inactive)
REMARK       I    between atoms: N_5  and  C_14 
REMARK    1  A    between atoms: C_6  and  C_9 
REMARK    2  A    between atoms: C_7  and  C_10 
REMARK    3  A    between atoms: C_9  and  C_14 
ROOT
HETATM    1  N   UNK N   1      27.115  23.772  -6.775  0.00  0.00    -0.309 N 
HETATM    2  N   UNK N   1      25.559  25.373  -6.962  0.00  0.00    -0.340 N 
ATOM      3  HN  UNK N   1      24.720  25.874  -7.251  1.00  0.00     0.167 HD
HETATM    4  C   UNK N   1      27.490  24.793  -5.983  0.00  0.00     0.054 A 
HETATM    5  C   UNK N   1      26.522  25.792  -6.104  0.00  0.00     0.068 A 
HETATM    6  C   UNK N   1      25.959  24.146  -7.350  0.00  0.00     0.112 A 
HETATM    7  C   UNK N   1      27.706  22.575  -7.020  0.00  0.00     0.105 A 
HETATM    8  C   UNK N   1      27.088  21.699  -7.925  0.00  0.00    -0.046 A 
HETATM    9  C   UNK N   1      25.293  23.316  -8.248  0.00  0.00     0.050 A 
HETATM   10  C   UNK N   1      25.878  22.074  -8.538  0.00  0.00     0.012 A 
HETATM   11  C   UNK N   1      27.716  20.391  -8.245  0.00  0.00     0.049 C 
ENDROOT
BRANCH   5  12
HETATM   12  C   UNK N   1      26.490  27.122  -5.455  0.00  0.00    -0.007 A 
HETATM   13  C   UNK N   1      27.217  28.184  -6.014  0.00  0.00     0.014 A 
HETATM   14  C   UNK N   1      27.231  29.436  -5.390  0.00  0.00     0.007 A 
HETATM   15  C   UNK N   1      26.530  29.631  -4.198  0.00  0.00    -0.062 A 
HETATM   16  C   UNK N   1      25.804  28.579  -3.636  0.00  0.00     0.007 A 
HETATM   17  C   UNK N   1      26.562  30.955  -3.525  0.00  0.00     0.048 C 
HETATM   18  C   UNK N   1      25.782  27.330  -4.264  0.00  0.00     0.014 A 
ENDBRANCH   5  12
BRANCH   4  19
HETATM   19  C   UNK N   1      28.711  24.815  -5.099  0.00  0.00     0.163 C 
BRANCH  19  20
HETATM   20  C   UNK N   1      28.545  24.113  -3.775  0.00  0.00     0.224 C 
HETATM   21  O   UNK N   1      27.434  24.057  -3.268  0.00  0.00    -0.273 OA
HETATM   22  N   UNK N   1      29.617  23.585  -3.119  0.00  0.00    -0.361 N 
HETATM   23  C   UNK N   1      29.450  22.951  -1.834  0.00  0.00     0.152 C 
HETATM   24  C   UNK N   1      30.943  23.658  -3.678  0.00  0.00     0.152 C 
ENDBRANCH  19  20
ENDBRANCH   4  19
TORSDOF 3
ENDMDL
MODEL 3
REMARK VINA RESULT:      -7.0     11.568     14.094
REMARK  3 active torsions:
REMARK  status: ('A' for Active; 'I' for Inactive)
REMARK       I    between atoms: N_5  and  C_14 
REMARK    1  A    between atoms: C_6  and  C_9 
REMARK    2  A    between atoms: C_7  and  C_10 
REMARK    3  A    between atoms: C_9  and  C_14 
ROOT
HETATM    1  N   UNK N   1      22.882  13.078   9.248  0.00  0.00    -0.309 N 
HETATM    2  N   UNK N   1      25.122  13.069   9.208  0.00  0.00    -0.340 N 
ATOM      3  HN  UNK N   1      26.092  12.926   9.487  1.00  0.00     0.167 HD
HETATM    4  C   UNK N   1      23.266  13.612   8.074  0.00  0.00     0.054 A 
HETATM    5  C   UNK N   1      24.663  13.610   8.052  0.00  0.00     0.068 A 
HETATM    6  C   UNK N   1      24.011  12.765   9.907  0.00  0.00     0.112 A 
HETATM    7  C   UNK N   1      21.646  12.859   9.761  0.00  0.00     0.105 A 
HETATM    8  C   UNK N   1      21.545  12.296  11.042  0.00  0.00    -0.046 A 
HETATM    9  C   UNK N   1      23.976  12.195  11.176  0.00  0.00     0.050 A 
HETATM   10  C   UNK N   1      22.716  11.963  11.748  0.00  0.00     0.012 A 
HETATM   11  C   UNK N   1      20.211  12.068  11.654  0.00  0.00     0.049 C 
ENDROOT
BRANCH   5  12
HETATM   12  C   UNK N   1      25.564  14.115   6.992  0.00  0.00    -0.007 A 
HETATM   13  C   UNK N   1      26.064  15.425   7.072  0.00  0.00     0.014 A 
HETATM   14  C   UNK N   1      26.883  15.932   6.059  0.00  0.00     0.007 A 
HETATM   15  C   UNK N   1      27.197  15.139   4.952  0.00  0.00    -0.062 A 
HETATM   16  C   UNK N   1      26.704  13.835   4.865  0.00  0.00     0.007 A 
HETATM   17  C   UNK N   1      28.051  15.685   3.865  0.00  0.00     0.048 C 
HETATM   18  C   UNK N   1      25.894  13.325   5.884  0.00  0.00     0.014 A 
ENDBRANCH   5  12
BRANCH   4  19
HETATM   19  C   UNK N   1      22.342  14.076   6.977  0.00  0.00     0.163 C 
BRANCH  19  20
HETATM   20  C   UNK N   1      21.981  15.539   7.033  0.00  0.00     0.224 C 
HETATM   21  O   UNK N   1      21.317  15.952   7.973  0.00  0.00    -0.273 OA
HETATM   22  N   UNK N   1      22.344  16.392   6.032  0.00  0.00    -0.361 N 
HETATM   23  C   UNK N   1      21.959  17.781   6.078  0.00  0.00     0.152 C 
HETATM   24  C   UNK N   1      23.104  15.931   4.899  0.00  0.00     0.152 C 
ENDBRANCH  19  20
ENDBRANCH   4  19
TORSDOF 3
ENDMDL
MODEL 4
REMARK VINA RESULT:      -6.8      8.483     12.926
REMARK  3 active torsions:
REMARK  status: ('A' for Active; 'I' for Inactive)
REMARK       I    between atoms: N_5  and  C_14 
REMARK    1  A    between atoms: C_6  and  C_9 
REMARK    2  A    between atoms: C_7  and  C_10 
REMARK    3  A    between atoms: C_9  and  C_14 
ROOT
HETATM    1  N   UNK N   1      28.933  17.822   6.091  0.00  0.00    -0.309 N 
HETATM    2  N   UNK N   1      27.209  19.093   6.746  0.00  0.00    -0.340 N 
ATOM      3  HN  UNK N   1      26.603  19.675   7.323  1.00  0.00     0.167 HD
HETATM    4  C   UNK N   1      28.092  17.928   5.046  0.00  0.00     0.054 A 
HETATM    5  C   UNK N   1      27.015  18.717   5.457  0.00  0.00     0.068 A 
HETATM    6  C   UNK N   1      28.380  18.525   7.093  0.00  0.00     0.112 A 
HETATM    7  C   UNK N   1      30.114  17.165   6.216  0.00  0.00     0.105 A 
HETATM    8  C   UNK N   1      30.775  17.211   7.452  0.00  0.00    -0.046 A 
HETATM    9  C   UNK N   1      28.993  18.617   8.340  0.00  0.00     0.050 A 
HETATM   10  C   UNK N   1      30.211  17.942   8.515  0.00  0.00     0.012 A 
HETATM   11  C   UNK N   1      32.055  16.481   7.642  0.00  0.00     0.049 C 
ENDROOT
BRANCH   5  12
HETATM   12  C   UNK N   1      25.815  19.106   4.682  0.00  0.00    -0.007 A 
HETATM   13  C   UNK N   1      25.881  20.196   3.801  0.00  0.00     0.014 A 
HETATM   14  C   UNK N   1      24.746  20.602   3.092  0.00  0.00     0.007 A 
HETATM   15  C   UNK N   1      23.534  19.929   3.270  0.00  0.00    -0.062 A 
HETATM   16  C   UNK N   1      23.460  18.844   4.145  0.00  0.00     0.007 A 
HETATM   17  C   UNK N   1      22.323  20.374   2.533  0.00  0.00     0.048 C 
HETATM   18  C   UNK N   1      24.598  18.431   4.845  0.00  0.00     0.014 A 
ENDBRANCH   5  12
BRANCH   4  19
HETATM   19  C   UNK N   1      28.313  17.336   3.677  0.00  0.00     0.163 C 
BRANCH  19  20
HETATM   20  C   UNK N   1      27.772  15.940   3.498  0.00  0.00     0.224 C 
HETATM   21  O   UNK N   1      26.570  15.750   3.614  0.00  0.00    -0.273 OA
HETATM   22  N   UNK N   1      28.605  14.888   3.256  0.00  0.00    -0.361 N 
HETATM   23  C   UNK N   1      28.079  13.552   3.125  0.00  0.00     0.152 C 
HETATM   24  C   UNK N   1      30.028  15.077   3.139  0.00  0.00     0.152 C 
ENDBRANCH  19  20
ENDBRANCH   4  19
TORSDOF 3
ENDMDL
MODEL 5
REMARK VINA RESULT:      -6.8      7.401     10.774
REMARK  3 active torsions:
REMARK  status: ('A' for Active; 'I' for Inactive)
REMARK       I    between atoms: N_5  and  C_14 
REMARK    1  A    between atoms: C_6  and  C_9 
REMARK    2  A    between atoms: C_7  and  C_10 
REMARK    3  A    between atoms: C_9  and  C_14 
ROOT
HETATM    1  N   UNK N   1      27.557  16.579   4.917  0.00  0.00    -0.309 N 
HETATM    2  N   UNK N   1      29.184  15.287   5.755  0.00  0.00    -0.340 N 
ATOM      3  HN  UNK N   1      29.706  14.464   6.052  1.00  0.00     0.167 HD
HETATM    4  C   UNK N   1      28.555  17.392   5.309  0.00  0.00     0.054 A 
HETATM    5  C   UNK N   1      29.567  16.586   5.836  0.00  0.00     0.068 A 
HETATM    6  C   UNK N   1      27.958  15.327   5.197  0.00  0.00     0.112 A 
HETATM    7  C   UNK N   1      26.356  16.857   4.351  0.00  0.00     0.105 A 
HETATM    8  C   UNK N   1      25.491  15.791   4.061  0.00  0.00    -0.046 A 
HETATM    9  C   UNK N   1      27.149  14.227   4.924  0.00  0.00     0.050 A 
HETATM   10  C   UNK N   1      25.893  14.473   4.349  0.00  0.00     0.012 A 
HETATM   11  C   UNK N   1      24.154  16.054   3.469  0.00  0.00     0.049 C 
ENDROOT
BRANCH   5  12
HETATM   12  C   UNK N   1      30.859  17.003   6.423  0.00  0.00    -0.007 A 
HETATM   13  C   UNK N   1      30.928  17.335   7.785  0.00  0.00     0.014 A 
HETATM   14  C   UNK N   1      32.132  17.771   8.346  0.00  0.00     0.007 A 
HETATM   15  C   UNK N   1      33.272  17.891   7.548  0.00  0.00    -0.062 A 
HETATM   16  C   UNK N   1      33.212  17.563   6.192  0.00  0.00     0.007 A 
HETATM   17  C   UNK N   1      34.547  18.374   8.139  0.00  0.00     0.048 C 
HETATM   18  C   UNK N   1      32.011  17.117   5.633  0.00  0.00     0.014 A 
ENDBRANCH   5  12
BRANCH   4  19
HETATM   19  C   UNK N   1      28.576  18.891   5.156  0.00  0.00     0.163 C 
BRANCH  19  20
HETATM   20  C   UNK N   1      27.896  19.650   6.267  0.00  0.00     0.224 C 
HETATM   21  O   UNK N   1      28.241  19.448   7.422  0.00  0.00    -0.273 OA
HETATM   22  N   UNK N   1      26.876  20.516   6.005  0.00  0.00    -0.361 N 
HETATM   23  C   UNK N   1      26.207  21.206   7.080  0.00  0.00     0.152 C 
HETATM   24  C   UNK N   1      26.429  20.756   4.657  0.00  0.00     0.152 C 
ENDBRANCH  19  20
ENDBRANCH   4  19
TORSDOF 3
ENDMDL
MODEL 6
REMARK VINA RESULT:      -6.7      3.068      4.646
REMARK  3 active torsions:
REMARK  status: ('A' for Active; 'I' for Inactive)
REMARK       I    between atoms: N_5  and  C_14 
REMARK    1  A    between atoms: C_6  and  C_9 
REMARK    2  A    between atoms: C_7  and  C_10 
REMARK    3  A    between atoms: C_9  and  C_14 
ROOT
HETATM    1  N   UNK N   1      35.148  13.058  12.358  0.00  0.00    -0.309 N 
HETATM    2  N   UNK N   1      35.966  14.074  14.180  0.00  0.00    -0.340 N 
ATOM      3  HN  UNK N   1      36.415  14.764  14.781  1.00  0.00     0.167 HD
HETATM    4  C   UNK N   1      34.907  12.254  13.410  0.00  0.00     0.054 A 
HETATM    5  C   UNK N   1      35.421  12.886  14.545  0.00  0.00     0.068 A 
HETATM    6  C   UNK N   1      35.785  14.137  12.846  0.00  0.00     0.112 A 
HETATM    7  C   UNK N   1      34.859  12.907  11.041  0.00  0.00     0.105 A 
HETATM    8  C   UNK N   1      35.256  13.916  10.151  0.00  0.00    -0.046 A 
HETATM    9  C   UNK N   1      36.194  15.176  12.015  0.00  0.00     0.050 A 
HETATM   10  C   UNK N   1      35.925  15.053  10.643  0.00  0.00     0.012 A 
HETATM   11  C   UNK N   1      34.986  13.778   8.697  0.00  0.00     0.049 C 
ENDROOT
BRANCH   5  12
HETATM   12  C   UNK N   1      35.429  12.399  15.942  0.00  0.00    -0.007 A 
HETATM   13  C   UNK N   1      34.991  13.243  16.974  0.00  0.00     0.014 A 
HETATM   14  C   UNK N   1      35.030  12.813  18.304  0.00  0.00     0.007 A 
HETATM   15  C   UNK N   1      35.519  11.541  18.612  0.00  0.00    -0.062 A 
HETATM   16  C   UNK N   1      35.957  10.695  17.591  0.00  0.00     0.007 A 
HETATM   17  C   UNK N   1      35.581  11.091  20.027  0.00  0.00     0.048 C 
HETATM   18  C   UNK N   1      35.908  11.122  16.261  0.00  0.00     0.014 A 
ENDBRANCH   5  12
BRANCH   4  19
HETATM   19  C   UNK N   1      34.172  10.939  13.359  0.00  0.00     0.163 C 
BRANCH  19  20
HETATM   20  C   UNK N   1      34.952   9.804  12.743  0.00  0.00     0.224 C 
HETATM   21  O   UNK N   1      36.025   9.486  13.234  0.00  0.00    -0.273 OA
HETATM   22  N   UNK N   1      34.499   9.164  11.627  0.00  0.00    -0.361 N 
HETATM   23  C   UNK N   1      35.273   8.106  11.026  0.00  0.00     0.152 C 
HETATM   24  C   UNK N   1      33.250   9.533  11.011  0.00  0.00     0.152 C 
ENDBRANCH  19  20
ENDBRANCH   4  19
TORSDOF 3
ENDMDL
MODEL 7
REMARK VINA RESULT:      -6.7      1.990      4.773
REMARK  3 active torsions:
REMARK  status: ('A' for Active; 'I' for Inactive)
REMARK       I    between atoms: N_5  and  C_14 
REMARK    1  A    between atoms: C_6  and  C_9 
REMARK    2  A    between atoms: C_7  and  C_10 
REMARK    3  A    between atoms: C_9  and  C_14 
ROOT
HETATM    1  N   UNK N   1      34.350  15.579   8.560  0.00  0.00    -0.309 N 
HETATM    2  N   UNK N   1      33.327  15.182  10.512  0.00  0.00    -0.340 N 
ATOM      3  HN  UNK N   1      32.613  15.151  11.239  1.00  0.00     0.167 HD
HETATM    4  C   UNK N   1      35.233  14.948   9.356  0.00  0.00     0.054 A 
HETATM    5  C   UNK N   1      34.595  14.706  10.575  0.00  0.00     0.068 A 
HETATM    6  C   UNK N   1      33.221  15.708   9.277  0.00  0.00     0.112 A 
HETATM    7  C   UNK N   1      34.471  16.036   7.288  0.00  0.00     0.105 A 
HETATM    8  C   UNK N   1      33.373  16.684   6.705  0.00  0.00    -0.046 A 
HETATM    9  C   UNK N   1      32.094  16.333   8.749  0.00  0.00     0.050 A 
HETATM   10  C   UNK N   1      32.182  16.831   7.440  0.00  0.00     0.012 A 
HETATM   11  C   UNK N   1      33.472  17.227   5.325  0.00  0.00     0.049 C 
ENDROOT
BRANCH   5  12
HETATM   12  C   UNK N   1      35.149  14.062  11.787  0.00  0.00    -0.007 A 
HETATM   13  C   UNK N   1      34.896  12.702  12.027  0.00  0.00     0.014 A 
HETATM   14  C   UNK N   1      35.377  12.088  13.188  0.00  0.00     0.007 A 
HETATM   15  C   UNK N   1      36.102  12.832  14.122  0.00  0.00    -0.062 A 
HETATM   16  C   UNK N   1      36.357  14.185  13.891  0.00  0.00     0.007 A 
HETATM   17  C   UNK N   1      36.595  12.184  15.366  0.00  0.00     0.048 C 
HETATM   18  C   UNK N   1      35.886  14.796  12.725  0.00  0.00     0.014 A 
ENDBRANCH   5  12
BRANCH   4  19
HETATM   19  C   UNK N   1      36.633  14.545   8.968  0.00  0.00     0.163 C 
BRANCH  19  20
HETATM   20  C   UNK N   1      36.829  13.065   8.760  0.00  0.00     0.224 C 
HETATM   21  O   UNK N   1      36.180  12.495   7.895  0.00  0.00    -0.273 OA
HETATM   22  N   UNK N   1      37.680  12.350   9.551  0.00  0.00    -0.361 N 
HETATM   23  C   UNK N   1      37.829  10.927   9.367  0.00  0.00     0.152 C 
HETATM   24  C   UNK N   1      38.439  12.987  10.596  0.00  0.00     0.152 C 
ENDBRANCH  19  20
ENDBRANCH   4  19
TORSDOF 3
ENDMDL
MODEL 8
REMARK VINA RESULT:      -6.5      4.574      8.179
REMARK  3 active torsions:
REMARK  status: ('A' for Active; 'I' for Inactive)
REMARK       I    between atoms: N_5  and  C_14 
REMARK    1  A    between atoms: C_6  and  C_9 
REMARK    2  A    between atoms: C_7  and  C_10 
REMARK    3  A    between atoms: C_9  and  C_14 
ROOT
HETATM    1  N   UNK N   1      30.139  17.405   7.360  0.00  0.00    -0.309 N 
HETATM    2  N   UNK N   1      30.884  16.998   9.433  0.00  0.00    -0.340 N 
ATOM      3  HN  UNK N   1      30.951  16.987  10.450  1.00  0.00     0.167 HD
HETATM    4  C   UNK N   1      31.263  16.675   7.247  0.00  0.00     0.054 A 
HETATM    5  C   UNK N   1      31.730  16.425   8.540  0.00  0.00     0.068 A 
HETATM    6  C   UNK N   1      29.937  17.586   8.676  0.00  0.00     0.112 A 
HETATM    7  C   UNK N   1      29.309  17.909   6.411  0.00  0.00     0.105 A 
HETATM    8  C   UNK N   1      28.202  18.664   6.826  0.00  0.00    -0.046 A 
HETATM    9  C   UNK N   1      28.851  18.317   9.150  0.00  0.00     0.050 A 
HETATM   10  C   UNK N   1      27.975  18.866   8.201  0.00  0.00     0.012 A 
HETATM   11  C   UNK N   1      27.286  19.260   5.820  0.00  0.00     0.049 C 
ENDROOT
BRANCH   5  12
HETATM   12  C   UNK N   1      32.945  15.687   8.950  0.00  0.00    -0.007 A 
HETATM   13  C   UNK N   1      34.121  16.395   9.243  0.00  0.00     0.014 A 
HETATM   14  C   UNK N   1      35.290  15.711   9.591  0.00  0.00     0.007 A 
HETATM   15  C   UNK N   1      35.294  14.315   9.638  0.00  0.00    -0.062 A 
HETATM   16  C   UNK N   1      34.128  13.603   9.348  0.00  0.00     0.007 A 
HETATM   17  C   UNK N   1      36.541  13.587   9.988  0.00  0.00     0.048 C 
HETATM   18  C   UNK N   1      32.957  14.288   9.010  0.00  0.00     0.014 A 
ENDBRANCH   5  12
BRANCH   4  19
HETATM   19  C   UNK N   1      31.866  16.185   5.955  0.00  0.00     0.163 C 
BRANCH  19  20
HETATM   20  C   UNK N   1      31.202  14.965   5.370  0.00  0.00     0.224 C 
HETATM   21  O   UNK N   1      31.193  13.926   6.016  0.00  0.00    -0.273 OA
HETATM   22  N   UNK N   1      30.655  14.992   4.121  0.00  0.00    -0.361 N 
HETATM   23  C   UNK N   1      30.057  13.807   3.558  0.00  0.00     0.152 C 
HETATM   24  C   UNK N   1      30.672  16.193   3.326  0.00  0.00     0.152 C 
ENDBRANCH  19  20
ENDBRANCH   4  19
TORSDOF 3
ENDMDL
MODEL 9
REMARK VINA RESULT:      -6.5      6.671     11.213
REMARK  3 active torsions:
REMARK  status: ('A' for Active; 'I' for Inactive)
REMARK       I    between atoms: N_5  and  C_14 
REMARK    1  A    between atoms: C_6  and  C_9 
REMARK    2  A    between atoms: C_7  and  C_10 
REMARK    3  A    between atoms: C_9  and  C_14 
ROOT
HETATM    1  N   UNK N   1      30.504  16.538   6.485  0.00  0.00    -0.309 N 
HETATM    2  N   UNK N   1      28.967  18.051   7.092  0.00  0.00    -0.340 N 
ATOM      3  HN  UNK N   1      28.410  18.685   7.664  1.00  0.00     0.167 HD
HETATM    4  C   UNK N   1      29.825  16.889   5.377  0.00  0.00     0.054 A 
HETATM    5  C   UNK N   1      28.864  17.829   5.758  0.00  0.00     0.068 A 
HETATM    6  C   UNK N   1      29.969  17.245   7.495  0.00  0.00     0.112 A 
HETATM    7  C   UNK N   1      31.526  15.662   6.659  0.00  0.00     0.105 A 
HETATM    8  C   UNK N   1      32.033  15.479   7.954  0.00  0.00    -0.046 A 
HETATM    9  C   UNK N   1      30.437  17.114   8.800  0.00  0.00     0.050 A 
HETATM   10  C   UNK N   1      31.486  16.209   9.025  0.00  0.00     0.012 A 
HETATM   11  C   UNK N   1      33.132  14.507   8.194  0.00  0.00     0.049 C 
ENDROOT
BRANCH   5  12
HETATM   12  C   UNK N   1      27.853  18.501   4.912  0.00  0.00    -0.007 A 
HETATM   13  C   UNK N   1      27.940  19.884   4.693  0.00  0.00     0.014 A 
HETATM   14  C   UNK N   1      26.970  20.542   3.930  0.00  0.00     0.007 A 
HETATM   15  C   UNK N   1      25.900  19.823   3.391  0.00  0.00    -0.062 A 
HETATM   16  C   UNK N   1      25.806  18.446   3.604  0.00  0.00     0.007 A 
HETATM   17  C   UNK N   1      24.857  20.524   2.597  0.00  0.00     0.048 C 
HETATM   18  C   UNK N   1      26.782  17.788   4.358  0.00  0.00     0.014 A 
ENDBRANCH   5  12
BRANCH   4  19
HETATM   19  C   UNK N   1      30.099  16.385   3.984  0.00  0.00     0.163 C 
BRANCH  19  20
HETATM   20  C   UNK N   1      31.540  16.473   3.552  0.00  0.00     0.224 C 
HETATM   21  O   UNK N   1      32.084  17.567   3.514  0.00  0.00    -0.273 OA
HETATM   22  N   UNK N   1      32.227  15.361   3.161  0.00  0.00    -0.361 N 
HETATM   23  C   UNK N   1      33.594  15.464   2.714  0.00  0.00     0.152 C 
HETATM   24  C   UNK N   1      31.607  14.061   3.171  0.00  0.00     0.152 C 
ENDBRANCH  19  20
ENDBRANCH   4  19
TORSDOF 3
ENDMDL
