REMARK  3 active torsions:
REMARK  status: ('A' for Active; 'I' for Inactive)
REMARK       I    between atoms: N_5  and  C_14 
REMARK    1  A    between atoms: C_6  and  C_9 
REMARK    2  A    between atoms: C_7  and  C_10 
REMARK    3  A    between atoms: C_9  and  C_14 
ROOT
HETATM    1  N   UNK N   1       3.060  -1.210  -0.301  0.00  0.00    -0.309 N 
HETATM    2  N   UNK N   1       4.434  -2.865   0.325  0.00  0.00    -0.340 N 
ATOM      3  HN  UNK N   1       4.768  -3.768   0.660  1.00  0.00     0.167 HD
HETATM    4  C   UNK N   1       4.321  -0.767  -0.457  0.00  0.00     0.054 A 
HETATM    5  C   UNK N   1       5.177  -1.798  -0.062  0.00  0.00     0.068 A 
HETATM    6  C   UNK N   1       3.157  -2.465   0.170  0.00  0.00     0.112 A 
HETATM    7  C   UNK N   1       1.870  -0.601  -0.534  0.00  0.00     0.105 A 
HETATM    8  C   UNK N   1       0.692  -1.310  -0.256  0.00  0.00    -0.046 A 
HETATM    9  C   UNK N   1       2.024  -3.223   0.455  0.00  0.00     0.050 A 
HETATM   10  C   UNK N   1       0.773  -2.625   0.239  0.00  0.00     0.012 A 
HETATM   11  C   UNK N   1      -0.632  -0.670  -0.468  0.00  0.00     0.049 C 
ENDROOT
BRANCH   5  12
HETATM   12  C   UNK N   1       6.656  -1.797  -0.023  0.00  0.00    -0.007 A 
HETATM   13  C   UNK N   1       7.342  -2.974   0.315  0.00  0.00     0.014 A 
HETATM   14  C   UNK N   1       8.738  -2.980   0.397  0.00  0.00     0.007 A 
HETATM   15  C   UNK N   1       9.457  -1.807   0.154  0.00  0.00    -0.062 A 
HETATM   16  C   UNK N   1       8.782  -0.632  -0.183  0.00  0.00     0.007 A 
HETATM   17  C   UNK N   1      10.939  -1.808   0.261  0.00  0.00     0.048 C 
HETATM   18  C   UNK N   1       7.387  -0.629  -0.275  0.00  0.00     0.014 A 
ENDBRANCH   5  12
BRANCH   4  19
HETATM   19  C   UNK N   1       4.716   0.581  -1.004  0.00  0.00     0.163 C 
BRANCH  19  20
HETATM   20  C   UNK N   1       4.207   1.758  -0.211  0.00  0.00     0.224 C 
HETATM   21  O   UNK N   1       3.003   1.963  -0.158  0.00  0.00    -0.273 OA
HETATM   22  N   UNK N   1       5.069   2.617   0.405  0.00  0.00    -0.361 N 
HETATM   23  C   UNK N   1       4.571   3.761   1.128  0.00  0.00     0.152 C 
HETATM   24  C   UNK N   1       6.494   2.417   0.340  0.00  0.00     0.152 C 
ENDBRANCH  19  20
ENDBRANCH   4  19
TORSDOF 3
