MODEL 1
REMARK VINA RESULT:      -5.8      0.000      0.000
REMARK  9 active torsions:
REMARK  status: ('A' for Active; 'I' for Inactive)
REMARK    1  A    between atoms: O_1  and  C_16 
REMARK    2  A    between atoms: O_1  and  C_22 
REMARK    3  A    between atoms: O_2  and  C_17 
REMARK    4  A    between atoms: O_2  and  C_23 
REMARK    5  A    between atoms: N_5  and  C_15 
REMARK       I    between atoms: N_12  and  C_24 
REMARK    6  A    between atoms: C_13  and  C_14 
REMARK    7  A    between atoms: C_13  and  C_16 
REMARK    8  A    between atoms: C_13  and  C_17 
REMARK    9  A    between atoms: C_14  and  C_15 
ROOT
HETATM    1  N   UNK N   1      29.709  17.765   8.034  0.00  0.00    -0.327 N 
HETATM    2  N   UNK N   1      27.838  18.978   8.312  0.00  0.00    -0.348 N 
ATOM      3  HN  UNK N   1      27.085  19.519   8.738  1.00  0.00     0.167 HD
HETATM    4  N   UNK N   1      29.525  17.475   5.648  0.00  0.00    -0.174 N 
ATOM      5  HN  UNK N   1      30.381  16.929   5.557  1.00  0.00     0.186 HD
HETATM    6  N   UNK N   1      27.602  18.506   4.699  0.00  0.00    -0.200 N 
ATOM      7  HN  UNK N   1      27.038  18.714   3.874  1.00  0.00     0.183 HD
HETATM    8  N   UNK N   1      29.151  17.321   3.281  0.00  0.00    -0.234 N 
HETATM    9  C   UNK N   1      29.114  17.932   6.853  0.00  0.00     0.152 A 
HETATM   10  C   UNK N   1      28.918  18.414   8.928  0.00  0.00     0.185 A 
HETATM   11  C   UNK N   1      27.992  18.657   7.014  0.00  0.00     0.094 A 
HETATM   12  C   UNK N   1      27.196  18.963   5.922  0.00  0.00     0.139 A 
HETATM   13  C   UNK N   1      28.756  17.771   4.556  0.00  0.00     0.677 A 
HETATM   14  H   UNK N   1      29.990  16.818   3.174  0.00  0.00     0.174 HD
HETATM   15  H   UNK N   1      28.588  17.511   2.496  0.00  0.00     0.174 HD
ENDROOT
BRANCH   1  16
HETATM   16  C   UNK N   1      30.943  17.020   8.255  0.00  0.00     0.132 C 
BRANCH  16  17
HETATM   17  C   UNK N   1      32.180  17.902   8.266  0.00  0.00     0.029 C 
BRANCH  17  18
HETATM   18  C   UNK N   1      33.374  17.215   7.603  0.00  0.00     0.036 C 
BRANCH  18  19
HETATM   19  C   UNK N   1      33.490  17.565   6.115  0.00  0.00     0.185 C 
BRANCH  19  20
HETATM   20  O   UNK N   1      32.713  16.720   5.350  0.00  0.00    -0.321 OA
BRANCH  20  21
HETATM   21  C   UNK N   1      32.655  16.779   3.997  0.00  0.00     0.254 C 
HETATM   22  O   UNK N   1      32.004  17.663   3.464  0.00  0.00    -0.266 OA
HETATM   23  C   UNK N   1      33.386  15.795   3.137  0.00  0.00     0.126 C 
ENDBRANCH  20  21
ENDBRANCH  19  20
ENDBRANCH  18  19
BRANCH  18  24
HETATM   24  C   UNK N   1      34.618  17.677   8.344  0.00  0.00     0.185 C 
BRANCH  24  25
HETATM   25  O   UNK N   1      34.510  17.430   9.694  0.00  0.00    -0.321 OA
BRANCH  25  26
HETATM   26  C   UNK N   1      35.172  16.412  10.294  0.00  0.00     0.254 C 
HETATM   27  O   UNK N   1      36.310  16.562  10.712  0.00  0.00    -0.266 OA
HETATM   28  C   UNK N   1      34.508  15.087  10.433  0.00  0.00     0.126 C 
ENDBRANCH  25  26
ENDBRANCH  24  25
ENDBRANCH  18  24
ENDBRANCH  17  18
ENDBRANCH  16  17
ENDBRANCH   1  16
TORSDOF 9
ENDMDL
MODEL 2
REMARK VINA RESULT:      -5.7      0.914      3.990
REMARK  9 active torsions:
REMARK  status: ('A' for Active; 'I' for Inactive)
REMARK    1  A    between atoms: O_1  and  C_16 
REMARK    2  A    between atoms: O_1  and  C_22 
REMARK    3  A    between atoms: O_2  and  C_17 
REMARK    4  A    between atoms: O_2  and  C_23 
REMARK    5  A    between atoms: N_5  and  C_15 
REMARK       I    between atoms: N_12  and  C_24 
REMARK    6  A    between atoms: C_13  and  C_14 
REMARK    7  A    between atoms: C_13  and  C_16 
REMARK    8  A    between atoms: C_13  and  C_17 
REMARK    9  A    between atoms: C_14  and  C_15 
ROOT
HETATM    1  N   UNK N   1      29.361  17.900   7.626  0.00  0.00    -0.327 N 
HETATM    2  N   UNK N   1      27.580  19.263   7.473  0.00  0.00    -0.348 N 
ATOM      3  HN  UNK N   1      26.824  19.905   7.712  1.00  0.00     0.167 HD
HETATM    4  N   UNK N   1      29.486  17.309   5.293  0.00  0.00    -0.174 N 
ATOM      5  HN  UNK N   1      30.296  16.699   5.398  1.00  0.00     0.186 HD
HETATM    6  N   UNK N   1      27.810  18.332   3.949  0.00  0.00    -0.200 N 
ATOM      7  HN  UNK N   1      27.386  18.467   3.031  1.00  0.00     0.183 HD
HETATM    8  N   UNK N   1      29.433  16.868   2.933  0.00  0.00    -0.234 N 
HETATM    9  C   UNK N   1      28.952  17.949   6.358  0.00  0.00     0.152 A 
HETATM   10  C   UNK N   1      28.511  18.715   8.307  0.00  0.00     0.185 A 
HETATM   11  C   UNK N   1      27.885  18.763   6.261  0.00  0.00     0.094 A 
HETATM   12  C   UNK N   1      27.278  18.974   5.034  0.00  0.00     0.139 A 
HETATM   13  C   UNK N   1      28.905  17.509   4.071  0.00  0.00     0.677 A 
HETATM   14  H   UNK N   1      30.233  16.299   3.015  0.00  0.00     0.174 HD
HETATM   15  H   UNK N   1      29.003  16.990   2.056  0.00  0.00     0.174 HD
ENDROOT
BRANCH   1  16
HETATM   16  C   UNK N   1      30.482  17.109   8.118  0.00  0.00     0.132 C 
BRANCH  16  17
HETATM   17  C   UNK N   1      31.728  17.939   8.382  0.00  0.00     0.029 C 
BRANCH  17  18
HETATM   18  C   UNK N   1      32.860  17.589   7.416  0.00  0.00     0.036 C 
BRANCH  18  19
HETATM   19  C   UNK N   1      34.242  17.821   8.037  0.00  0.00     0.185 C 
BRANCH  19  20
HETATM   20  O   UNK N   1      34.234  17.516   9.382  0.00  0.00    -0.321 OA
BRANCH  20  21
HETATM   21  C   UNK N   1      35.070  16.612   9.949  0.00  0.00     0.254 C 
HETATM   22  O   UNK N   1      36.061  17.006  10.543  0.00  0.00    -0.266 OA
HETATM   23  C   UNK N   1      34.800  15.141   9.880  0.00  0.00     0.126 C 
ENDBRANCH  20  21
ENDBRANCH  19  20
ENDBRANCH  18  19
BRANCH  18  24
HETATM   24  C   UNK N   1      32.692  16.123   7.052  0.00  0.00     0.185 C 
BRANCH  24  25
HETATM   25  O   UNK N   1      33.247  15.850   5.823  0.00  0.00    -0.321 OA
BRANCH  25  26
HETATM   26  C   UNK N   1      32.553  16.003   4.670  0.00  0.00     0.254 C 
HETATM   27  O   UNK N   1      31.577  15.309   4.428  0.00  0.00    -0.266 OA
HETATM   28  C   UNK N   1      32.995  17.022   3.678  0.00  0.00     0.126 C 
ENDBRANCH  25  26
ENDBRANCH  24  25
ENDBRANCH  18  24
ENDBRANCH  17  18
ENDBRANCH  16  17
ENDBRANCH   1  16
TORSDOF 9
ENDMDL
MODEL 3
REMARK VINA RESULT:      -5.7      2.016      4.192
REMARK  9 active torsions:
REMARK  status: ('A' for Active; 'I' for Inactive)
REMARK    1  A    between atoms: O_1  and  C_16 
REMARK    2  A    between atoms: O_1  and  C_22 
REMARK    3  A    between atoms: O_2  and  C_17 
REMARK    4  A    between atoms: O_2  and  C_23 
REMARK    5  A    between atoms: N_5  and  C_15 
REMARK       I    between atoms: N_12  and  C_24 
REMARK    6  A    between atoms: C_13  and  C_14 
REMARK    7  A    between atoms: C_13  and  C_16 
REMARK    8  A    between atoms: C_13  and  C_17 
REMARK    9  A    between atoms: C_14  and  C_15 
ROOT
HETATM    1  N   UNK N   1      30.727  16.741   7.059  0.00  0.00    -0.327 N 
HETATM    2  N   UNK N   1      30.575  16.837   9.300  0.00  0.00    -0.348 N 
ATOM      3  HN  UNK N   1      30.761  16.698  10.293  1.00  0.00     0.167 HD
HETATM    4  N   UNK N   1      28.811  18.120   6.571  0.00  0.00    -0.174 N 
ATOM      5  HN  UNK N   1      28.910  18.057   5.559  1.00  0.00     0.186 HD
HETATM    6  N   UNK N   1      27.679  18.916   8.507  0.00  0.00    -0.200 N 
ATOM      7  HN  UNK N   1      26.917  19.459   8.914  1.00  0.00     0.183 HD
HETATM    8  N   UNK N   1      26.880  19.524   6.316  0.00  0.00    -0.234 N 
HETATM    9  C   UNK N   1      29.677  17.490   7.397  0.00  0.00     0.152 A 
HETATM   10  C   UNK N   1      31.276  16.344   8.238  0.00  0.00     0.185 A 
HETATM   11  C   UNK N   1      29.581  17.550   8.738  0.00  0.00     0.094 A 
HETATM   12  C   UNK N   1      28.562  18.275   9.333  0.00  0.00     0.139 A 
HETATM   13  C   UNK N   1      27.800  18.846   7.138  0.00  0.00     0.677 A 
HETATM   14  H   UNK N   1      26.981  19.496   5.337  0.00  0.00     0.174 HD
HETATM   15  H   UNK N   1      26.137  20.028   6.720  0.00  0.00     0.174 HD
ENDROOT
BRANCH   1  16
HETATM   16  C   UNK N   1      31.138  16.437   5.694  0.00  0.00     0.132 C 
BRANCH  16  17
HETATM   17  C   UNK N   1      32.106  17.460   5.121  0.00  0.00     0.029 C 
BRANCH  17  18
HETATM   18  C   UNK N   1      33.525  16.903   5.018  0.00  0.00     0.036 C 
BRANCH  18  19
HETATM   19  C   UNK N   1      34.196  16.774   6.390  0.00  0.00     0.185 C 
BRANCH  19  20
HETATM   20  O   UNK N   1      34.511  18.015   6.902  0.00  0.00    -0.321 OA
BRANCH  20  21
HETATM   21  C   UNK N   1      34.808  18.232   8.206  0.00  0.00     0.254 C 
HETATM   22  O   UNK N   1      35.235  19.323   8.549  0.00  0.00    -0.266 OA
HETATM   23  C   UNK N   1      34.607  17.172   9.244  0.00  0.00     0.126 C 
ENDBRANCH  20  21
ENDBRANCH  19  20
ENDBRANCH  18  19
BRANCH  18  24
HETATM   24  C   UNK N   1      33.418  15.537   4.360  0.00  0.00     0.185 C 
BRANCH  24  25
HETATM   25  O   UNK N   1      34.172  14.602   5.033  0.00  0.00    -0.321 OA
BRANCH  25  26
HETATM   26  C   UNK N   1      33.758  13.323   5.192  0.00  0.00     0.254 C 
HETATM   27  O   UNK N   1      34.557  12.427   5.419  0.00  0.00    -0.266 OA
HETATM   28  C   UNK N   1      32.309  13.002   5.076  0.00  0.00     0.126 C 
ENDBRANCH  25  26
ENDBRANCH  24  25
ENDBRANCH  18  24
ENDBRANCH  17  18
ENDBRANCH  16  17
ENDBRANCH   1  16
TORSDOF 9
ENDMDL
MODEL 4
REMARK VINA RESULT:      -5.7      6.614     10.277
REMARK  9 active torsions:
REMARK  status: ('A' for Active; 'I' for Inactive)
REMARK    1  A    between atoms: O_1  and  C_16 
REMARK    2  A    between atoms: O_1  and  C_22 
REMARK    3  A    between atoms: O_2  and  C_17 
REMARK    4  A    between atoms: O_2  and  C_23 
REMARK    5  A    between atoms: N_5  and  C_15 
REMARK       I    between atoms: N_12  and  C_24 
REMARK    6  A    between atoms: C_13  and  C_14 
REMARK    7  A    between atoms: C_13  and  C_16 
REMARK    8  A    between atoms: C_13  and  C_17 
REMARK    9  A    between atoms: C_14  and  C_15 
ROOT
HETATM    1  N   UNK N   1      22.904  17.048   4.914  0.00  0.00    -0.327 N 
HETATM    2  N   UNK N   1      22.377  14.867   5.042  0.00  0.00    -0.348 N 
ATOM      3  HN  UNK N   1      22.414  13.869   5.250  1.00  0.00     0.167 HD
HETATM    4  N   UNK N   1      20.938  17.760   3.715  0.00  0.00    -0.174 N 
ATOM      5  HN  UNK N   1      21.207  18.743   3.677  1.00  0.00     0.186 HD
HETATM    6  N   UNK N   1      19.420  15.996   3.221  0.00  0.00    -0.200 N 
ATOM      7  HN  UNK N   1      18.542  15.689   2.801  1.00  0.00     0.183 HD
HETATM    8  N   UNK N   1      18.905  18.249   2.535  0.00  0.00    -0.234 N 
HETATM    9  C   UNK N   1      21.731  16.843   4.315  0.00  0.00     0.152 A 
HETATM   10  C   UNK N   1      23.294  15.825   5.362  0.00  0.00     0.185 A 
HETATM   11  C   UNK N   1      21.411  15.538   4.387  0.00  0.00     0.094 A 
HETATM   12  C   UNK N   1      20.230  15.077   3.830  0.00  0.00     0.139 A 
HETATM   13  C   UNK N   1      19.764  17.327   3.163  0.00  0.00     0.677 A 
HETATM   14  H   UNK N   1      19.137  19.205   2.517  0.00  0.00     0.174 HD
HETATM   15  H   UNK N   1      18.070  17.938   2.116  0.00  0.00     0.174 HD
ENDROOT
BRANCH   1  16
HETATM   16  C   UNK N   1      23.579  18.335   5.022  0.00  0.00     0.132 C 
BRANCH  16  17
HETATM   17  C   UNK N   1      24.513  18.619   3.856  0.00  0.00     0.029 C 
BRANCH  17  18
HETATM   18  C   UNK N   1      24.733  20.118   3.657  0.00  0.00     0.036 C 
BRANCH  18  19
HETATM   19  C   UNK N   1      26.198  20.451   3.349  0.00  0.00     0.185 C 
BRANCH  19  20
HETATM   20  O   UNK N   1      27.041  19.829   4.244  0.00  0.00    -0.321 OA
BRANCH  20  21
HETATM   21  C   UNK N   1      27.319  20.320   5.476  0.00  0.00     0.254 C 
HETATM   22  O   UNK N   1      27.209  21.519   5.680  0.00  0.00    -0.266 OA
HETATM   23  C   UNK N   1      27.740  19.427   6.601  0.00  0.00     0.126 C 
ENDBRANCH  20  21
ENDBRANCH  19  20
ENDBRANCH  18  19
BRANCH  18  24
HETATM   24  C   UNK N   1      23.847  20.545   2.498  0.00  0.00     0.185 C 
BRANCH  24  25
HETATM   25  O   UNK N   1      22.742  21.234   2.946  0.00  0.00    -0.321 OA
BRANCH  25  26
HETATM   26  C   UNK N   1      21.482  20.860   2.621  0.00  0.00     0.254 C 
HETATM   27  O   UNK N   1      20.613  20.771   3.475  0.00  0.00    -0.266 OA
HETATM   28  C   UNK N   1      21.155  20.542   1.203  0.00  0.00     0.126 C 
ENDBRANCH  25  26
ENDBRANCH  24  25
ENDBRANCH  18  24
ENDBRANCH  17  18
ENDBRANCH  16  17
ENDBRANCH   1  16
TORSDOF 9
ENDMDL
MODEL 5
REMARK VINA RESULT:      -5.7      2.125      3.915
REMARK  9 active torsions:
REMARK  status: ('A' for Active; 'I' for Inactive)
REMARK    1  A    between atoms: O_1  and  C_16 
REMARK    2  A    between atoms: O_1  and  C_22 
REMARK    3  A    between atoms: O_2  and  C_17 
REMARK    4  A    between atoms: O_2  and  C_23 
REMARK    5  A    between atoms: N_5  and  C_15 
REMARK       I    between atoms: N_12  and  C_24 
REMARK    6  A    between atoms: C_13  and  C_14 
REMARK    7  A    between atoms: C_13  and  C_16 
REMARK    8  A    between atoms: C_13  and  C_17 
REMARK    9  A    between atoms: C_14  and  C_15 
ROOT
HETATM    1  N   UNK N   1      28.920  18.040   6.252  0.00  0.00    -0.327 N 
HETATM    2  N   UNK N   1      28.626  18.787   4.154  0.00  0.00    -0.348 N 
ATOM      3  HN  UNK N   1      28.699  18.896   3.142  1.00  0.00     0.167 HD
HETATM    4  N   UNK N   1      27.424  19.591   7.333  0.00  0.00    -0.174 N 
ATOM      5  HN  UNK N   1      27.579  19.225   8.273  1.00  0.00     0.186 HD
HETATM    6  N   UNK N   1      26.375  21.117   5.840  0.00  0.00    -0.200 N 
ATOM      7  HN  UNK N   1      25.737  21.899   5.694  1.00  0.00     0.183 HD
HETATM    8  N   UNK N   1      25.883  21.217   8.197  0.00  0.00    -0.234 N 
HETATM    9  C   UNK N   1      28.057  19.056   6.264  0.00  0.00     0.152 A 
HETATM   10  C   UNK N   1      29.264  17.879   4.947  0.00  0.00     0.185 A 
HETATM   11  C   UNK N   1      27.878  19.508   5.010  0.00  0.00     0.094 A 
HETATM   12  C   UNK N   1      27.021  20.568   4.766  0.00  0.00     0.139 A 
HETATM   13  C   UNK N   1      26.569  20.635   7.114  0.00  0.00     0.677 A 
HETATM   14  H   UNK N   1      26.001  20.856   9.106  0.00  0.00     0.174 HD
HETATM   15  H   UNK N   1      25.285  21.984   8.047  0.00  0.00     0.174 HD
ENDROOT
BRANCH   1  16
HETATM   16  C   UNK N   1      29.370  17.305   7.429  0.00  0.00     0.132 C 
BRANCH  16  17
HETATM   17  C   UNK N   1      30.846  17.508   7.731  0.00  0.00     0.029 C 
BRANCH  17  18
HETATM   18  C   UNK N   1      31.734  16.692   6.792  0.00  0.00     0.036 C 
BRANCH  18  19
HETATM   19  C   UNK N   1      33.115  17.331   6.604  0.00  0.00     0.185 C 
BRANCH  19  20
HETATM   20  O   UNK N   1      33.365  18.260   7.591  0.00  0.00    -0.321 OA
BRANCH  20  21
HETATM   21  C   UNK N   1      34.452  18.218   8.399  0.00  0.00     0.254 C 
HETATM   22  O   UNK N   1      35.223  19.165   8.415  0.00  0.00    -0.266 OA
HETATM   23  C   UNK N   1      34.724  17.045   9.289  0.00  0.00     0.126 C 
ENDBRANCH  20  21
ENDBRANCH  19  20
ENDBRANCH  18  19
BRANCH  18  24
HETATM   24  C   UNK N   1      31.879  15.311   7.410  0.00  0.00     0.185 C 
BRANCH  24  25
HETATM   25  O   UNK N   1      33.146  14.809   7.211  0.00  0.00    -0.321 OA
BRANCH  25  26
HETATM   26  C   UNK N   1      33.517  13.590   7.669  0.00  0.00     0.254 C 
HETATM   27  O   UNK N   1      32.744  12.644   7.636  0.00  0.00    -0.266 OA
HETATM   28  C   UNK N   1      34.882  13.404   8.233  0.00  0.00     0.126 C 
ENDBRANCH  25  26
ENDBRANCH  24  25
ENDBRANCH  18  24
ENDBRANCH  17  18
ENDBRANCH  16  17
ENDBRANCH   1  16
TORSDOF 9
ENDMDL
MODEL 6
REMARK VINA RESULT:      -5.6      1.654      4.540
REMARK  9 active torsions:
REMARK  status: ('A' for Active; 'I' for Inactive)
REMARK    1  A    between atoms: O_1  and  C_16 
REMARK    2  A    between atoms: O_1  and  C_22 
REMARK    3  A    between atoms: O_2  and  C_17 
REMARK    4  A    between atoms: O_2  and  C_23 
REMARK    5  A    between atoms: N_5  and  C_15 
REMARK       I    between atoms: N_12  and  C_24 
REMARK    6  A    between atoms: C_13  and  C_14 
REMARK    7  A    between atoms: C_13  and  C_16 
REMARK    8  A    between atoms: C_13  and  C_17 
REMARK    9  A    between atoms: C_14  and  C_15 
ROOT
HETATM    1  N   UNK N   1      28.954  18.096   6.470  0.00  0.00    -0.327 N 
HETATM    2  N   UNK N   1      28.684  18.721   4.329  0.00  0.00    -0.348 N 
ATOM      3  HN  UNK N   1      28.774  18.778   3.314  1.00  0.00     0.167 HD
HETATM    4  N   UNK N   1      27.399  19.665   7.437  0.00  0.00    -0.174 N 
ATOM      5  HN  UNK N   1      27.544  19.355   8.398  1.00  0.00     0.186 HD
HETATM    6  N   UNK N   1      26.344  21.081   5.843  0.00  0.00    -0.200 N 
ATOM      7  HN  UNK N   1      25.690  21.838   5.643  1.00  0.00     0.183 HD
HETATM    8  N   UNK N   1      25.802  21.296   8.182  0.00  0.00    -0.234 N 
HETATM    9  C   UNK N   1      28.066  19.090   6.411  0.00  0.00     0.152 A 
HETATM   10  C   UNK N   1      29.328  17.874   5.183  0.00  0.00     0.185 A 
HETATM   11  C   UNK N   1      27.902  19.469   5.130  0.00  0.00     0.094 A 
HETATM   12  C   UNK N   1      27.024  20.492   4.813  0.00  0.00     0.139 A 
HETATM   13  C   UNK N   1      26.524  20.674   7.145  0.00  0.00     0.677 A 
HETATM   14  H   UNK N   1      25.911  20.988   9.111  0.00  0.00     0.174 HD
HETATM   15  H   UNK N   1      25.189  22.039   7.979  0.00  0.00     0.174 HD
ENDROOT
BRANCH   1  16
HETATM   16  C   UNK N   1      29.397  17.438   7.693  0.00  0.00     0.132 C 
BRANCH  16  17
HETATM   17  C   UNK N   1      30.597  16.529   7.481  0.00  0.00     0.029 C 
BRANCH  17  18
HETATM   18  C   UNK N   1      31.732  16.848   8.453  0.00  0.00     0.036 C 
BRANCH  18  19
HETATM   19  C   UNK N   1      32.434  15.583   8.957  0.00  0.00     0.185 C 
BRANCH  19  20
HETATM   20  O   UNK N   1      33.764  15.832   9.224  0.00  0.00    -0.321 OA
BRANCH  20  21
HETATM   21  C   UNK N   1      34.331  15.641  10.440  0.00  0.00     0.254 C 
HETATM   22  O   UNK N   1      33.863  14.803  11.193  0.00  0.00    -0.266 OA
HETATM   23  C   UNK N   1      35.533  16.420  10.876  0.00  0.00     0.126 C 
ENDBRANCH  20  21
ENDBRANCH  19  20
ENDBRANCH  18  19
BRANCH  18  24
HETATM   24  C   UNK N   1      32.720  17.729   7.705  0.00  0.00     0.185 C 
BRANCH  24  25
HETATM   25  O   UNK N   1      32.582  17.582   6.343  0.00  0.00    -0.321 OA
BRANCH  25  26
HETATM   26  C   UNK N   1      33.553  17.031   5.576  0.00  0.00     0.254 C 
HETATM   27  O   UNK N   1      34.645  16.756   6.048  0.00  0.00    -0.266 OA
HETATM   28  C   UNK N   1      33.288  16.771   4.134  0.00  0.00     0.126 C 
ENDBRANCH  25  26
ENDBRANCH  24  25
ENDBRANCH  18  24
ENDBRANCH  17  18
ENDBRANCH  16  17
ENDBRANCH   1  16
TORSDOF 9
ENDMDL
MODEL 7
REMARK VINA RESULT:      -5.5     10.354     11.710
REMARK  9 active torsions:
REMARK  status: ('A' for Active; 'I' for Inactive)
REMARK    1  A    between atoms: O_1  and  C_16 
REMARK    2  A    between atoms: O_1  and  C_22 
REMARK    3  A    between atoms: O_2  and  C_17 
REMARK    4  A    between atoms: O_2  and  C_23 
REMARK    5  A    between atoms: N_5  and  C_15 
REMARK       I    between atoms: N_12  and  C_24 
REMARK    6  A    between atoms: C_13  and  C_14 
REMARK    7  A    between atoms: C_13  and  C_16 
REMARK    8  A    between atoms: C_13  and  C_17 
REMARK    9  A    between atoms: C_14  and  C_15 
ROOT
HETATM    1  N   UNK N   1      20.779  17.169   4.708  0.00  0.00    -0.327 N 
HETATM    2  N   UNK N   1      21.355  19.272   4.166  0.00  0.00    -0.348 N 
ATOM      3  HN  UNK N   1      21.703  20.230   4.223  1.00  0.00     0.167 HD
HETATM    4  N   UNK N   1      19.938  16.523   2.544  0.00  0.00    -0.174 N 
ATOM      5  HN  UNK N   1      19.691  15.573   2.823  1.00  0.00     0.186 HD
HETATM    6  N   UNK N   1      20.064  18.246   0.908  0.00  0.00    -0.200 N 
ATOM      7  HN  UNK N   1      19.897  18.558  -0.049  1.00  0.00     0.183 HD
HETATM    8  N   UNK N   1      19.165  16.090   0.312  0.00  0.00    -0.234 N 
HETATM    9  C   UNK N   1      20.487  17.388   3.426  0.00  0.00     0.152 A 
HETATM   10  C   UNK N   1      21.316  18.334   5.157  0.00  0.00     0.185 A 
HETATM   11  C   UNK N   1      20.828  18.647   3.096  0.00  0.00     0.094 A 
HETATM   12  C   UNK N   1      20.619  19.112   1.809  0.00  0.00     0.139 A 
HETATM   13  C   UNK N   1      19.727  16.961   1.265  0.00  0.00     0.677 A 
HETATM   14  H   UNK N   1      18.948  15.162   0.560  0.00  0.00     0.174 HD
HETATM   15  H   UNK N   1      18.989  16.409  -0.603  0.00  0.00     0.174 HD
ENDROOT
BRANCH   1  16
HETATM   16  C   UNK N   1      20.537  15.922   5.424  0.00  0.00     0.132 C 
BRANCH  16  17
HETATM   17  C   UNK N   1      21.669  15.544   6.366  0.00  0.00     0.029 C 
BRANCH  17  18
HETATM   18  C   UNK N   1      21.203  15.492   7.821  0.00  0.00     0.036 C 
BRANCH  18  19
HETATM   19  C   UNK N   1      19.962  16.359   8.062  0.00  0.00     0.185 C 
BRANCH  19  20
HETATM   20  O   UNK N   1      20.309  17.564   8.635  0.00  0.00    -0.321 OA
BRANCH  20  21
HETATM   21  C   UNK N   1      19.470  18.291   9.414  0.00  0.00     0.254 C 
HETATM   22  O   UNK N   1      19.868  19.331   9.913  0.00  0.00    -0.266 OA
HETATM   23  C   UNK N   1      18.059  17.859   9.662  0.00  0.00     0.126 C 
ENDBRANCH  20  21
ENDBRANCH  19  20
ENDBRANCH  18  19
BRANCH  18  24
HETATM   24  C   UNK N   1      20.890  14.037   8.133  0.00  0.00     0.185 C 
BRANCH  24  25
HETATM   25  O   UNK N   1      22.021  13.363   8.534  0.00  0.00    -0.321 OA
BRANCH  25  26
HETATM   26  C   UNK N   1      22.241  13.034   9.829  0.00  0.00     0.254 C 
HETATM   27  O   UNK N   1      23.364  13.080  10.307  0.00  0.00    -0.266 OA
HETATM   28  C   UNK N   1      21.099  12.596  10.678  0.00  0.00     0.126 C 
ENDBRANCH  25  26
ENDBRANCH  24  25
ENDBRANCH  18  24
ENDBRANCH  17  18
ENDBRANCH  16  17
ENDBRANCH   1  16
TORSDOF 9
ENDMDL
MODEL 8
REMARK VINA RESULT:      -5.4      9.718     11.936
REMARK  9 active torsions:
REMARK  status: ('A' for Active; 'I' for Inactive)
REMARK    1  A    between atoms: O_1  and  C_16 
REMARK    2  A    between atoms: O_1  and  C_22 
REMARK    3  A    between atoms: O_2  and  C_17 
REMARK    4  A    between atoms: O_2  and  C_23 
REMARK    5  A    between atoms: N_5  and  C_15 
REMARK       I    between atoms: N_12  and  C_24 
REMARK    6  A    between atoms: C_13  and  C_14 
REMARK    7  A    between atoms: C_13  and  C_16 
REMARK    8  A    between atoms: C_13  and  C_17 
REMARK    9  A    between atoms: C_14  and  C_15 
ROOT
HETATM    1  N   UNK N   1      23.157  13.552   8.332  0.00  0.00    -0.327 N 
HETATM    2  N   UNK N   1      25.015  12.946   9.440  0.00  0.00    -0.348 N 
ATOM      3  HN  UNK N   1      25.994  12.793   9.687  1.00  0.00     0.167 HD
HETATM    4  N   UNK N   1      21.567  12.785   9.972  0.00  0.00    -0.174 N 
ATOM      5  HN  UNK N   1      20.745  13.075   9.443  1.00  0.00     0.186 HD
HETATM    6  N   UNK N   1      22.565  11.795  11.891  0.00  0.00    -0.200 N 
ATOM      7  HN  UNK N   1      22.456  11.344  12.800  1.00  0.00     0.183 HD
HETATM    8  N   UNK N   1      20.165  11.961  11.739  0.00  0.00    -0.234 N 
HETATM    9  C   UNK N   1      22.814  12.985   9.488  0.00  0.00     0.152 A 
HETATM   10  C   UNK N   1      24.516  13.526   8.311  0.00  0.00     0.185 A 
HETATM   11  C   UNK N   1      23.923  12.618  10.156  0.00  0.00     0.094 A 
HETATM   12  C   UNK N   1      23.821  12.002  11.392  0.00  0.00     0.139 A 
HETATM   13  C   UNK N   1      21.445  12.183  11.194  0.00  0.00     0.677 A 
HETATM   14  H   UNK N   1      19.364  12.262  11.253  0.00  0.00     0.174 HD
HETATM   15  H   UNK N   1      20.072  11.507  12.607  0.00  0.00     0.174 HD
ENDROOT
BRANCH   1  16
HETATM   16  C   UNK N   1      22.223  14.062   7.335  0.00  0.00     0.132 C 
BRANCH  16  17
HETATM   17  C   UNK N   1      22.627  15.416   6.775  0.00  0.00     0.029 C 
BRANCH  17  18
HETATM   18  C   UNK N   1      21.412  16.239   6.347  0.00  0.00     0.036 C 
BRANCH  18  19
HETATM   19  C   UNK N   1      21.548  16.767   4.914  0.00  0.00     0.185 C 
BRANCH  19  20
HETATM   20  O   UNK N   1      20.399  17.419   4.520  0.00  0.00    -0.321 OA
BRANCH  20  21
HETATM   21  C   UNK N   1      19.956  17.446   3.239  0.00  0.00     0.254 C 
HETATM   22  O   UNK N   1      19.304  18.402   2.852  0.00  0.00    -0.266 OA
HETATM   23  C   UNK N   1      20.263  16.339   2.279  0.00  0.00     0.126 C 
ENDBRANCH  20  21
ENDBRANCH  19  20
ENDBRANCH  18  19
BRANCH  18  24
HETATM   24  C   UNK N   1      20.201  15.327   6.454  0.00  0.00     0.185 C 
BRANCH  24  25
HETATM   25  O   UNK N   1      19.203  15.915   7.198  0.00  0.00    -0.321 OA
BRANCH  25  26
HETATM   26  C   UNK N   1      19.331  16.130   8.529  0.00  0.00     0.254 C 
HETATM   27  O   UNK N   1      19.508  15.201   9.302  0.00  0.00    -0.266 OA
HETATM   28  C   UNK N   1      19.240  17.519   9.058  0.00  0.00     0.126 C 
ENDBRANCH  25  26
ENDBRANCH  24  25
ENDBRANCH  18  24
ENDBRANCH  17  18
ENDBRANCH  16  17
ENDBRANCH   1  16
TORSDOF 9
ENDMDL
MODEL 9
REMARK VINA RESULT:      -5.4      9.448     11.681
REMARK  9 active torsions:
REMARK  status: ('A' for Active; 'I' for Inactive)
REMARK    1  A    between atoms: O_1  and  C_16 
REMARK    2  A    between atoms: O_1  and  C_22 
REMARK    3  A    between atoms: O_2  and  C_17 
REMARK    4  A    between atoms: O_2  and  C_23 
REMARK    5  A    between atoms: N_5  and  C_15 
REMARK       I    between atoms: N_12  and  C_24 
REMARK    6  A    between atoms: C_13  and  C_14 
REMARK    7  A    between atoms: C_13  and  C_16 
REMARK    8  A    between atoms: C_13  and  C_17 
REMARK    9  A    between atoms: C_14  and  C_15 
ROOT
HETATM    1  N   UNK N   1      23.016  18.926   4.208  0.00  0.00    -0.327 N 
HETATM    2  N   UNK N   1      23.587  20.586   2.805  0.00  0.00    -0.348 N 
ATOM      3  HN  UNK N   1      24.115  21.318   2.329  1.00  0.00     0.167 HD
HETATM    4  N   UNK N   1      20.772  18.602   3.390  0.00  0.00    -0.174 N 
ATOM      5  HN  UNK N   1      20.547  17.849   4.040  1.00  0.00     0.186 HD
HETATM    6  N   UNK N   1      20.178  20.058   1.605  0.00  0.00    -0.200 N 
ATOM      7  HN  UNK N   1      19.483  20.375   0.929  1.00  0.00     0.183 HD
HETATM    8  N   UNK N   1      18.584  18.441   2.414  0.00  0.00    -0.234 N 
HETATM    9  C   UNK N   1      21.986  19.198   3.407  0.00  0.00     0.152 A 
HETATM   10  C   UNK N   1      24.000  19.785   3.830  0.00  0.00     0.185 A 
HETATM   11  C   UNK N   1      22.322  20.193   2.565  0.00  0.00     0.094 A 
HETATM   12  C   UNK N   1      21.409  20.654   1.632  0.00  0.00     0.139 A 
HETATM   13  C   UNK N   1      19.858  19.039   2.472  0.00  0.00     0.677 A 
HETATM   14  H   UNK N   1      18.363  17.694   3.016  0.00  0.00     0.174 HD
HETATM   15  H   UNK N   1      17.915  18.769   1.771  0.00  0.00     0.174 HD
ENDROOT
BRANCH   1  16
HETATM   16  C   UNK N   1      23.019  17.917   5.260  0.00  0.00     0.132 C 
BRANCH  16  17
HETATM   17  C   UNK N   1      23.225  16.506   4.733  0.00  0.00     0.029 C 
BRANCH  17  18
HETATM   18  C   UNK N   1      22.142  15.549   5.233  0.00  0.00     0.036 C 
BRANCH  18  19
HETATM   19  C   UNK N   1      21.146  16.242   6.169  0.00  0.00     0.185 C 
BRANCH  19  20
HETATM   20  O   UNK N   1      21.304  15.804   7.466  0.00  0.00    -0.321 OA
BRANCH  20  21
HETATM   21  C   UNK N   1      20.281  15.350   8.232  0.00  0.00     0.254 C 
HETATM   22  O   UNK N   1      20.138  14.148   8.386  0.00  0.00    -0.266 OA
HETATM   23  C   UNK N   1      19.332  16.288   8.910  0.00  0.00     0.126 C 
ENDBRANCH  20  21
ENDBRANCH  19  20
ENDBRANCH  18  19
BRANCH  18  24
HETATM   24  C   UNK N   1      21.421  15.018   4.005  0.00  0.00     0.185 C 
BRANCH  24  25
HETATM   25  O   UNK N   1      21.791  15.710   2.874  0.00  0.00    -0.321 OA
BRANCH  25  26
HETATM   26  C   UNK N   1      21.264  15.435   1.658  0.00  0.00     0.254 C 
HETATM   27  O   UNK N   1      20.369  16.124   1.191  0.00  0.00    -0.266 OA
HETATM   28  C   UNK N   1      21.774  14.269   0.885  0.00  0.00     0.126 C 
ENDBRANCH  25  26
ENDBRANCH  24  25
ENDBRANCH  18  24
ENDBRANCH  17  18
ENDBRANCH  16  17
ENDBRANCH   1  16
TORSDOF 9
ENDMDL
