MODEL 1
REMARK VINA RESULT:      -6.1      0.000      0.000
REMARK  8 active torsions:
REMARK  status: ('A' for Active; 'I' for Inactive)
REMARK    1  A    between atoms: C_13  and  O_2 
REMARK    2  A    between atoms: C_15  and  O_3 
REMARK    3  A    between atoms: C_17  and  O_4 
REMARK    4  A    between atoms: O_5  and  C_18 
REMARK    5  A    between atoms: O_7  and  N_11 
REMARK    6  A    between atoms: C_14  and  N_9 
REMARK       I    between atoms: N_9  and  C_19 
REMARK    7  A    between atoms: N_10  and  N_11 
REMARK       I    between atoms: N_10  and  C_19 
REMARK    8  A    between atoms: C_16  and  C_18 
ROOT
HETATM    1  O   UNK N   1      37.520  13.157  11.764  0.00  0.00    -0.349 OA
HETATM    2  C   UNK N   1      34.799  13.704  11.209  0.00  0.00     0.177 C 
HETATM    3  C   UNK N   1      35.935  14.634  10.760  0.00  0.00     0.172 C 
HETATM    4  C   UNK N   1      35.226  12.839  12.395  0.00  0.00     0.180 C 
HETATM    5  C   UNK N   1      36.568  12.169  12.071  0.00  0.00     0.179 C 
HETATM    6  C   UNK N   1      37.158  13.719  10.527  0.00  0.00     0.282 C 
ENDROOT
BRANCH   3   7
HETATM    7  N   UNK N   1      35.476  15.374   9.594  0.00  0.00    -0.330 N 
HETATM    8  C   UNK N   1      35.256  16.719   9.541  0.00  0.00     0.338 C 
HETATM    9  O   UNK N   1      35.546  17.431  10.489  0.00  0.00    -0.245 OA
HETATM   10  N   UNK N   1      34.676  17.269   8.439  0.00  0.00    -0.228 N 
HETATM   11  C   UNK N   1      34.239  16.430   7.345  0.00  0.00     0.185 C 
HETATM   12  H   UNK N   1      35.312  14.860   8.772  0.00  0.00     0.165 HD
BRANCH  10  13
HETATM   13  N   UNK N   1      34.457  18.632   8.393  0.00  0.00    -0.204 N 
ATOM     14  HN  UNK N   1      33.514  18.984   8.230  1.00  0.00     0.216 HD
BRANCH  13  15
HETATM   15  O   UNK N   1      35.357  19.403   8.542  0.00  0.00    -0.274 OA
ATOM     16  HO  UNK N   1      35.189  20.326   8.698  1.00  0.00     0.246 HD
ENDBRANCH  13  15
ENDBRANCH  10  13
ENDBRANCH   3   7
BRANCH   2  17
HETATM   17  O   UNK N   1      33.657  14.438  11.535  0.00  0.00    -0.391 OA
HETATM   18  H   UNK N   1      32.739  14.126  11.522  0.00  0.00     0.210 HD
ENDBRANCH   2  17
BRANCH   6  19
HETATM   19  O   UNK N   1      38.259  14.407  10.024  0.00  0.00    -0.369 OA
HETATM   20  H   UNK N   1      39.147  14.020  10.076  0.00  0.00     0.212 HD
ENDBRANCH   6  19
BRANCH   4  21
HETATM   21  O   UNK N   1      34.250  11.870  12.640  0.00  0.00    -0.390 OA
HETATM   22  H   UNK N   1      33.984  11.174  12.019  0.00  0.00     0.210 HD
ENDBRANCH   4  21
BRANCH   5  23
HETATM   23  C   UNK N   1      37.047  11.383  13.283  0.00  0.00     0.198 C 
BRANCH  23  24
HETATM   24  O   UNK N   1      38.021  12.106  13.974  0.00  0.00    -0.398 OA
HETATM   25  H   UNK N   1      38.074  13.073  13.960  0.00  0.00     0.209 HD
ENDBRANCH  23  24
ENDBRANCH   5  23
TORSDOF 8
ENDMDL
MODEL 2
REMARK VINA RESULT:      -5.9      3.771      5.125
REMARK  8 active torsions:
REMARK  status: ('A' for Active; 'I' for Inactive)
REMARK    1  A    between atoms: C_13  and  O_2 
REMARK    2  A    between atoms: C_15  and  O_3 
REMARK    3  A    between atoms: C_17  and  O_4 
REMARK    4  A    between atoms: O_5  and  C_18 
REMARK    5  A    between atoms: O_7  and  N_11 
REMARK    6  A    between atoms: C_14  and  N_9 
REMARK       I    between atoms: N_9  and  C_19 
REMARK    7  A    between atoms: N_10  and  N_11 
REMARK       I    between atoms: N_10  and  C_19 
REMARK    8  A    between atoms: C_16  and  C_18 
ROOT
HETATM    1  O   UNK N   1      34.939  16.800   8.948  0.00  0.00    -0.349 OA
HETATM    2  C   UNK N   1      32.534  15.388   9.429  0.00  0.00     0.177 C 
HETATM    3  C   UNK N   1      32.552  16.824   8.888  0.00  0.00     0.172 C 
HETATM    4  C   UNK N   1      33.829  15.057  10.170  0.00  0.00     0.180 C 
HETATM    5  C   UNK N   1      35.025  15.438   9.287  0.00  0.00     0.179 C 
HETATM    6  C   UNK N   1      33.854  16.945   8.066  0.00  0.00     0.282 C 
ENDROOT
BRANCH   3   7
HETATM    7  N   UNK N   1      31.320  17.041   8.145  0.00  0.00    -0.330 N 
HETATM    8  C   UNK N   1      30.266  17.803   8.555  0.00  0.00     0.338 C 
HETATM    9  O   UNK N   1      30.342  18.466   9.578  0.00  0.00    -0.245 OA
HETATM   10  N   UNK N   1      29.106  17.799   7.841  0.00  0.00    -0.228 N 
HETATM   11  C   UNK N   1      28.963  16.947   6.681  0.00  0.00     0.185 C 
HETATM   12  H   UNK N   1      31.240  16.600   7.269  0.00  0.00     0.165 HD
BRANCH  10  13
HETATM   13  N   UNK N   1      28.044  18.574   8.264  0.00  0.00    -0.204 N 
ATOM     14  HN  UNK N   1      27.755  19.378   7.707  1.00  0.00     0.216 HD
BRANCH  13  15
HETATM   15  O   UNK N   1      27.457  18.314   9.272  0.00  0.00    -0.274 OA
ATOM     16  HO  UNK N   1      27.443  18.925  10.000  1.00  0.00     0.246 HD
ENDBRANCH  13  15
ENDBRANCH  10  13
ENDBRANCH   3   7
BRANCH   2  17
HETATM   17  O   UNK N   1      31.435  15.187  10.266  0.00  0.00    -0.391 OA
HETATM   18  H   UNK N   1      31.377  14.578  11.019  0.00  0.00     0.210 HD
ENDBRANCH   2  17
BRANCH   6  19
HETATM   19  O   UNK N   1      33.976  18.177   7.427  0.00  0.00    -0.369 OA
HETATM   20  H   UNK N   1      33.294  18.858   7.536  0.00  0.00     0.212 HD
ENDBRANCH   6  19
BRANCH   4  21
HETATM   21  O   UNK N   1      33.862  13.692  10.464  0.00  0.00    -0.390 OA
HETATM   22  H   UNK N   1      34.241  13.300  11.266  0.00  0.00     0.210 HD
ENDBRANCH   4  21
BRANCH   5  23
HETATM   23  C   UNK N   1      36.317  15.202  10.055  0.00  0.00     0.198 C 
BRANCH  23  24
HETATM   24  O   UNK N   1      36.678  16.352  10.759  0.00  0.00    -0.398 OA
HETATM   25  H   UNK N   1      37.431  16.388  11.368  0.00  0.00     0.209 HD
ENDBRANCH  23  24
ENDBRANCH   5  23
TORSDOF 8
ENDMDL
MODEL 3
REMARK VINA RESULT:      -5.8     12.084     14.750
REMARK  8 active torsions:
REMARK  status: ('A' for Active; 'I' for Inactive)
REMARK    1  A    between atoms: C_13  and  O_2 
REMARK    2  A    between atoms: C_15  and  O_3 
REMARK    3  A    between atoms: C_17  and  O_4 
REMARK    4  A    between atoms: O_5  and  C_18 
REMARK    5  A    between atoms: O_7  and  N_11 
REMARK    6  A    between atoms: C_14  and  N_9 
REMARK       I    between atoms: N_9  and  C_19 
REMARK    7  A    between atoms: N_10  and  N_11 
REMARK       I    between atoms: N_10  and  C_19 
REMARK    8  A    between atoms: C_16  and  C_18 
ROOT
HETATM    1  O   UNK N   1      26.482  20.309   3.619  0.00  0.00    -0.349 OA
HETATM    2  C   UNK N   1      24.654  18.423   4.674  0.00  0.00     0.177 C 
HETATM    3  C   UNK N   1      24.204  19.627   3.834  0.00  0.00     0.172 C 
HETATM    4  C   UNK N   1      26.021  18.671   5.313  0.00  0.00     0.180 C 
HETATM    5  C   UNK N   1      27.000  19.155   4.234  0.00  0.00     0.179 C 
HETATM    6  C   UNK N   1      25.367  19.915   2.859  0.00  0.00     0.282 C 
ENDROOT
BRANCH   3   7
HETATM    7  N   UNK N   1      22.933  19.290   3.211  0.00  0.00    -0.330 N 
HETATM    8  C   UNK N   1      22.061  20.177   2.653  0.00  0.00     0.338 C 
HETATM    9  O   UNK N   1      22.360  21.356   2.546  0.00  0.00    -0.245 OA
HETATM   10  N   UNK N   1      20.832  19.755   2.243  0.00  0.00    -0.228 N 
HETATM   11  C   UNK N   1      20.423  18.383   2.449  0.00  0.00     0.185 C 
HETATM   12  H   UNK N   1      22.681  18.339   3.190  0.00  0.00     0.165 HD
BRANCH  10  13
HETATM   13  N   UNK N   1      19.954  20.660   1.679  0.00  0.00    -0.204 N 
ATOM     14  HN  UNK N   1      19.075  20.868   2.150  1.00  0.00     0.216 HD
BRANCH  13  15
HETATM   15  O   UNK N   1      20.213  21.203   0.646  0.00  0.00    -0.274 OA
ATOM     16  HO  UNK N   1      19.888  20.862  -0.179  1.00  0.00     0.246 HD
ENDBRANCH  13  15
ENDBRANCH  10  13
ENDBRANCH   3   7
BRANCH   2  17
HETATM   17  O   UNK N   1      23.710  18.123   5.658  0.00  0.00    -0.391 OA
HETATM   18  H   UNK N   1      23.510  17.250   6.028  0.00  0.00     0.210 HD
ENDBRANCH   2  17
BRANCH   6  19
HETATM   19  O   UNK N   1      25.074  20.935   1.958  0.00  0.00    -0.369 OA
HETATM   20  H   UNK N   1      24.251  20.917   1.444  0.00  0.00     0.212 HD
ENDBRANCH   6  19
BRANCH   4  21
HETATM   21  O   UNK N   1      26.487  17.489   5.891  0.00  0.00    -0.390 OA
HETATM   22  H   UNK N   1      26.770  17.390   6.814  0.00  0.00     0.210 HD
ENDBRANCH   4  21
BRANCH   5  23
HETATM   23  C   UNK N   1      28.335  19.497   4.879  0.00  0.00     0.198 C 
BRANCH  23  24
HETATM   24  O   UNK N   1      29.264  18.486   4.631  0.00  0.00    -0.398 OA
HETATM   25  H   UNK N   1      30.048  18.610   4.074  0.00  0.00     0.209 HD
ENDBRANCH  23  24
ENDBRANCH   5  23
TORSDOF 8
ENDMDL
MODEL 4
REMARK VINA RESULT:      -5.6      3.446      4.612
REMARK  8 active torsions:
REMARK  status: ('A' for Active; 'I' for Inactive)
REMARK    1  A    between atoms: C_13  and  O_2 
REMARK    2  A    between atoms: C_15  and  O_3 
REMARK    3  A    between atoms: C_17  and  O_4 
REMARK    4  A    between atoms: O_5  and  C_18 
REMARK    5  A    between atoms: O_7  and  N_11 
REMARK    6  A    between atoms: C_14  and  N_9 
REMARK       I    between atoms: N_9  and  C_19 
REMARK    7  A    between atoms: N_10  and  N_11 
REMARK       I    between atoms: N_10  and  C_19 
REMARK    8  A    between atoms: C_16  and  C_18 
ROOT
HETATM    1  O   UNK N   1      35.879  15.401   8.368  0.00  0.00    -0.349 OA
HETATM    2  C   UNK N   1      33.138  15.716   8.999  0.00  0.00     0.177 C 
HETATM    3  C   UNK N   1      33.735  16.181   7.663  0.00  0.00     0.172 C 
HETATM    4  C   UNK N   1      34.213  15.615  10.083  0.00  0.00     0.180 C 
HETATM    5  C   UNK N   1      35.395  14.799   9.543  0.00  0.00     0.179 C 
HETATM    6  C   UNK N   1      34.906  15.217   7.370  0.00  0.00     0.282 C 
ENDROOT
BRANCH   3   7
HETATM    7  N   UNK N   1      32.668  16.190   6.673  0.00  0.00    -0.330 N 
HETATM    8  C   UNK N   1      32.613  16.991   5.571  0.00  0.00     0.338 C 
HETATM    9  O   UNK N   1      33.555  17.711   5.281  0.00  0.00    -0.245 OA
HETATM   10  N   UNK N   1      31.486  17.017   4.806  0.00  0.00    -0.228 N 
HETATM   11  C   UNK N   1      30.325  16.243   5.188  0.00  0.00     0.185 C 
HETATM   12  H   UNK N   1      31.923  15.563   6.811  0.00  0.00     0.165 HD
BRANCH  10  13
HETATM   13  N   UNK N   1      31.438  17.830   3.691  0.00  0.00    -0.204 N 
ATOM     14  HN  UNK N   1      30.971  18.734   3.749  1.00  0.00     0.216 HD
BRANCH  13  15
HETATM   15  O   UNK N   1      31.937  17.488   2.661  0.00  0.00    -0.274 OA
ATOM     16  HO  UNK N   1      31.505  16.858   2.095  1.00  0.00     0.246 HD
ENDBRANCH  13  15
ENDBRANCH  10  13
ENDBRANCH   3   7
BRANCH   2  17
HETATM   17  O   UNK N   1      32.117  16.574   9.412  0.00  0.00    -0.391 OA
HETATM   18  H   UNK N   1      32.066  17.532   9.269  0.00  0.00     0.210 HD
ENDBRANCH   2  17
BRANCH   6  19
HETATM   19  O   UNK N   1      35.502  15.453   6.134  0.00  0.00    -0.369 OA
HETATM   20  H   UNK N   1      35.936  16.301   5.950  0.00  0.00     0.212 HD
ENDBRANCH   6  19
BRANCH   4  21
HETATM   21  O   UNK N   1      33.676  14.996  11.214  0.00  0.00    -0.390 OA
HETATM   22  H   UNK N   1      33.062  15.409  11.840  0.00  0.00     0.210 HD
ENDBRANCH   4  21
BRANCH   5  23
HETATM   23  C   UNK N   1      36.509  14.776  10.579  0.00  0.00     0.198 C 
BRANCH  23  24
HETATM   24  O   UNK N   1      36.816  16.074  10.988  0.00  0.00    -0.398 OA
HETATM   25  H   UNK N   1      36.450  16.480  11.788  0.00  0.00     0.209 HD
ENDBRANCH  23  24
ENDBRANCH   5  23
TORSDOF 8
ENDMDL
MODEL 5
REMARK VINA RESULT:      -5.6      3.115      4.276
REMARK  8 active torsions:
REMARK  status: ('A' for Active; 'I' for Inactive)
REMARK    1  A    between atoms: C_13  and  O_2 
REMARK    2  A    between atoms: C_15  and  O_3 
REMARK    3  A    between atoms: C_17  and  O_4 
REMARK    4  A    between atoms: O_5  and  C_18 
REMARK    5  A    between atoms: O_7  and  N_11 
REMARK    6  A    between atoms: C_14  and  N_9 
REMARK       I    between atoms: N_9  and  C_19 
REMARK    7  A    between atoms: N_10  and  N_11 
REMARK       I    between atoms: N_10  and  C_19 
REMARK    8  A    between atoms: C_16  and  C_18 
ROOT
HETATM    1  O   UNK N   1      34.668  13.596   9.628  0.00  0.00    -0.349 OA
HETATM    2  C   UNK N   1      34.708  16.411   9.916  0.00  0.00     0.177 C 
HETATM    3  C   UNK N   1      33.636  15.682   9.094  0.00  0.00     0.172 C 
HETATM    4  C   UNK N   1      35.974  15.565  10.054  0.00  0.00     0.180 C 
HETATM    5  C   UNK N   1      35.588  14.158  10.530  0.00  0.00     0.179 C 
HETATM    6  C   UNK N   1      33.460  14.302   9.766  0.00  0.00     0.282 C 
ENDROOT
BRANCH   3   7
HETATM    7  N   UNK N   1      32.446  16.520   9.062  0.00  0.00    -0.330 N 
HETATM    8  C   UNK N   1      31.482  16.496   8.099  0.00  0.00     0.338 C 
HETATM    9  O   UNK N   1      31.510  15.655   7.215  0.00  0.00    -0.245 OA
HETATM   10  N   UNK N   1      30.499  17.439   8.098  0.00  0.00    -0.228 N 
HETATM   11  C   UNK N   1      30.503  18.501   9.080  0.00  0.00     0.185 C 
HETATM   12  H   UNK N   1      32.327  17.158   9.801  0.00  0.00     0.165 HD
BRANCH  10  13
HETATM   13  N   UNK N   1      29.526  17.408   7.119  0.00  0.00    -0.204 N 
ATOM     14  HN  UNK N   1      28.553  17.250   7.382  1.00  0.00     0.216 HD
BRANCH  13  15
HETATM   15  O   UNK N   1      29.808  17.566   5.969  0.00  0.00    -0.274 OA
ATOM     16  HO  UNK N   1      30.713  17.547   5.681  1.00  0.00     0.246 HD
ENDBRANCH  13  15
ENDBRANCH  10  13
ENDBRANCH   3   7
BRANCH   2  17
HETATM   17  O   UNK N   1      35.015  17.647   9.345  0.00  0.00    -0.391 OA
HETATM   18  H   UNK N   1      35.898  18.026   9.212  0.00  0.00     0.210 HD
ENDBRANCH   2  17
BRANCH   6  19
HETATM   19  O   UNK N   1      32.446  13.545   9.184  0.00  0.00    -0.369 OA
HETATM   20  H   UNK N   1      32.404  13.435   8.221  0.00  0.00     0.212 HD
ENDBRANCH   6  19
BRANCH   4  21
HETATM   21  O   UNK N   1      36.838  16.165  10.973  0.00  0.00    -0.390 OA
HETATM   22  H   UNK N   1      37.695  16.563  10.757  0.00  0.00     0.210 HD
ENDBRANCH   4  21
BRANCH   5  23
HETATM   23  C   UNK N   1      36.830  13.281  10.577  0.00  0.00     0.198 C 
BRANCH  23  24
HETATM   24  O   UNK N   1      37.553  13.528  11.745  0.00  0.00    -0.398 OA
HETATM   25  H   UNK N   1      38.521  13.569  11.772  0.00  0.00     0.209 HD
ENDBRANCH  23  24
ENDBRANCH   5  23
TORSDOF 8
ENDMDL
MODEL 6
REMARK VINA RESULT:      -5.6      2.437      6.267
REMARK  8 active torsions:
REMARK  status: ('A' for Active; 'I' for Inactive)
REMARK    1  A    between atoms: C_13  and  O_2 
REMARK    2  A    between atoms: C_15  and  O_3 
REMARK    3  A    between atoms: C_17  and  O_4 
REMARK    4  A    between atoms: O_5  and  C_18 
REMARK    5  A    between atoms: O_7  and  N_11 
REMARK    6  A    between atoms: C_14  and  N_9 
REMARK       I    between atoms: N_9  and  C_19 
REMARK    7  A    between atoms: N_10  and  N_11 
REMARK       I    between atoms: N_10  and  C_19 
REMARK    8  A    between atoms: C_16  and  C_18 
ROOT
HETATM    1  O   UNK N   1      32.296  15.504   8.943  0.00  0.00    -0.349 OA
HETATM    2  C   UNK N   1      34.872  16.510   9.544  0.00  0.00     0.177 C 
HETATM    3  C   UNK N   1      34.334  15.207  10.153  0.00  0.00     0.172 C 
HETATM    4  C   UNK N   1      33.734  17.421   9.084  0.00  0.00     0.180 C 
HETATM    5  C   UNK N   1      32.763  16.612   8.214  0.00  0.00     0.179 C 
HETATM    6  C   UNK N   1      33.376  14.616   9.095  0.00  0.00     0.282 C 
ENDROOT
BRANCH   3   7
HETATM    7  N   UNK N   1      35.471  14.371  10.505  0.00  0.00    -0.330 N 
HETATM    8  C   UNK N   1      35.742  13.877  11.746  0.00  0.00     0.338 C 
HETATM    9  O   UNK N   1      34.948  14.032  12.661  0.00  0.00    -0.245 OA
HETATM   10  N   UNK N   1      36.922  13.239  11.981  0.00  0.00    -0.228 N 
HETATM   11  C   UNK N   1      37.916  13.130  10.936  0.00  0.00     0.185 C 
HETATM   12  H   UNK N   1      36.099  14.140   9.783  0.00  0.00     0.165 HD
BRANCH  10  13
HETATM   13  N   UNK N   1      37.189  12.741  13.241  0.00  0.00    -0.204 N 
ATOM     14  HN  UNK N   1      37.375  11.746  13.360  1.00  0.00     0.216 HD
BRANCH  13  15
HETATM   15  O   UNK N   1      37.205  13.462  14.195  0.00  0.00    -0.274 OA
ATOM     16  HO  UNK N   1      36.848  14.341  14.148  1.00  0.00     0.246 HD
ENDBRANCH  13  15
ENDBRANCH  10  13
ENDBRANCH   3   7
BRANCH   2  17
HETATM   17  O   UNK N   1      35.690  17.182  10.454  0.00  0.00    -0.391 OA
HETATM   18  H   UNK N   1      35.879  18.133  10.478  0.00  0.00     0.210 HD
ENDBRANCH   2  17
BRANCH   6  19
HETATM   19  O   UNK N   1      32.867  13.373   9.463  0.00  0.00    -0.369 OA
HETATM   20  H   UNK N   1      33.448  12.598   9.512  0.00  0.00     0.212 HD
ENDBRANCH   6  19
BRANCH   4  21
HETATM   21  O   UNK N   1      34.259  18.490   8.355  0.00  0.00    -0.390 OA
HETATM   22  H   UNK N   1      34.790  19.213   8.723  0.00  0.00     0.210 HD
ENDBRANCH   4  21
BRANCH   5  23
HETATM   23  C   UNK N   1      31.577  17.486   7.833  0.00  0.00     0.198 C 
BRANCH  23  24
HETATM   24  O   UNK N   1      31.199  18.286   8.912  0.00  0.00    -0.398 OA
HETATM   25  H   UNK N   1      31.833  18.775   9.459  0.00  0.00     0.209 HD
ENDBRANCH  23  24
ENDBRANCH   5  23
TORSDOF 8
ENDMDL
MODEL 7
REMARK VINA RESULT:      -5.6     16.392     19.818
REMARK  8 active torsions:
REMARK  status: ('A' for Active; 'I' for Inactive)
REMARK    1  A    between atoms: C_13  and  O_2 
REMARK    2  A    between atoms: C_15  and  O_3 
REMARK    3  A    between atoms: C_17  and  O_4 
REMARK    4  A    between atoms: O_5  and  C_18 
REMARK    5  A    between atoms: O_7  and  N_11 
REMARK    6  A    between atoms: C_14  and  N_9 
REMARK       I    between atoms: N_9  and  C_19 
REMARK    7  A    between atoms: N_10  and  N_11 
REMARK       I    between atoms: N_10  and  C_19 
REMARK    8  A    between atoms: C_16  and  C_18 
ROOT
HETATM    1  O   UNK N   1      26.511  25.749  -3.034  0.00  0.00    -0.349 OA
HETATM    2  C   UNK N   1      28.682  25.881  -4.844  0.00  0.00     0.177 C 
HETATM    3  C   UNK N   1      28.600  24.827  -3.731  0.00  0.00     0.172 C 
HETATM    4  C   UNK N   1      27.826  27.105  -4.516  0.00  0.00     0.180 C 
HETATM    5  C   UNK N   1      26.419  26.641  -4.117  0.00  0.00     0.179 C 
HETATM    6  C   UNK N   1      27.093  24.563  -3.514  0.00  0.00     0.282 C 
ENDROOT
BRANCH   3   7
HETATM    7  N   UNK N   1      29.385  23.673  -4.144  0.00  0.00    -0.330 N 
HETATM    8  C   UNK N   1      30.041  22.817  -3.311  0.00  0.00     0.338 C 
HETATM    9  O   UNK N   1      29.916  22.914  -2.100  0.00  0.00    -0.245 OA
HETATM   10  N   UNK N   1      30.871  21.868  -3.827  0.00  0.00    -0.228 N 
HETATM   11  C   UNK N   1      31.106  21.799  -5.253  0.00  0.00     0.185 C 
HETATM   12  H   UNK N   1      29.446  23.495  -5.110  0.00  0.00     0.165 HD
BRANCH  10  13
HETATM   13  N   UNK N   1      31.531  21.005  -2.976  0.00  0.00    -0.204 N 
ATOM     14  HN  UNK N   1      31.348  20.004  -3.035  1.00  0.00     0.216 HD
BRANCH  13  15
HETATM   15  O   UNK N   1      32.316  21.415  -2.174  0.00  0.00    -0.274 OA
ATOM     16  HO  UNK N   1      32.982  22.046  -2.420  1.00  0.00     0.246 HD
ENDBRANCH  13  15
ENDBRANCH  10  13
ENDBRANCH   3   7
BRANCH   2  17
HETATM   17  O   UNK N   1      30.005  26.264  -5.068  0.00  0.00    -0.391 OA
HETATM   18  H   UNK N   1      30.615  26.661  -4.426  0.00  0.00     0.210 HD
ENDBRANCH   2  17
BRANCH   6  19
HETATM   19  O   UNK N   1      26.850  23.554  -2.587  0.00  0.00    -0.369 OA
HETATM   20  H   UNK N   1      27.157  22.648  -2.753  0.00  0.00     0.212 HD
ENDBRANCH   6  19
BRANCH   4  21
HETATM   21  O   UNK N   1      27.761  27.941  -5.632  0.00  0.00    -0.390 OA
HETATM   22  H   UNK N   1      28.376  27.924  -6.381  0.00  0.00     0.210 HD
ENDBRANCH   4  21
BRANCH   5  23
HETATM   23  C   UNK N   1      25.590  27.845  -3.695  0.00  0.00     0.198 C 
BRANCH  23  24
HETATM   24  O   UNK N   1      26.371  28.735  -2.957  0.00  0.00    -0.398 OA
HETATM   25  H   UNK N   1      26.182  28.971  -2.036  0.00  0.00     0.209 HD
ENDBRANCH  23  24
ENDBRANCH   5  23
TORSDOF 8
ENDMDL
MODEL 8
REMARK VINA RESULT:      -5.6     12.675     14.181
REMARK  8 active torsions:
REMARK  status: ('A' for Active; 'I' for Inactive)
REMARK    1  A    between atoms: C_13  and  O_2 
REMARK    2  A    between atoms: C_15  and  O_3 
REMARK    3  A    between atoms: C_17  and  O_4 
REMARK    4  A    between atoms: O_5  and  C_18 
REMARK    5  A    between atoms: O_7  and  N_11 
REMARK    6  A    between atoms: C_14  and  N_9 
REMARK       I    between atoms: N_9  and  C_19 
REMARK    7  A    between atoms: N_10  and  N_11 
REMARK       I    between atoms: N_10  and  C_19 
REMARK    8  A    between atoms: C_16  and  C_18 
ROOT
HETATM    1  O   UNK N   1      21.645  12.214  11.210  0.00  0.00    -0.349 OA
HETATM    2  C   UNK N   1      23.701  13.065   9.461  0.00  0.00     0.177 C 
HETATM    3  C   UNK N   1      22.250  12.877   8.997  0.00  0.00     0.172 C 
HETATM    4  C   UNK N   1      23.994  12.244  10.716  0.00  0.00     0.180 C 
HETATM    5  C   UNK N   1      22.903  12.515  11.761  0.00  0.00     0.179 C 
HETATM    6  C   UNK N   1      21.372  13.185  10.231  0.00  0.00     0.282 C 
ENDROOT
BRANCH   3   7
HETATM    7  N   UNK N   1      22.031  13.735   7.843  0.00  0.00    -0.330 N 
HETATM    8  C   UNK N   1      21.080  13.551   6.883  0.00  0.00     0.338 C 
HETATM    9  O   UNK N   1      20.246  12.667   6.999  0.00  0.00    -0.245 OA
HETATM   10  N   UNK N   1      21.079  14.335   5.769  0.00  0.00    -0.228 N 
HETATM   11  C   UNK N   1      22.115  15.324   5.569  0.00  0.00     0.185 C 
HETATM   12  H   UNK N   1      22.620  14.517   7.747  0.00  0.00     0.165 HD
BRANCH  10  13
HETATM   13  N   UNK N   1      20.112  14.143   4.802  0.00  0.00    -0.204 N 
ATOM     14  HN  UNK N   1      20.393  13.971   3.837  1.00  0.00     0.216 HD
BRANCH  13  15
HETATM   15  O   UNK N   1      18.950  14.173   5.081  0.00  0.00    -0.274 OA
ATOM     16  HO  UNK N   1      18.508  13.401   5.417  1.00  0.00     0.246 HD
ENDBRANCH  13  15
ENDBRANCH  10  13
ENDBRANCH   3   7
BRANCH   2  17
HETATM   17  O   UNK N   1      24.595  12.727   8.444  0.00  0.00    -0.391 OA
HETATM   18  H   UNK N   1      24.446  12.097   7.721  0.00  0.00     0.210 HD
ENDBRANCH   2  17
BRANCH   6  19
HETATM   19  O   UNK N   1      20.010  13.144   9.947  0.00  0.00    -0.369 OA
HETATM   20  H   UNK N   1      19.356  13.290  10.650  0.00  0.00     0.212 HD
ENDBRANCH   6  19
BRANCH   4  21
HETATM   21  O   UNK N   1      25.246  12.599  11.223  0.00  0.00    -0.390 OA
HETATM   22  H   UNK N   1      25.534  13.503  11.424  0.00  0.00     0.210 HD
ENDBRANCH   4  21
BRANCH   5  23
HETATM   23  C   UNK N   1      23.134  11.628  12.976  0.00  0.00     0.198 C 
BRANCH  23  24
HETATM   24  O   UNK N   1      23.837  12.327  13.958  0.00  0.00    -0.398 OA
HETATM   25  H   UNK N   1      24.505  13.000  13.757  0.00  0.00     0.209 HD
ENDBRANCH  23  24
ENDBRANCH   5  23
TORSDOF 8
ENDMDL
MODEL 9
REMARK VINA RESULT:      -5.5     14.404     17.366
REMARK  8 active torsions:
REMARK  status: ('A' for Active; 'I' for Inactive)
REMARK    1  A    between atoms: C_13  and  O_2 
REMARK    2  A    between atoms: C_15  and  O_3 
REMARK    3  A    between atoms: C_17  and  O_4 
REMARK    4  A    between atoms: O_5  and  C_18 
REMARK    5  A    between atoms: O_7  and  N_11 
REMARK    6  A    between atoms: C_14  and  N_9 
REMARK       I    between atoms: N_9  and  C_19 
REMARK    7  A    between atoms: N_10  and  N_11 
REMARK       I    between atoms: N_10  and  C_19 
REMARK    8  A    between atoms: C_16  and  C_18 
ROOT
HETATM    1  O   UNK N   1      19.821  19.183   2.758  0.00  0.00    -0.349 OA
HETATM    2  C   UNK N   1      22.456  18.787   3.714  0.00  0.00     0.177 C 
HETATM    3  C   UNK N   1      21.235  18.120   4.362  0.00  0.00     0.172 C 
HETATM    4  C   UNK N   1      22.056  20.042   2.936  0.00  0.00     0.180 C 
HETATM    5  C   UNK N   1      20.887  19.703   2.002  0.00  0.00     0.179 C 
HETATM    6  C   UNK N   1      20.214  17.915   3.221  0.00  0.00     0.282 C 
ENDROOT
BRANCH   3   7
HETATM    7  N   UNK N   1      21.686  16.906   5.026  0.00  0.00    -0.330 N 
HETATM    8  C   UNK N   1      21.120  16.348   6.134  0.00  0.00     0.338 C 
HETATM    9  O   UNK N   1      20.085  16.802   6.596  0.00  0.00    -0.245 OA
HETATM   10  N   UNK N   1      21.730  15.298   6.752  0.00  0.00    -0.228 N 
HETATM   11  C   UNK N   1      23.004  14.808   6.276  0.00  0.00     0.185 C 
HETATM   12  H   UNK N   1      22.466  16.447   4.641  0.00  0.00     0.165 HD
BRANCH  10  13
HETATM   13  N   UNK N   1      21.150  14.738   7.873  0.00  0.00    -0.204 N 
ATOM     14  HN  UNK N   1      21.625  14.809   8.773  1.00  0.00     0.216 HD
BRANCH  13  15
HETATM   15  O   UNK N   1      20.099  14.174   7.804  0.00  0.00    -0.274 OA
ATOM     16  HO  UNK N   1      19.384  14.400   8.387  1.00  0.00     0.246 HD
ENDBRANCH  13  15
ENDBRANCH  10  13
ENDBRANCH   3   7
BRANCH   2  17
HETATM   17  O   UNK N   1      23.418  19.103   4.674  0.00  0.00    -0.391 OA
HETATM   18  H   UNK N   1      24.008  19.873   4.680  0.00  0.00     0.210 HD
ENDBRANCH   2  17
BRANCH   6  19
HETATM   19  O   UNK N   1      19.074  17.231   3.635  0.00  0.00    -0.369 OA
HETATM   20  H   UNK N   1      19.108  16.277   3.808  0.00  0.00     0.212 HD
ENDBRANCH   6  19
BRANCH   4  21
HETATM   21  O   UNK N   1      23.148  20.499   2.195  0.00  0.00    -0.390 OA
HETATM   22  H   UNK N   1      23.929  19.972   1.965  0.00  0.00     0.210 HD
ENDBRANCH   4  21
BRANCH   5  23
HETATM   23  C   UNK N   1      20.420  20.967   1.296  0.00  0.00     0.198 C 
BRANCH  23  24
HETATM   24  O   UNK N   1      20.818  20.950  -0.041  0.00  0.00    -0.398 OA
HETATM   25  H   UNK N   1      20.830  21.740  -0.602  0.00  0.00     0.209 HD
ENDBRANCH  23  24
ENDBRANCH   5  23
TORSDOF 8
ENDMDL
