REMARK  8 active torsions:
REMARK  status: ('A' for Active; 'I' for Inactive)
REMARK    1  A    between atoms: C_13  and  O_2 
REMARK    2  A    between atoms: C_15  and  O_3 
REMARK    3  A    between atoms: C_17  and  O_4 
REMARK    4  A    between atoms: O_5  and  C_18 
REMARK    5  A    between atoms: O_7  and  N_11 
REMARK    6  A    between atoms: C_14  and  N_9 
REMARK       I    between atoms: N_9  and  C_19 
REMARK    7  A    between atoms: N_10  and  N_11 
REMARK       I    between atoms: N_10  and  C_19 
REMARK    8  A    between atoms: C_16  and  C_18 
ROOT
HETATM    1  O   UNK N   1       4.214  -2.220   0.221  0.00  0.00    -0.349 OA
HETATM    2  C   UNK N   1       1.971  -0.518  -0.065  0.00  0.00     0.177 C 
HETATM    3  C   UNK N   1       3.361   0.008   0.319  0.00  0.00     0.172 C 
HETATM    4  C   UNK N   1       1.824  -2.001   0.277  0.00  0.00     0.180 C 
HETATM    5  C   UNK N   1       3.025  -2.769  -0.291  0.00  0.00     0.179 C 
HETATM    6  C   UNK N   1       4.371  -0.947  -0.355  0.00  0.00     0.282 C 
ENDROOT
BRANCH   3   7
HETATM    7  N   UNK N   1       3.445   1.401  -0.094  0.00  0.00    -0.330 N 
HETATM    8  C   UNK N   1       4.485   2.245   0.160  0.00  0.00     0.338 C 
HETATM    9  O   UNK N   1       5.505   1.830   0.687  0.00  0.00    -0.245 OA
HETATM   10  N   UNK N   1       4.375   3.569  -0.142  0.00  0.00    -0.228 N 
HETATM   11  C   UNK N   1       3.140   4.097  -0.678  0.00  0.00     0.185 C 
HETATM   12  H   UNK N   1       2.685   1.765  -0.602  0.00  0.00     0.165 HD
BRANCH  10  13
HETATM   13  N   UNK N   1       5.433   4.417   0.118  0.00  0.00    -0.204 N 
ATOM     14  HN  UNK N   1       6.299   4.038   0.500  1.00  0.00     0.216 HD
BRANCH  13  15
HETATM   15  O   UNK N   1       5.348   5.589  -0.100  0.00  0.00    -0.274 OA
ATOM     16  HO  UNK N   1       6.076   6.173   0.079  1.00  0.00     0.246 HD
ENDBRANCH  13  15
ENDBRANCH  10  13
ENDBRANCH   3   7
BRANCH   2  17
HETATM   17  O   UNK N   1       0.969   0.223   0.564  0.00  0.00    -0.391 OA
HETATM   18  H   UNK N   1       1.066   1.083   1.002  0.00  0.00     0.210 HD
ENDBRANCH   2  17
BRANCH   6  19
HETATM   19  O   UNK N   1       5.693  -0.549  -0.174  0.00  0.00    -0.369 OA
HETATM   20  H   UNK N   1       6.393  -1.209  -0.047  0.00  0.00     0.212 HD
ENDBRANCH   6  19
BRANCH   4  21
HETATM   21  O   UNK N   1       0.636  -2.490  -0.271  0.00  0.00    -0.390 OA
HETATM   22  H   UNK N   1      -0.071  -1.946  -0.651  0.00  0.00     0.210 HD
ENDBRANCH   4  21
BRANCH   5  23
HETATM   23  C   UNK N   1       2.936  -4.229   0.128  0.00  0.00     0.198 C 
BRANCH  23  24
HETATM   24  O   UNK N   1       4.065  -4.926  -0.305  0.00  0.00    -0.398 OA
HETATM   25  H   UNK N   1       4.038  -5.847  -0.606  0.00  0.00     0.209 HD
ENDBRANCH  23  24
ENDBRANCH   5  23
TORSDOF 8
