REMARK  5 active torsions:
REMARK  status: ('A' for Active; 'I' for Inactive)
REMARK    1  A    between atoms: C_12  and  O_5 
REMARK    2  A    between atoms: O_6  and  C_15 
REMARK    3  A    between atoms: C_11  and  N_9 
REMARK    4  A    between atoms: C_14  and  C_15 
REMARK    5  A    between atoms: C_18  and  C_20 
ROOT
HETATM    1  O   UNK N   1       0.489   0.508  -0.499  0.00  0.00    -0.246 OA
HETATM    2  O   UNK N   1       2.949   4.194   0.092  0.00  0.00    -0.267 OA
HETATM    3  N   UNK N   1       2.727   0.232  -0.319  0.00  0.00    -0.281 N 
HETATM    4  N   UNK N   1       1.682   2.372  -0.184  0.00  0.00    -0.275 N 
HETATM    5  C   UNK N   1       3.945   0.826  -0.154  0.00  0.00     0.120 A 
HETATM    6  C   UNK N   1       1.587   1.014  -0.338  0.00  0.00     0.331 A 
HETATM    7  C   UNK N   1       4.065   2.210  -0.011  0.00  0.00     0.131 A 
HETATM    8  C   UNK N   1       2.896   2.983  -0.027  0.00  0.00     0.265 A 
HETATM    9  H   UNK N   1       0.863   2.918  -0.187  0.00  0.00     0.173 HD
ENDROOT
BRANCH   3  10
HETATM   10  C   UNK N   1       2.656  -1.226  -0.533  0.00  0.00     0.235 C 
HETATM   11  O   UNK N   1       3.926  -1.824  -0.463  0.00  0.00    -0.356 OA
HETATM   12  C   UNK N   1       3.657  -3.186  -0.255  0.00  0.00     0.176 C 
HETATM   13  C   UNK N   1       2.383  -3.299   0.555  0.00  0.00     0.153 C 
HETATM   14  C   UNK N   1       1.790  -1.919   0.497  0.00  0.00     0.088 C 
BRANCH  12  15
HETATM   15  C   UNK N   1       4.790  -3.836   0.519  0.00  0.00     0.198 C 
BRANCH  15  16
HETATM   16  O   UNK N   1       5.988  -3.708  -0.183  0.00  0.00    -0.398 OA
HETATM   17  H   UNK N   1       6.482  -4.384  -0.672  0.00  0.00     0.209 HD
ENDBRANCH  15  16
ENDBRANCH  12  15
BRANCH  13  18
HETATM   18  O   UNK N   1       1.531  -4.223  -0.051  0.00  0.00    -0.393 OA
HETATM   19  H   UNK N   1       0.679  -4.032  -0.472  0.00  0.00     0.210 HD
ENDBRANCH  13  18
ENDBRANCH   3  10
BRANCH   7  20
HETATM   20  C   UNK N   1       5.428   2.842   0.128  0.00  0.00     0.424 C 
HETATM   21  F   UNK N   1       6.424   1.879   0.150  0.00  0.00    -0.166 F 
HETATM   22  F   UNK N   1       5.654   3.684  -0.945  0.00  0.00    -0.166 F 
HETATM   23  F   UNK N   1       5.494   3.572   1.301  0.00  0.00    -0.166 F 
ENDBRANCH   7  20
TORSDOF 5
