MODEL 1
REMARK VINA RESULT:      -7.0      0.000      0.000
REMARK  5 active torsions:
REMARK  status: ('A' for Active; 'I' for Inactive)
REMARK    1  A    between atoms: C_12  and  O_5 
REMARK    2  A    between atoms: O_6  and  C_15 
REMARK    3  A    between atoms: C_11  and  N_9 
REMARK    4  A    between atoms: C_14  and  C_15 
REMARK    5  A    between atoms: C_18  and  C_20 
ROOT
HETATM    1  O   UNK N   1      22.503  17.075   5.449  0.00  0.00    -0.246 OA
HETATM    2  O   UNK N   1      26.860  18.074   5.510  0.00  0.00    -0.267 OA
HETATM    3  N   UNK N   1      23.175  18.823   4.180  0.00  0.00    -0.281 N 
HETATM    4  N   UNK N   1      24.691  17.530   5.491  0.00  0.00    -0.275 N 
HETATM    5  C   UNK N   1      24.213  19.605   3.766  0.00  0.00     0.120 A 
HETATM    6  C   UNK N   1      23.417  17.779   5.053  0.00  0.00     0.331 A 
HETATM    7  C   UNK N   1      25.517  19.378   4.212  0.00  0.00     0.131 A 
HETATM    8  C   UNK N   1      25.741  18.311   5.092  0.00  0.00     0.265 A 
HETATM    9  H   UNK N   1      24.855  16.776   6.103  0.00  0.00     0.173 HD
ENDROOT
BRANCH   3  10
HETATM   10  C   UNK N   1      21.805  19.142   3.734  0.00  0.00     0.235 C 
HETATM   11  O   UNK N   1      21.749  20.384   3.078  0.00  0.00    -0.356 OA
HETATM   12  C   UNK N   1      20.540  20.344   2.365  0.00  0.00     0.176 C 
HETATM   13  C   UNK N   1      20.280  18.911   1.952  0.00  0.00     0.153 C 
HETATM   14  C   UNK N   1      21.257  18.113   2.769  0.00  0.00     0.088 C 
BRANCH  12  15
HETATM   15  C   UNK N   1      20.635  21.205   1.117  0.00  0.00     0.198 C 
BRANCH  15  16
HETATM   16  O   UNK N   1      20.517  20.413  -0.024  0.00  0.00    -0.398 OA
HETATM   17  H   UNK N   1      20.117  20.633  -0.879  0.00  0.00     0.209 HD
ENDBRANCH  15  16
ENDBRANCH  12  15
BRANCH  13  18
HETATM   18  O   UNK N   1      18.969  18.566   2.283  0.00  0.00    -0.393 OA
HETATM   19  H   UNK N   1      18.403  19.009   2.933  0.00  0.00     0.210 HD
ENDBRANCH  13  18
ENDBRANCH   3  10
BRANCH   7  20
HETATM   20  C   UNK N   1      26.638  20.286   3.769  0.00  0.00     0.424 C 
HETATM   21  F   UNK N   1      27.770  19.557   3.442  0.00  0.00    -0.166 F 
HETATM   22  F   UNK N   1      26.237  20.999   2.655  0.00  0.00    -0.166 F 
HETATM   23  F   UNK N   1      26.961  21.170   4.783  0.00  0.00    -0.166 F 
ENDBRANCH   7  20
TORSDOF 5
ENDMDL
MODEL 2
REMARK VINA RESULT:      -6.3      5.168      8.910
REMARK  5 active torsions:
REMARK  status: ('A' for Active; 'I' for Inactive)
REMARK    1  A    between atoms: C_12  and  O_5 
REMARK    2  A    between atoms: O_6  and  C_15 
REMARK    3  A    between atoms: C_11  and  N_9 
REMARK    4  A    between atoms: C_14  and  C_15 
REMARK    5  A    between atoms: C_18  and  C_20 
ROOT
HETATM    1  O   UNK N   1      29.894  16.431   3.934  0.00  0.00    -0.246 OA
HETATM    2  O   UNK N   1      26.759  19.589   3.502  0.00  0.00    -0.267 OA
HETATM    3  N   UNK N   1      29.366  17.616   5.788  0.00  0.00    -0.281 N 
HETATM    4  N   UNK N   1      28.308  17.986   3.682  0.00  0.00    -0.275 N 
HETATM    5  C   UNK N   1      28.607  18.610   6.334  0.00  0.00     0.120 A 
HETATM    6  C   UNK N   1      29.216  17.305   4.449  0.00  0.00     0.331 A 
HETATM    7  C   UNK N   1      27.686  19.327   5.566  0.00  0.00     0.131 A 
HETATM    8  C   UNK N   1      27.547  18.992   4.213  0.00  0.00     0.265 A 
HETATM    9  H   UNK N   1      28.201  17.749   2.733  0.00  0.00     0.173 HD
ENDROOT
BRANCH   3  10
HETATM   10  C   UNK N   1      30.372  16.932   6.622  0.00  0.00     0.235 C 
HETATM   11  O   UNK N   1      31.678  17.345   6.305  0.00  0.00    -0.356 OA
HETATM   12  C   UNK N   1      32.443  16.962   7.418  0.00  0.00     0.176 C 
HETATM   13  C   UNK N   1      31.568  17.058   8.650  0.00  0.00     0.153 C 
HETATM   14  C   UNK N   1      30.176  17.201   8.099  0.00  0.00     0.088 C 
BRANCH  12  15
HETATM   15  C   UNK N   1      33.631  17.892   7.586  0.00  0.00     0.198 C 
BRANCH  15  16
HETATM   16  O   UNK N   1      34.385  17.926   6.414  0.00  0.00    -0.398 OA
HETATM   17  H   UNK N   1      35.349  17.924   6.310  0.00  0.00     0.209 HD
ENDBRANCH  15  16
ENDBRANCH  12  15
BRANCH  13  18
HETATM   18  O   UNK N   1      31.682  15.881   9.390  0.00  0.00    -0.393 OA
HETATM   19  H   UNK N   1      31.061  15.559  10.061  0.00  0.00     0.210 HD
ENDBRANCH  13  18
ENDBRANCH   3  10
BRANCH   7  20
HETATM   20  C   UNK N   1      26.892  20.449   6.188  0.00  0.00     0.424 C 
HETATM   21  F   UNK N   1      25.542  20.323   5.901  0.00  0.00    -0.166 F 
HETATM   22  F   UNK N   1      27.054  20.419   7.561  0.00  0.00    -0.166 F 
HETATM   23  F   UNK N   1      27.334  21.667   5.704  0.00  0.00    -0.166 F 
ENDBRANCH   7  20
TORSDOF 5
ENDMDL
MODEL 3
REMARK VINA RESULT:      -6.2     14.677     17.560
REMARK  5 active torsions:
REMARK  status: ('A' for Active; 'I' for Inactive)
REMARK    1  A    between atoms: C_12  and  O_5 
REMARK    2  A    between atoms: O_6  and  C_15 
REMARK    3  A    between atoms: C_11  and  N_9 
REMARK    4  A    between atoms: C_14  and  C_15 
REMARK    5  A    between atoms: C_18  and  C_20 
ROOT
HETATM    1  O   UNK N   1      37.826  11.344  12.589  0.00  0.00    -0.246 OA
HETATM    2  O   UNK N   1      36.538  10.642  16.813  0.00  0.00    -0.267 OA
HETATM    3  N   UNK N   1      36.551  12.944  13.554  0.00  0.00    -0.281 N 
HETATM    4  N   UNK N   1      37.220  10.966  14.707  0.00  0.00    -0.275 N 
HETATM    5  C   UNK N   1      35.873  13.353  14.667  0.00  0.00     0.120 A 
HETATM    6  C   UNK N   1      37.226  11.738  13.576  0.00  0.00     0.331 A 
HETATM    7  C   UNK N   1      35.841  12.574  15.825  0.00  0.00     0.131 A 
HETATM    8  C   UNK N   1      36.538  11.358  15.827  0.00  0.00     0.265 A 
HETATM    9  H   UNK N   1      37.714  10.115  14.716  0.00  0.00     0.173 HD
ENDROOT
BRANCH   3  10
HETATM   10  C   UNK N   1      36.500  13.769  12.332  0.00  0.00     0.235 C 
HETATM   11  O   UNK N   1      35.493  13.335  11.453  0.00  0.00    -0.356 OA
HETATM   12  C   UNK N   1      35.289  14.426  10.594  0.00  0.00     0.176 C 
HETATM   13  C   UNK N   1      35.541  15.698  11.375  0.00  0.00     0.153 C 
HETATM   14  C   UNK N   1      36.220  15.226  12.631  0.00  0.00     0.088 C 
BRANCH  12  15
HETATM   15  C   UNK N   1      33.858  14.437  10.087  0.00  0.00     0.198 C 
BRANCH  15  16
HETATM   16  O   UNK N   1      33.016  15.018  11.034  0.00  0.00    -0.398 OA
HETATM   17  H   UNK N   1      32.487  14.587  11.724  0.00  0.00     0.209 HD
ENDBRANCH  15  16
ENDBRANCH  12  15
BRANCH  13  18
HETATM   18  O   UNK N   1      36.390  16.529  10.643  0.00  0.00    -0.393 OA
HETATM   19  H   UNK N   1      36.988  17.202  11.002  0.00  0.00     0.210 HD
ENDBRANCH  13  18
ENDBRANCH   3  10
BRANCH   7  20
HETATM   20  C   UNK N   1      35.049  13.032  17.025  0.00  0.00     0.424 C 
HETATM   21  F   UNK N   1      33.833  13.574  16.642  0.00  0.00    -0.166 F 
HETATM   22  F   UNK N   1      34.808  11.953  17.854  0.00  0.00    -0.166 F 
HETATM   23  F   UNK N   1      35.760  13.992  17.723  0.00  0.00    -0.166 F 
ENDBRANCH   7  20
TORSDOF 5
ENDMDL
MODEL 4
REMARK VINA RESULT:      -6.2      2.235      2.936
REMARK  5 active torsions:
REMARK  status: ('A' for Active; 'I' for Inactive)
REMARK    1  A    between atoms: C_12  and  O_5 
REMARK    2  A    between atoms: O_6  and  C_15 
REMARK    3  A    between atoms: C_11  and  N_9 
REMARK    4  A    between atoms: C_14  and  C_15 
REMARK    5  A    between atoms: C_18  and  C_20 
ROOT
HETATM    1  O   UNK N   1      22.305  21.206   2.612  0.00  0.00    -0.246 OA
HETATM    2  O   UNK N   1      26.598  20.406   3.566  0.00  0.00    -0.267 OA
HETATM    3  N   UNK N   1      22.803  19.179   3.484  0.00  0.00    -0.281 N 
HETATM    4  N   UNK N   1      24.458  20.852   3.094  0.00  0.00    -0.275 N 
HETATM    5  C   UNK N   1      23.774  18.340   3.951  0.00  0.00     0.120 A 
HETATM    6  C   UNK N   1      23.151  20.444   3.048  0.00  0.00     0.331 A 
HETATM    7  C   UNK N   1      25.114  18.731   3.992  0.00  0.00     0.131 A 
HETATM    8  C   UNK N   1      25.443  20.020   3.552  0.00  0.00     0.265 A 
HETATM    9  H   UNK N   1      24.693  21.759   2.793  0.00  0.00     0.173 HD
ENDROOT
BRANCH   3  10
HETATM   10  C   UNK N   1      21.411  18.698   3.397  0.00  0.00     0.235 C 
HETATM   11  O   UNK N   1      21.002  18.528   2.063  0.00  0.00    -0.356 OA
HETATM   12  C   UNK N   1      19.877  17.693   2.149  0.00  0.00     0.176 C 
HETATM   13  C   UNK N   1      20.066  16.763   3.329  0.00  0.00     0.153 C 
HETATM   14  C   UNK N   1      21.218  17.364   4.086  0.00  0.00     0.088 C 
BRANCH  12  15
HETATM   15  C   UNK N   1      19.739  16.860   0.887  0.00  0.00     0.198 C 
BRANCH  15  16
HETATM   16  O   UNK N   1      20.258  17.554  -0.206  0.00  0.00    -0.398 OA
HETATM   17  H   UNK N   1      21.000  17.314  -0.783  0.00  0.00     0.209 HD
ENDBRANCH  15  16
ENDBRANCH  12  15
BRANCH  13  18
HETATM   18  O   UNK N   1      18.910  16.770   4.112  0.00  0.00    -0.393 OA
HETATM   19  H   UNK N   1      18.273  16.046   4.205  0.00  0.00     0.210 HD
ENDBRANCH  13  18
ENDBRANCH   3  10
BRANCH   7  20
HETATM   20  C   UNK N   1      26.170  17.767   4.475  0.00  0.00     0.424 C 
HETATM   21  F   UNK N   1      25.606  16.560   4.856  0.00  0.00    -0.166 F 
HETATM   22  F   UNK N   1      27.073  17.528   3.456  0.00  0.00    -0.166 F 
HETATM   23  F   UNK N   1      26.839  18.303   5.560  0.00  0.00    -0.166 F 
ENDBRANCH   7  20
TORSDOF 5
ENDMDL
MODEL 5
REMARK VINA RESULT:      -6.1     10.602     12.745
REMARK  5 active torsions:
REMARK  status: ('A' for Active; 'I' for Inactive)
REMARK    1  A    between atoms: C_12  and  O_5 
REMARK    2  A    between atoms: O_6  and  C_15 
REMARK    3  A    between atoms: C_11  and  N_9 
REMARK    4  A    between atoms: C_14  and  C_15 
REMARK    5  A    between atoms: C_18  and  C_20 
ROOT
HETATM    1  O   UNK N   1      26.622  25.905  -6.040  0.00  0.00    -0.246 OA
HETATM    2  O   UNK N   1      24.445  22.991  -8.639  0.00  0.00    -0.267 OA
HETATM    3  N   UNK N   1      27.556  23.860  -6.299  0.00  0.00    -0.281 N 
HETATM    4  N   UNK N   1      25.514  24.484  -7.363  0.00  0.00    -0.275 N 
HETATM    5  C   UNK N   1      27.464  22.622  -6.866  0.00  0.00     0.120 A 
HETATM    6  C   UNK N   1      26.570  24.797  -6.547  0.00  0.00     0.331 A 
HETATM    7  C   UNK N   1      26.388  22.278  -7.687  0.00  0.00     0.131 A 
HETATM    8  C   UNK N   1      25.403  23.244  -7.931  0.00  0.00     0.265 A 
HETATM    9  H   UNK N   1      24.824  25.162  -7.543  0.00  0.00     0.173 HD
ENDROOT
BRANCH   3  10
HETATM   10  C   UNK N   1      28.675  24.156  -5.384  0.00  0.00     0.235 C 
HETATM   11  O   UNK N   1      28.306  23.987  -4.039  0.00  0.00    -0.356 OA
HETATM   12  C   UNK N   1      29.527  23.879  -3.354  0.00  0.00     0.176 C 
HETATM   13  C   UNK N   1      30.527  23.210  -4.274  0.00  0.00     0.153 C 
HETATM   14  C   UNK N   1      29.869  23.257  -5.624  0.00  0.00     0.088 C 
BRANCH  12  15
HETATM   15  C   UNK N   1      29.360  23.028  -2.108  0.00  0.00     0.198 C 
BRANCH  15  16
HETATM   16  O   UNK N   1      30.575  22.921  -1.432  0.00  0.00    -0.398 OA
HETATM   17  H   UNK N   1      30.752  22.552  -0.553  0.00  0.00     0.209 HD
ENDBRANCH  15  16
ENDBRANCH  12  15
BRANCH  13  18
HETATM   18  O   UNK N   1      31.712  23.947  -4.281  0.00  0.00    -0.393 OA
HETATM   19  H   UNK N   1      31.935  24.673  -4.883  0.00  0.00     0.210 HD
ENDBRANCH  13  18
ENDBRANCH   3  10
BRANCH   7  20
HETATM   20  C   UNK N   1      26.292  20.888  -8.266  0.00  0.00     0.424 C 
HETATM   21  F   UNK N   1      26.174  20.930  -9.646  0.00  0.00    -0.166 F 
HETATM   22  F   UNK N   1      27.433  20.177  -7.944  0.00  0.00    -0.166 F 
HETATM   23  F   UNK N   1      25.188  20.235  -7.749  0.00  0.00    -0.166 F 
ENDBRANCH   7  20
TORSDOF 5
ENDMDL
MODEL 6
REMARK VINA RESULT:      -6.1     10.437     12.424
REMARK  5 active torsions:
REMARK  status: ('A' for Active; 'I' for Inactive)
REMARK    1  A    between atoms: C_12  and  O_5 
REMARK    2  A    between atoms: O_6  and  C_15 
REMARK    3  A    between atoms: C_11  and  N_9 
REMARK    4  A    between atoms: C_14  and  C_15 
REMARK    5  A    between atoms: C_18  and  C_20 
ROOT
HETATM    1  O   UNK N   1      34.727  19.162   8.287  0.00  0.00    -0.246 OA
HETATM    2  O   UNK N   1      35.715  16.111  11.401  0.00  0.00    -0.267 OA
HETATM    3  N   UNK N   1      34.311  16.999   7.774  0.00  0.00    -0.281 N 
HETATM    4  N   UNK N   1      35.215  17.669   9.877  0.00  0.00    -0.275 N 
HETATM    5  C   UNK N   1      34.360  15.696   8.178  0.00  0.00     0.120 A 
HETATM    6  C   UNK N   1      34.747  17.993   8.631  0.00  0.00     0.331 A 
HETATM    7  C   UNK N   1      34.848  15.344   9.438  0.00  0.00     0.131 A 
HETATM    8  C   UNK N   1      35.279  16.367  10.293  0.00  0.00     0.265 A 
HETATM    9  H   UNK N   1      35.512  18.385  10.484  0.00  0.00     0.173 HD
ENDROOT
BRANCH   3  10
HETATM   10  C   UNK N   1      33.850  17.316   6.409  0.00  0.00     0.235 C 
HETATM   11  O   UNK N   1      34.377  16.423   5.461  0.00  0.00    -0.356 OA
HETATM   12  C   UNK N   1      33.544  16.573   4.341  0.00  0.00     0.176 C 
HETATM   13  C   UNK N   1      32.150  16.903   4.830  0.00  0.00     0.153 C 
HETATM   14  C   UNK N   1      32.343  17.251   6.279  0.00  0.00     0.088 C 
BRANCH  12  15
HETATM   15  C   UNK N   1      33.492  15.282   3.544  0.00  0.00     0.198 C 
BRANCH  15  16
HETATM   16  O   UNK N   1      33.730  15.540   2.195  0.00  0.00    -0.398 OA
HETATM   17  H   UNK N   1      34.290  16.223   1.795  0.00  0.00     0.209 HD
ENDBRANCH  15  16
ENDBRANCH  12  15
BRANCH  13  18
HETATM   18  O   UNK N   1      31.662  18.004   4.124  0.00  0.00    -0.393 OA
HETATM   19  H   UNK N   1      31.215  17.986   3.264  0.00  0.00     0.210 HD
ENDBRANCH  13  18
ENDBRANCH   3  10
BRANCH   7  20
HETATM   20  C   UNK N   1      34.928  13.892   9.841  0.00  0.00     0.424 C 
HETATM   21  F   UNK N   1      34.325  13.078   8.896  0.00  0.00    -0.166 F 
HETATM   22  F   UNK N   1      36.255  13.522   9.957  0.00  0.00    -0.166 F 
HETATM   23  F   UNK N   1      34.295  13.702  11.056  0.00  0.00    -0.166 F 
ENDBRANCH   7  20
TORSDOF 5
ENDMDL
MODEL 7
REMARK VINA RESULT:      -6.1      6.125      7.434
REMARK  5 active torsions:
REMARK  status: ('A' for Active; 'I' for Inactive)
REMARK    1  A    between atoms: C_12  and  O_5 
REMARK    2  A    between atoms: O_6  and  C_15 
REMARK    3  A    between atoms: C_11  and  N_9 
REMARK    4  A    between atoms: C_14  and  C_15 
REMARK    5  A    between atoms: C_18  and  C_20 
ROOT
HETATM    1  O   UNK N   1      19.203  14.340   9.782  0.00  0.00    -0.246 OA
HETATM    2  O   UNK N   1      22.656  11.921  11.271  0.00  0.00    -0.267 OA
HETATM    3  N   UNK N   1      21.130  14.463   8.603  0.00  0.00    -0.281 N 
HETATM    4  N   UNK N   1      20.899  13.100  10.547  0.00  0.00    -0.275 N 
HETATM    5  C   UNK N   1      22.428  14.059   8.484  0.00  0.00     0.120 A 
HETATM    6  C   UNK N   1      20.361  13.982   9.646  0.00  0.00     0.331 A 
HETATM    7  C   UNK N   1      23.000  13.174   9.400  0.00  0.00     0.131 A 
HETATM    8  C   UNK N   1      22.202  12.693  10.446  0.00  0.00     0.265 A 
HETATM    9  H   UNK N   1      20.340  12.754  11.279  0.00  0.00     0.173 HD
ENDROOT
BRANCH   3  10
HETATM   10  C   UNK N   1      20.589  15.452   7.650  0.00  0.00     0.235 C 
HETATM   11  O   UNK N   1      21.393  16.603   7.583  0.00  0.00    -0.356 OA
HETATM   12  C   UNK N   1      21.015  17.220   6.380  0.00  0.00     0.176 C 
HETATM   13  C   UNK N   1      20.624  16.139   5.396  0.00  0.00     0.153 C 
HETATM   14  C   UNK N   1      20.495  14.904   6.242  0.00  0.00     0.088 C 
BRANCH  12  15
HETATM   15  C   UNK N   1      22.177  18.011   5.805  0.00  0.00     0.198 C 
BRANCH  15  16
HETATM   16  O   UNK N   1      23.344  17.248   5.843  0.00  0.00    -0.398 OA
HETATM   17  H   UNK N   1      23.630  16.544   5.242  0.00  0.00     0.209 HD
ENDBRANCH  15  16
ENDBRANCH  12  15
BRANCH  13  18
HETATM   18  O   UNK N   1      19.397  16.465   4.816  0.00  0.00    -0.393 OA
HETATM   19  H   UNK N   1      19.233  16.650   3.879  0.00  0.00     0.210 HD
ENDBRANCH  13  18
ENDBRANCH   3  10
BRANCH   7  20
HETATM   20  C   UNK N   1      24.450  12.778   9.267  0.00  0.00     0.424 C 
HETATM   21  F   UNK N   1      25.162  13.098  10.412  0.00  0.00    -0.166 F 
HETATM   22  F   UNK N   1      24.535  11.413   9.063  0.00  0.00    -0.166 F 
HETATM   23  F   UNK N   1      25.024  13.434   8.193  0.00  0.00    -0.166 F 
ENDBRANCH   7  20
TORSDOF 5
ENDMDL
MODEL 8
REMARK VINA RESULT:      -6.0      3.257      6.429
REMARK  5 active torsions:
REMARK  status: ('A' for Active; 'I' for Inactive)
REMARK    1  A    between atoms: C_12  and  O_5 
REMARK    2  A    between atoms: O_6  and  C_15 
REMARK    3  A    between atoms: C_11  and  N_9 
REMARK    4  A    between atoms: C_14  and  C_15 
REMARK    5  A    between atoms: C_18  and  C_20 
ROOT
HETATM    1  O   UNK N   1      24.310  21.005   2.430  0.00  0.00    -0.246 OA
HETATM    2  O   UNK N   1      20.466  19.087   3.668  0.00  0.00    -0.267 OA
HETATM    3  N   UNK N   1      24.422  19.435   4.054  0.00  0.00    -0.281 N 
HETATM    4  N   UNK N   1      22.371  20.055   3.007  0.00  0.00    -0.275 N 
HETATM    5  C   UNK N   1      23.742  18.549   4.840  0.00  0.00     0.120 A 
HETATM    6  C   UNK N   1      23.727  20.197   3.133  0.00  0.00     0.331 A 
HETATM    7  C   UNK N   1      22.357  18.401   4.738  0.00  0.00     0.131 A 
HETATM    8  C   UNK N   1      21.674  19.178   3.793  0.00  0.00     0.265 A 
HETATM    9  H   UNK N   1      21.888  20.594   2.339  0.00  0.00     0.173 HD
ENDROOT
BRANCH   3  10
HETATM   10  C   UNK N   1      25.875  19.604   4.245  0.00  0.00     0.235 C 
HETATM   11  O   UNK N   1      26.178  20.085   5.530  0.00  0.00    -0.356 OA
HETATM   12  C   UNK N   1      27.539  19.788   5.700  0.00  0.00     0.176 C 
HETATM   13  C   UNK N   1      27.844  18.513   4.943  0.00  0.00     0.153 C 
HETATM   14  C   UNK N   1      26.634  18.306   4.075  0.00  0.00     0.088 C 
BRANCH  12  15
HETATM   15  C   UNK N   1      27.854  19.574   7.169  0.00  0.00     0.198 C 
BRANCH  15  16
HETATM   16  O   UNK N   1      26.821  20.074   7.961  0.00  0.00    -0.398 OA
HETATM   17  H   UNK N   1      25.886  20.196   7.735  0.00  0.00     0.209 HD
ENDBRANCH  15  16
ENDBRANCH  12  15
BRANCH  13  18
HETATM   18  O   UNK N   1      28.982  18.701   4.159  0.00  0.00    -0.393 OA
HETATM   19  H   UNK N   1      29.401  18.044   3.583  0.00  0.00     0.210 HD
ENDBRANCH  13  18
ENDBRANCH   3  10
BRANCH   7  20
HETATM   20  C   UNK N   1      21.628  17.443   5.648  0.00  0.00     0.424 C 
HETATM   21  F   UNK N   1      20.862  18.127   6.579  0.00  0.00    -0.166 F 
HETATM   22  F   UNK N   1      20.793  16.640   4.894  0.00  0.00    -0.166 F 
HETATM   23  F   UNK N   1      22.536  16.648   6.324  0.00  0.00    -0.166 F 
ENDBRANCH   7  20
TORSDOF 5
ENDMDL
MODEL 9
REMARK VINA RESULT:      -6.0      7.866     11.922
REMARK  5 active torsions:
REMARK  status: ('A' for Active; 'I' for Inactive)
REMARK    1  A    between atoms: C_12  and  O_5 
REMARK    2  A    between atoms: O_6  and  C_15 
REMARK    3  A    between atoms: C_11  and  N_9 
REMARK    4  A    between atoms: C_14  and  C_15 
REMARK    5  A    between atoms: C_18  and  C_20 
ROOT
HETATM    1  O   UNK N   1      32.548  16.336   5.563  0.00  0.00    -0.246 OA
HETATM    2  O   UNK N   1      28.600  18.119   6.667  0.00  0.00    -0.267 OA
HETATM    3  N   UNK N   1      31.959  16.256   7.746  0.00  0.00    -0.281 N 
HETATM    4  N   UNK N   1      30.559  17.219   6.072  0.00  0.00    -0.275 N 
HETATM    5  C   UNK N   1      31.026  16.567   8.692  0.00  0.00     0.120 A 
HETATM    6  C   UNK N   1      31.723  16.590   6.425  0.00  0.00     0.331 A 
HETATM    7  C   UNK N   1      29.840  17.223   8.356  0.00  0.00     0.131 A 
HETATM    8  C   UNK N   1      29.619  17.546   7.010  0.00  0.00     0.265 A 
HETATM    9  H   UNK N   1      30.396  17.441   5.126  0.00  0.00     0.173 HD
ENDROOT
BRANCH   3  10
HETATM   10  C   UNK N   1      33.226  15.624   8.159  0.00  0.00     0.235 C 
HETATM   11  O   UNK N   1      34.092  16.546   8.772  0.00  0.00    -0.356 OA
HETATM   12  C   UNK N   1      35.014  15.748   9.467  0.00  0.00     0.176 C 
HETATM   13  C   UNK N   1      34.303  14.492   9.924  0.00  0.00     0.153 C 
HETATM   14  C   UNK N   1      33.014  14.500   9.150  0.00  0.00     0.088 C 
BRANCH  12  15
HETATM   15  C   UNK N   1      35.538  16.486  10.685  0.00  0.00     0.198 C 
BRANCH  15  16
HETATM   16  O   UNK N   1      36.877  16.162  10.905  0.00  0.00    -0.398 OA
HETATM   17  H   UNK N   1      37.359  15.360  10.650  0.00  0.00     0.209 HD
ENDBRANCH  15  16
ENDBRANCH  12  15
BRANCH  13  18
HETATM   18  O   UNK N   1      35.070  13.377   9.584  0.00  0.00    -0.393 OA
HETATM   19  H   UNK N   1      35.043  12.507  10.011  0.00  0.00     0.210 HD
ENDBRANCH  13  18
ENDBRANCH   3  10
BRANCH   7  20
HETATM   20  C   UNK N   1      28.846  17.591   9.430  0.00  0.00     0.424 C 
HETATM   21  F   UNK N   1      28.729  18.966   9.550  0.00  0.00    -0.166 F 
HETATM   22  F   UNK N   1      27.607  17.070   9.106  0.00  0.00    -0.166 F 
HETATM   23  F   UNK N   1      29.252  17.075  10.647  0.00  0.00    -0.166 F 
ENDBRANCH   7  20
TORSDOF 5
ENDMDL
