MODEL 1
REMARK VINA RESULT:      -6.6      0.000      0.000
REMARK  4 active torsions:
REMARK  status: ('A' for Active; 'I' for Inactive)
REMARK    1  A    between atoms: N_3  and  C_8 
REMARK    2  A    between atoms: N_5  and  C_12 
REMARK    3  A    between atoms: C_8  and  C_11 
REMARK    4  A    between atoms: C_11  and  C_12 
ROOT
HETATM    1 Cl   UNK N   1      37.487  15.732  16.010  0.00  0.00    -0.084 Cl
HETATM    2  S   UNK N   1      34.011  10.787  14.134  0.00  0.00    -0.086 SA
HETATM    3  N   UNK N   1      35.906  12.558  12.231  0.00  0.00    -0.345 N 
HETATM    4  C   UNK N   1      35.820  12.906  13.622  0.00  0.00     0.053 A 
HETATM    5  C   UNK N   1      35.153  11.484  11.637  0.00  0.00     0.052 A 
HETATM    6  C   UNK N   1      35.020  12.194  14.548  0.00  0.00     0.032 A 
HETATM    7  C   UNK N   1      34.281  10.653  12.377  0.00  0.00     0.032 A 
HETATM    8  C   UNK N   1      36.576  13.998  14.104  0.00  0.00     0.054 A 
HETATM    9  C   UNK N   1      35.283  11.234  10.254  0.00  0.00     0.031 A 
HETATM   10  C   UNK N   1      35.005  12.576  15.895  0.00  0.00     0.023 A 
HETATM   11  C   UNK N   1      33.578   9.628  11.731  0.00  0.00     0.021 A 
HETATM   12  C   UNK N   1      36.543  14.370  15.449  0.00  0.00     0.036 A 
HETATM   13  C   UNK N   1      34.574  10.216   9.622  0.00  0.00     0.002 A 
HETATM   14  C   UNK N   1      35.758  13.655  16.346  0.00  0.00     0.025 A 
HETATM   15  C   UNK N   1      33.718   9.411  10.363  0.00  0.00     0.002 A 
ENDROOT
BRANCH   3  16
HETATM   16  C   UNK N   1      36.893  13.264  11.416  0.00  0.00     0.131 C 
BRANCH  16  17
HETATM   17  C   UNK N   1      36.286  14.030  10.246  0.00  0.00     0.050 C 
BRANCH  17  18
HETATM   18  C   UNK N   1      36.016  15.450  10.725  0.00  0.00     0.274 C 
BRANCH  18  19
HETATM   19  N   UNK N   1      34.668  15.893  10.393  0.00  0.00     0.091 N 
HETATM   20  C   UNK N   1      33.909  14.729   9.920  0.00  0.00     0.302 C 
HETATM   21  C   UNK N   1      32.533  15.169   9.417  0.00  0.00     0.302 C 
HETATM   22  N   UNK N   1      32.692  16.108   8.309  0.00  0.00     0.087 N 
HETATM   23  C   UNK N   1      33.434  17.275   8.780  0.00  0.00     0.302 C 
HETATM   24  C   UNK N   1      31.367  16.561   7.928  0.00  0.00     0.310 C 
HETATM   25  C   UNK N   1      34.809  16.842   9.287  0.00  0.00     0.302 C 
ENDBRANCH  18  19
ENDBRANCH  17  18
ENDBRANCH  16  17
ENDBRANCH   3  16
TORSDOF 4
ENDMDL
MODEL 2
REMARK VINA RESULT:      -6.6      2.039      4.397
REMARK  4 active torsions:
REMARK  status: ('A' for Active; 'I' for Inactive)
REMARK    1  A    between atoms: N_3  and  C_8 
REMARK    2  A    between atoms: N_5  and  C_12 
REMARK    3  A    between atoms: C_8  and  C_11 
REMARK    4  A    between atoms: C_11  and  C_12 
ROOT
HETATM    1 Cl   UNK N   1      34.903  10.853   8.230  0.00  0.00    -0.084 Cl
HETATM    2  S   UNK N   1      33.890  10.726  14.476  0.00  0.00    -0.086 SA
HETATM    3  N   UNK N   1      35.717  12.876  12.931  0.00  0.00    -0.345 N 
HETATM    4  C   UNK N   1      35.077  11.846  12.160  0.00  0.00     0.053 A 
HETATM    5  C   UNK N   1      35.618  12.968  14.364  0.00  0.00     0.052 A 
HETATM    6  C   UNK N   1      34.250  10.852  12.737  0.00  0.00     0.032 A 
HETATM    7  C   UNK N   1      34.855  12.068  15.143  0.00  0.00     0.032 A 
HETATM    8  C   UNK N   1      35.260  11.823  10.760  0.00  0.00     0.054 A 
HETATM    9  C   UNK N   1      36.306  13.999  15.038  0.00  0.00     0.031 A 
HETATM   10  C   UNK N   1      33.638   9.894  11.920  0.00  0.00     0.023 A 
HETATM   11  C   UNK N   1      34.807  12.217  16.535  0.00  0.00     0.021 A 
HETATM   12  C   UNK N   1      34.648  10.857   9.961  0.00  0.00     0.036 A 
HETATM   13  C   UNK N   1      36.256  14.133  16.423  0.00  0.00     0.002 A 
HETATM   14  C   UNK N   1      33.833   9.892  10.542  0.00  0.00     0.025 A 
HETATM   15  C   UNK N   1      35.505  13.238  17.174  0.00  0.00     0.002 A 
ENDROOT
BRANCH   3  16
HETATM   16  C   UNK N   1      36.406  13.939  12.201  0.00  0.00     0.131 C 
BRANCH  16  17
HETATM   17  C   UNK N   1      35.509  15.117  11.842  0.00  0.00     0.050 C 
BRANCH  17  18
HETATM   18  C   UNK N   1      36.036  15.711  10.543  0.00  0.00     0.274 C 
BRANCH  18  19
HETATM   19  N   UNK N   1      35.017  15.740   9.501  0.00  0.00     0.091 N 
HETATM   20  C   UNK N   1      34.722  17.143   9.190  0.00  0.00     0.302 C 
HETATM   21  C   UNK N   1      33.551  17.227   8.209  0.00  0.00     0.302 C 
HETATM   22  N   UNK N   1      32.365  16.619   8.807  0.00  0.00     0.087 N 
HETATM   23  C   UNK N   1      32.651  15.217   9.104  0.00  0.00     0.302 C 
HETATM   24  C   UNK N   1      31.312  16.645   7.809  0.00  0.00     0.310 C 
HETATM   25  C   UNK N   1      33.822  15.126  10.081  0.00  0.00     0.302 C 
ENDBRANCH  18  19
ENDBRANCH  17  18
ENDBRANCH  16  17
ENDBRANCH   3  16
TORSDOF 4
ENDMDL
MODEL 3
REMARK VINA RESULT:      -6.6      4.185      8.640
REMARK  4 active torsions:
REMARK  status: ('A' for Active; 'I' for Inactive)
REMARK    1  A    between atoms: N_3  and  C_8 
REMARK    2  A    between atoms: N_5  and  C_12 
REMARK    3  A    between atoms: C_8  and  C_11 
REMARK    4  A    between atoms: C_11  and  C_12 
ROOT
HETATM    1 Cl   UNK N   1      34.639  14.583   3.454  0.00  0.00    -0.084 Cl
HETATM    2  S   UNK N   1      28.977  16.104   5.841  0.00  0.00    -0.086 SA
HETATM    3  N   UNK N   1      31.813  17.030   7.045  0.00  0.00    -0.345 N 
HETATM    4  C   UNK N   1      31.809  16.195   5.875  0.00  0.00     0.053 A 
HETATM    5  C   UNK N   1      30.615  17.436   7.730  0.00  0.00     0.052 A 
HETATM    6  C   UNK N   1      30.620  15.733   5.262  0.00  0.00     0.032 A 
HETATM    7  C   UNK N   1      29.318  17.075   7.296  0.00  0.00     0.032 A 
HETATM    8  C   UNK N   1      33.041  15.825   5.291  0.00  0.00     0.054 A 
HETATM    9  C   UNK N   1      30.721  18.235   8.888  0.00  0.00     0.031 A 
HETATM   10  C   UNK N   1      30.692  14.942   4.108  0.00  0.00     0.023 A 
HETATM   11  C   UNK N   1      28.197  17.505   8.016  0.00  0.00     0.021 A 
HETATM   12  C   UNK N   1      33.095  15.030   4.146  0.00  0.00     0.036 A 
HETATM   13  C   UNK N   1      29.598  18.651   9.599  0.00  0.00     0.002 A 
HETATM   14  C   UNK N   1      31.917  14.590   3.552  0.00  0.00     0.025 A 
HETATM   15  C   UNK N   1      28.332  18.284   9.162  0.00  0.00     0.002 A 
ENDROOT
BRANCH   3  16
HETATM   16  C   UNK N   1      33.097  17.577   7.481  0.00  0.00     0.131 C 
BRANCH  16  17
HETATM   17  C   UNK N   1      33.654  16.908   8.732  0.00  0.00     0.050 C 
BRANCH  17  18
HETATM   18  C   UNK N   1      34.799  16.005   8.293  0.00  0.00     0.274 C 
BRANCH  18  19
HETATM   19  N   UNK N   1      35.434  15.338   9.423  0.00  0.00     0.091 N 
HETATM   20  C   UNK N   1      34.677  14.116   9.716  0.00  0.00     0.302 C 
HETATM   21  C   UNK N   1      35.214  13.458  10.988  0.00  0.00     0.302 C 
HETATM   22  N   UNK N   1      35.074  14.379  12.114  0.00  0.00     0.087 N 
HETATM   23  C   UNK N   1      35.839  15.592  11.832  0.00  0.00     0.302 C 
HETATM   24  C   UNK N   1      35.675  13.746  13.273  0.00  0.00     0.310 C 
HETATM   25  C   UNK N   1      35.309  16.252  10.560  0.00  0.00     0.302 C 
ENDBRANCH  18  19
ENDBRANCH  17  18
ENDBRANCH  16  17
ENDBRANCH   3  16
TORSDOF 4
ENDMDL
MODEL 4
REMARK VINA RESULT:      -6.5     18.666     21.942
REMARK  4 active torsions:
REMARK  status: ('A' for Active; 'I' for Inactive)
REMARK    1  A    between atoms: N_3  and  C_8 
REMARK    2  A    between atoms: N_5  and  C_12 
REMARK    3  A    between atoms: C_8  and  C_11 
REMARK    4  A    between atoms: C_11  and  C_12 
ROOT
HETATM    1 Cl   UNK N   1      29.351  20.262  -7.442  0.00  0.00    -0.084 Cl
HETATM    2  S   UNK N   1      26.318  25.817  -7.516  0.00  0.00    -0.086 SA
HETATM    3  N   UNK N   1      27.512  24.384  -4.895  0.00  0.00    -0.345 N 
HETATM    4  C   UNK N   1      27.661  23.722  -6.162  0.00  0.00     0.053 A 
HETATM    5  C   UNK N   1      26.817  25.634  -4.734  0.00  0.00     0.052 A 
HETATM    6  C   UNK N   1      27.176  24.263  -7.377  0.00  0.00     0.032 A 
HETATM    7  C   UNK N   1      26.243  26.342  -5.815  0.00  0.00     0.032 A 
HETATM    8  C   UNK N   1      28.333  22.481  -6.212  0.00  0.00     0.054 A 
HETATM    9  C   UNK N   1      26.698  26.195  -3.444  0.00  0.00     0.031 A 
HETATM   10  C   UNK N   1      27.380  23.573  -8.578  0.00  0.00     0.023 A 
HETATM   11  C   UNK N   1      25.579  27.553  -5.582  0.00  0.00     0.021 A 
HETATM   12  C   UNK N   1      28.521  21.802  -7.417  0.00  0.00     0.036 A 
HETATM   13  C   UNK N   1      26.030  27.397  -3.225  0.00  0.00     0.002 A 
HETATM   14  C   UNK N   1      28.045  22.351  -8.603  0.00  0.00     0.025 A 
HETATM   15  C   UNK N   1      25.468  28.078  -4.297  0.00  0.00     0.002 A 
ENDROOT
BRANCH   3  16
HETATM   16  C   UNK N   1      28.201  23.804  -3.743  0.00  0.00     0.131 C 
BRANCH  16  17
HETATM   17  C   UNK N   1      29.665  24.211  -3.637  0.00  0.00     0.050 C 
BRANCH  17  18
HETATM   18  C   UNK N   1      30.320  23.288  -2.618  0.00  0.00     0.274 C 
BRANCH  18  19
HETATM   19  N   UNK N   1      31.361  22.461  -3.218  0.00  0.00     0.091 N 
HETATM   20  C   UNK N   1      31.870  23.158  -4.405  0.00  0.00     0.302 C 
HETATM   21  C   UNK N   1      32.859  22.263  -5.154  0.00  0.00     0.302 C 
HETATM   22  N   UNK N   1      32.185  21.039  -5.582  0.00  0.00     0.087 N 
HETATM   23  C   UNK N   1      31.690  20.334  -4.401  0.00  0.00     0.302 C 
HETATM   24  C   UNK N   1      33.182  20.189  -6.207  0.00  0.00     0.310 C 
HETATM   25  C   UNK N   1      30.704  21.225  -3.646  0.00  0.00     0.302 C 
ENDBRANCH  18  19
ENDBRANCH  17  18
ENDBRANCH  16  17
ENDBRANCH   3  16
TORSDOF 4
ENDMDL
MODEL 5
REMARK VINA RESULT:      -6.5     12.214     15.310
REMARK  4 active torsions:
REMARK  status: ('A' for Active; 'I' for Inactive)
REMARK    1  A    between atoms: N_3  and  C_8 
REMARK    2  A    between atoms: N_5  and  C_12 
REMARK    3  A    between atoms: C_8  and  C_11 
REMARK    4  A    between atoms: C_11  and  C_12 
ROOT
HETATM    1 Cl   UNK N   1      28.205  16.724   5.735  0.00  0.00    -0.084 Cl
HETATM    2  S   UNK N   1      23.978  20.595   3.049  0.00  0.00    -0.086 SA
HETATM    3  N   UNK N   1      23.343  17.660   4.203  0.00  0.00    -0.345 N 
HETATM    4  C   UNK N   1      24.692  18.148   4.286  0.00  0.00     0.053 A 
HETATM    5  C   UNK N   1      22.271  18.399   3.591  0.00  0.00     0.052 A 
HETATM    6  C   UNK N   1      25.081  19.423   3.812  0.00  0.00     0.032 A 
HETATM    7  C   UNK N   1      22.443  19.691   3.040  0.00  0.00     0.032 A 
HETATM    8  C   UNK N   1      25.682  17.332   4.880  0.00  0.00     0.054 A 
HETATM    9  C   UNK N   1      20.984  17.825   3.532  0.00  0.00     0.031 A 
HETATM   10  C   UNK N   1      26.411  19.843   3.949  0.00  0.00     0.023 A 
HETATM   11  C   UNK N   1      21.353  20.350   2.457  0.00  0.00     0.021 A 
HETATM   12  C   UNK N   1      27.003  17.762   5.001  0.00  0.00     0.036 A 
HETATM   13  C   UNK N   1      19.910  18.489   2.944  0.00  0.00     0.002 A 
HETATM   14  C   UNK N   1      27.367  19.022   4.538  0.00  0.00     0.025 A 
HETATM   15  C   UNK N   1      20.095  19.755   2.403  0.00  0.00     0.002 A 
ENDROOT
BRANCH   3  16
HETATM   16  C   UNK N   1      23.037  16.399   4.877  0.00  0.00     0.131 C 
BRANCH  16  17
HETATM   17  C   UNK N   1      22.392  16.577   6.246  0.00  0.00     0.050 C 
BRANCH  17  18
HETATM   18  C   UNK N   1      21.605  15.308   6.547  0.00  0.00     0.274 C 
BRANCH  18  19
HETATM   19  N   UNK N   1      21.833  14.832   7.906  0.00  0.00     0.091 N 
HETATM   20  C   UNK N   1      22.594  13.580   7.829  0.00  0.00     0.302 C 
HETATM   21  C   UNK N   1      22.730  12.962   9.222  0.00  0.00     0.302 C 
HETATM   22  N   UNK N   1      21.403  12.673   9.761  0.00  0.00     0.087 N 
HETATM   23  C   UNK N   1      20.647  13.920   9.853  0.00  0.00     0.302 C 
HETATM   24  C   UNK N   1      21.581  12.173  11.112  0.00  0.00     0.310 C 
HETATM   25  C   UNK N   1      20.511  14.544   8.465  0.00  0.00     0.302 C 
ENDBRANCH  18  19
ENDBRANCH  17  18
ENDBRANCH  16  17
ENDBRANCH   3  16
TORSDOF 4
ENDMDL
MODEL 6
REMARK VINA RESULT:      -6.3     11.262     15.058
REMARK  4 active torsions:
REMARK  status: ('A' for Active; 'I' for Inactive)
REMARK    1  A    between atoms: N_3  and  C_8 
REMARK    2  A    between atoms: N_5  and  C_12 
REMARK    3  A    between atoms: C_8  and  C_11 
REMARK    4  A    between atoms: C_11  and  C_12 
ROOT
HETATM    1 Cl   UNK N   1      20.125  19.027   3.018  0.00  0.00    -0.084 Cl
HETATM    2  S   UNK N   1      26.344  19.994   3.690  0.00  0.00    -0.086 SA
HETATM    3  N   UNK N   1      24.770  17.330   4.569  0.00  0.00    -0.345 N 
HETATM    4  C   UNK N   1      24.017  18.404   3.982  0.00  0.00     0.053 A 
HETATM    5  C   UNK N   1      26.184  17.402   4.824  0.00  0.00     0.052 A 
HETATM    6  C   UNK N   1      24.609  19.618   3.558  0.00  0.00     0.032 A 
HETATM    7  C   UNK N   1      26.970  18.530   4.491  0.00  0.00     0.032 A 
HETATM    8  C   UNK N   1      22.625  18.247   3.800  0.00  0.00     0.054 A 
HETATM    9  C   UNK N   1      26.833  16.306   5.430  0.00  0.00     0.031 A 
HETATM   10  C   UNK N   1      23.816  20.612   2.970  0.00  0.00     0.023 A 
HETATM   11  C   UNK N   1      28.342  18.531   4.772  0.00  0.00     0.021 A 
HETATM   12  C   UNK N   1      21.849  19.251   3.220  0.00  0.00     0.036 A 
HETATM   13  C   UNK N   1      28.197  16.322   5.710  0.00  0.00     0.002 A 
HETATM   14  C   UNK N   1      22.447  20.434   2.802  0.00  0.00     0.025 A 
HETATM   15  C   UNK N   1      28.954  17.439   5.381  0.00  0.00     0.002 A 
ENDROOT
BRANCH   3  16
HETATM   16  C   UNK N   1      24.072  16.067   4.810  0.00  0.00     0.131 C 
BRANCH  16  17
HETATM   17  C   UNK N   1      23.666  15.860   6.264  0.00  0.00     0.050 C 
BRANCH  17  18
HETATM   18  C   UNK N   1      22.193  15.472   6.273  0.00  0.00     0.274 C 
BRANCH  18  19
HETATM   19  N   UNK N   1      21.488  16.029   7.421  0.00  0.00     0.091 N 
HETATM   20  C   UNK N   1      20.433  15.085   7.810  0.00  0.00     0.302 C 
HETATM   21  C   UNK N   1      19.568  15.693   8.916  0.00  0.00     0.302 C 
HETATM   22  N   UNK N   1      18.944  16.922   8.431  0.00  0.00     0.087 N 
HETATM   23  C   UNK N   1      19.991  17.870   8.057  0.00  0.00     0.302 C 
HETATM   24  C   UNK N   1      18.208  17.504   9.538  0.00  0.00     0.310 C 
HETATM   25  C   UNK N   1      20.862  17.267   6.954  0.00  0.00     0.302 C 
ENDBRANCH  18  19
ENDBRANCH  17  18
ENDBRANCH  16  17
ENDBRANCH   3  16
TORSDOF 4
ENDMDL
MODEL 7
REMARK VINA RESULT:      -6.3      2.825      4.807
REMARK  4 active torsions:
REMARK  status: ('A' for Active; 'I' for Inactive)
REMARK    1  A    between atoms: N_3  and  C_8 
REMARK    2  A    between atoms: N_5  and  C_12 
REMARK    3  A    between atoms: C_8  and  C_11 
REMARK    4  A    between atoms: C_11  and  C_12 
ROOT
HETATM    1 Cl   UNK N   1      37.682   8.773  10.858  0.00  0.00    -0.084 Cl
HETATM    2  S   UNK N   1      35.526   9.582  16.754  0.00  0.00    -0.086 SA
HETATM    3  N   UNK N   1      36.421  11.942  14.760  0.00  0.00    -0.345 N 
HETATM    4  C   UNK N   1      36.519  10.585  14.297  0.00  0.00     0.053 A 
HETATM    5  C   UNK N   1      35.984  12.296  16.085  0.00  0.00     0.052 A 
HETATM    6  C   UNK N   1      36.151   9.472  15.090  0.00  0.00     0.032 A 
HETATM    7  C   UNK N   1      35.582  11.339  17.045  0.00  0.00     0.032 A 
HETATM    8  C   UNK N   1      36.989  10.339  12.988  0.00  0.00     0.054 A 
HETATM    9  C   UNK N   1      35.946  13.656  16.458  0.00  0.00     0.031 A 
HETATM   10  C   UNK N   1      36.250   8.178  14.564  0.00  0.00     0.023 A 
HETATM   11  C   UNK N   1      35.171  11.757  18.318  0.00  0.00     0.021 A 
HETATM   12  C   UNK N   1      37.089   9.043  12.482  0.00  0.00     0.036 A 
HETATM   13  C   UNK N   1      35.542  14.059  17.728  0.00  0.00     0.002 A 
HETATM   14  C   UNK N   1      36.715   7.960  13.271  0.00  0.00     0.025 A 
HETATM   15  C   UNK N   1      35.154  13.106  18.662  0.00  0.00     0.002 A 
ENDROOT
BRANCH   3  16
HETATM   16  C   UNK N   1      36.672  13.008  13.791  0.00  0.00     0.131 C 
BRANCH  16  17
HETATM   17  C   UNK N   1      35.413  13.518  13.101  0.00  0.00     0.050 C 
BRANCH  17  18
HETATM   18  C   UNK N   1      35.740  14.883  12.510  0.00  0.00     0.274 C 
BRANCH  18  19
HETATM   19  N   UNK N   1      34.926  15.181  11.338  0.00  0.00     0.091 N 
HETATM   20  C   UNK N   1      35.229  14.183  10.306  0.00  0.00     0.302 C 
HETATM   21  C   UNK N   1      34.511  14.541   9.003  0.00  0.00     0.302 C 
HETATM   22  N   UNK N   1      34.963  15.850   8.538  0.00  0.00     0.087 N 
HETATM   23  C   UNK N   1      34.649  16.849   9.557  0.00  0.00     0.302 C 
HETATM   24  C   UNK N   1      34.192  16.182   7.354  0.00  0.00     0.310 C 
HETATM   25  C   UNK N   1      35.361  16.495  10.862  0.00  0.00     0.302 C 
ENDBRANCH  18  19
ENDBRANCH  17  18
ENDBRANCH  16  17
ENDBRANCH   3  16
TORSDOF 4
ENDMDL
MODEL 8
REMARK VINA RESULT:      -6.2     11.557     15.208
REMARK  4 active torsions:
REMARK  status: ('A' for Active; 'I' for Inactive)
REMARK    1  A    between atoms: N_3  and  C_8 
REMARK    2  A    between atoms: N_5  and  C_12 
REMARK    3  A    between atoms: C_8  and  C_11 
REMARK    4  A    between atoms: C_11  and  C_12 
ROOT
HETATM    1 Cl   UNK N   1      19.484  19.279   2.693  0.00  0.00    -0.084 Cl
HETATM    2  S   UNK N   1      25.674  19.509   3.994  0.00  0.00    -0.086 SA
HETATM    3  N   UNK N   1      23.688  17.116   4.816  0.00  0.00    -0.345 N 
HETATM    4  C   UNK N   1      23.144  18.238   4.102  0.00  0.00     0.053 A 
HETATM    5  C   UNK N   1      25.066  17.028   5.219  0.00  0.00     0.052 A 
HETATM    6  C   UNK N   1      23.927  19.343   3.690  0.00  0.00     0.032 A 
HETATM    7  C   UNK N   1      26.021  18.029   4.923  0.00  0.00     0.032 A 
HETATM    8  C   UNK N   1      21.769  18.244   3.777  0.00  0.00     0.054 A 
HETATM    9  C   UNK N   1      25.502  15.897   5.942  0.00  0.00     0.031 A 
HETATM   10  C   UNK N   1      23.333  20.391   2.975  0.00  0.00     0.023 A 
HETATM   11  C   UNK N   1      27.346  17.877   5.352  0.00  0.00     0.021 A 
HETATM   12  C   UNK N   1      21.192  19.300   3.071  0.00  0.00     0.036 A 
HETATM   13  C   UNK N   1      26.821  15.761   6.367  0.00  0.00     0.002 A 
HETATM   14  C   UNK N   1      21.977  20.374   2.667  0.00  0.00     0.025 A 
HETATM   15  C   UNK N   1      27.746  16.755   6.072  0.00  0.00     0.002 A 
ENDROOT
BRANCH   3  16
HETATM   16  C   UNK N   1      22.813  15.965   5.036  0.00  0.00     0.131 C 
BRANCH  16  17
HETATM   17  C   UNK N   1      21.936  16.091   6.277  0.00  0.00     0.050 C 
BRANCH  17  18
HETATM   18  C   UNK N   1      20.795  15.093   6.130  0.00  0.00     0.274 C 
BRANCH  18  19
HETATM   19  N   UNK N   1      20.647  14.254   7.313  0.00  0.00     0.091 N 
HETATM   20  C   UNK N   1      20.924  15.079   8.495  0.00  0.00     0.302 C 
HETATM   21  C   UNK N   1      20.927  14.208   9.753  0.00  0.00     0.302 C 
HETATM   22  N   UNK N   1      21.965  13.186   9.639  0.00  0.00     0.087 N 
HETATM   23  C   UNK N   1      21.684  12.353   8.472  0.00  0.00     0.302 C 
HETATM   24  C   UNK N   1      21.870  12.336  10.811  0.00  0.00     0.310 C 
HETATM   25  C   UNK N   1      21.676  13.218   7.212  0.00  0.00     0.302 C 
ENDBRANCH  18  19
ENDBRANCH  17  18
ENDBRANCH  16  17
ENDBRANCH   3  16
TORSDOF 4
ENDMDL
MODEL 9
REMARK VINA RESULT:      -6.2     18.440     22.299
REMARK  4 active torsions:
REMARK  status: ('A' for Active; 'I' for Inactive)
REMARK    1  A    between atoms: N_3  and  C_8 
REMARK    2  A    between atoms: N_5  and  C_12 
REMARK    3  A    between atoms: C_8  and  C_11 
REMARK    4  A    between atoms: C_11  and  C_12 
ROOT
HETATM    1 Cl   UNK N   1      28.703  29.772  -2.924  0.00  0.00    -0.084 Cl
HETATM    2  S   UNK N   1      26.736  26.654  -8.069  0.00  0.00    -0.086 SA
HETATM    3  N   UNK N   1      26.792  25.464  -5.081  0.00  0.00    -0.345 N 
HETATM    4  C   UNK N   1      27.255  26.809  -5.288  0.00  0.00     0.053 A 
HETATM    5  C   UNK N   1      26.345  24.608  -6.148  0.00  0.00     0.052 A 
HETATM    6  C   UNK N   1      27.272  27.431  -6.559  0.00  0.00     0.032 A 
HETATM    7  C   UNK N   1      26.293  25.025  -7.499  0.00  0.00     0.032 A 
HETATM    8  C   UNK N   1      27.703  27.559  -4.178  0.00  0.00     0.054 A 
HETATM    9  C   UNK N   1      25.934  23.292  -5.850  0.00  0.00     0.031 A 
HETATM   10  C   UNK N   1      27.714  28.754  -6.682  0.00  0.00     0.023 A 
HETATM   11  C   UNK N   1      25.850  24.135  -8.486  0.00  0.00     0.021 A 
HETATM   12  C   UNK N   1      28.148  28.874  -4.319  0.00  0.00     0.036 A 
HETATM   13  C   UNK N   1      25.501  22.415  -6.842  0.00  0.00     0.002 A 
HETATM   14  C   UNK N   1      28.150  29.473  -5.574  0.00  0.00     0.025 A 
HETATM   15  C   UNK N   1      25.460  22.838  -8.164  0.00  0.00     0.002 A 
ENDROOT
BRANCH   3  16
HETATM   16  C   UNK N   1      26.668  24.996  -3.701  0.00  0.00     0.131 C 
BRANCH  16  17
HETATM   17  C   UNK N   1      27.666  23.905  -3.333  0.00  0.00     0.050 C 
BRANCH  17  18
HETATM   18  C   UNK N   1      29.050  24.540  -3.323  0.00  0.00     0.274 C 
BRANCH  18  19
HETATM   19  N   UNK N   1      30.076  23.624  -3.806  0.00  0.00     0.091 N 
HETATM   20  C   UNK N   1      29.474  22.762  -4.829  0.00  0.00     0.302 C 
HETATM   21  C   UNK N   1      30.470  21.684  -5.260  0.00  0.00     0.302 C 
HETATM   22  N   UNK N   1      30.832  20.862  -4.107  0.00  0.00     0.087 N 
HETATM   23  C   UNK N   1      31.446  21.714  -3.092  0.00  0.00     0.302 C 
HETATM   24  C   UNK N   1      31.840  19.915  -4.546  0.00  0.00     0.310 C 
HETATM   25  C   UNK N   1      30.457  22.796  -2.660  0.00  0.00     0.302 C 
ENDBRANCH  18  19
ENDBRANCH  17  18
ENDBRANCH  16  17
ENDBRANCH   3  16
TORSDOF 4
ENDMDL
