MODEL 1
REMARK VINA RESULT:      -7.6      0.000      0.000
REMARK  0 active torsions:
REMARK  status: ('A' for Active; 'I' for Inactive)
ROOT
HETATM    1  N   UNK N   1      35.608  13.253  12.118  0.00  0.00     0.084 N 
HETATM    2  C   UNK N   1      36.367  11.698  14.432  0.00  0.00    -0.065 C 
HETATM    3  C   UNK N   1      36.517  13.192  14.439  0.00  0.00     0.065 C 
HETATM    4  C   UNK N   1      36.647  11.176  13.052  0.00  0.00     0.065 C 
HETATM    5  C   UNK N   1      35.484  13.790  13.481  0.00  0.00     0.276 C 
HETATM    6  C   UNK N   1      35.619  11.782  12.088  0.00  0.00     0.276 C 
HETATM    7  C   UNK N   1      36.028  10.908  15.557  0.00  0.00    -0.011 C 
HETATM    8  C   UNK N   1      35.723  11.629  16.901  0.00  0.00    -0.015 A 
HETATM    9  C   UNK N   1      35.933   9.365  15.383  0.00  0.00    -0.015 A 
HETATM   10  C   UNK N   1      36.803  13.781  11.477  0.00  0.00     0.309 C 
HETATM   11  C   UNK N   1      35.625  11.046  18.202  0.00  0.00    -0.025 A 
HETATM   12  C   UNK N   1      35.875   8.375  16.415  0.00  0.00    -0.025 A 
HETATM   13  C   UNK N   1      35.486  13.024  16.853  0.00  0.00     0.013 A 
HETATM   14  C   UNK N   1      35.894   8.854  14.063  0.00  0.00     0.013 A 
HETATM   15  C   UNK N   1      35.815   9.663  18.571  0.00  0.00     0.013 C 
HETATM   16  C   UNK N   1      35.916   8.579  17.845  0.00  0.00     0.013 C 
HETATM   17  C   UNK N   1      35.342  11.853  19.318  0.00  0.00     0.012 A 
HETATM   18  C   UNK N   1      35.806   7.012  16.083  0.00  0.00     0.012 A 
HETATM   19  C   UNK N   1      35.200  13.807  17.964  0.00  0.00     0.001 A 
HETATM   20  C   UNK N   1      35.821   7.502  13.752  0.00  0.00     0.001 A 
HETATM   21  C   UNK N   1      35.130  13.217  19.207  0.00  0.00     0.001 A 
HETATM   22  C   UNK N   1      35.778   6.574  14.770  0.00  0.00     0.001 A 
ENDROOT
TORSDOF 0
ENDMDL
MODEL 2
REMARK VINA RESULT:      -7.6     22.545     26.119
REMARK  0 active torsions:
REMARK  status: ('A' for Active; 'I' for Inactive)
ROOT
HETATM    1  N   UNK N   1      25.671  26.668  -4.367  0.00  0.00     0.084 N 
HETATM    2  C   UNK N   1      27.574  24.864  -5.581  0.00  0.00    -0.065 C 
HETATM    3  C   UNK N   1      28.013  25.824  -4.514  0.00  0.00     0.065 C 
HETATM    4  C   UNK N   1      26.507  25.506  -6.421  0.00  0.00     0.065 C 
HETATM    5  C   UNK N   1      26.815  26.134  -3.614  0.00  0.00     0.276 C 
HETATM    6  C   UNK N   1      25.309  25.826  -5.518  0.00  0.00     0.276 C 
HETATM    7  C   UNK N   1      28.097  23.562  -5.770  0.00  0.00    -0.011 C 
HETATM    8  C   UNK N   1      29.168  23.044  -4.768  0.00  0.00    -0.015 A 
HETATM    9  C   UNK N   1      27.544  22.699  -6.940  0.00  0.00    -0.015 A 
HETATM   10  C   UNK N   1      25.949  28.029  -4.803  0.00  0.00     0.309 C 
HETATM   11  C   UNK N   1      30.014  21.900  -4.908  0.00  0.00    -0.025 A 
HETATM   12  C   UNK N   1      28.102  21.493  -7.472  0.00  0.00    -0.025 A 
HETATM   13  C   UNK N   1      29.325  23.756  -3.555  0.00  0.00     0.013 A 
HETATM   14  C   UNK N   1      26.350  23.131  -7.567  0.00  0.00     0.013 A 
HETATM   15  C   UNK N   1      30.090  20.984  -6.023  0.00  0.00     0.013 C 
HETATM   16  C   UNK N   1      29.312  20.818  -7.062  0.00  0.00     0.013 C 
HETATM   17  C   UNK N   1      30.935  21.575  -3.898  0.00  0.00     0.012 A 
HETATM   18  C   UNK N   1      27.480  20.841  -8.550  0.00  0.00     0.012 A 
HETATM   19  C   UNK N   1      30.235  23.419  -2.562  0.00  0.00     0.001 A 
HETATM   20  C   UNK N   1      25.745  22.471  -8.630  0.00  0.00     0.001 A 
HETATM   21  C   UNK N   1      31.049  22.320  -2.736  0.00  0.00     0.001 A 
HETATM   22  C   UNK N   1      26.315  21.318  -9.125  0.00  0.00     0.001 A 
ENDROOT
TORSDOF 0
ENDMDL
MODEL 3
REMARK VINA RESULT:      -7.5     11.445     13.964
REMARK  0 active torsions:
REMARK  status: ('A' for Active; 'I' for Inactive)
ROOT
HETATM    1  N   UNK N   1      25.988  16.201   3.864  0.00  0.00     0.084 N 
HETATM    2  C   UNK N   1      28.461  16.060   5.353  0.00  0.00    -0.065 C 
HETATM    3  C   UNK N   1      28.361  15.445   3.987  0.00  0.00     0.065 C 
HETATM    4  C   UNK N   1      27.146  15.910   6.064  0.00  0.00     0.065 C 
HETATM    5  C   UNK N   1      27.294  16.198   3.189  0.00  0.00     0.276 C 
HETATM    6  C   UNK N   1      26.073  16.657   5.260  0.00  0.00     0.276 C 
HETATM    7  C   UNK N   1      29.619  16.674   5.886  0.00  0.00    -0.011 C 
HETATM    8  C   UNK N   1      30.880  16.783   4.983  0.00  0.00    -0.015 A 
HETATM    9  C   UNK N   1      29.560  17.247   7.331  0.00  0.00    -0.015 A 
HETATM   10  C   UNK N   1      25.386  14.878   3.799  0.00  0.00     0.309 C 
HETATM   11  C   UNK N   1      32.214  17.109   5.380  0.00  0.00    -0.025 A 
HETATM   12  C   UNK N   1      30.660  17.654   8.151  0.00  0.00    -0.025 A 
HETATM   13  C   UNK N   1      30.708  16.563   3.595  0.00  0.00     0.013 A 
HETATM   14  C   UNK N   1      28.284  17.397   7.927  0.00  0.00     0.013 A 
HETATM   15  C   UNK N   1      32.701  17.381   6.713  0.00  0.00     0.013 C 
HETATM   16  C   UNK N   1      32.070  17.603   7.837  0.00  0.00     0.013 C 
HETATM   17  C   UNK N   1      33.243  17.162   4.424  0.00  0.00     0.012 A 
HETATM   18  C   UNK N   1      30.432  18.140   9.450  0.00  0.00     0.012 A 
HETATM   19  C   UNK N   1      31.734  16.626   2.660  0.00  0.00     0.001 A 
HETATM   20  C   UNK N   1      28.076  17.885   9.211  0.00  0.00     0.001 A 
HETATM   21  C   UNK N   1      33.012  16.926   3.079  0.00  0.00     0.001 A 
HETATM   22  C   UNK N   1      29.158  18.257   9.979  0.00  0.00     0.001 A 
ENDROOT
TORSDOF 0
ENDMDL
MODEL 4
REMARK VINA RESULT:      -7.4      1.361      4.439
REMARK  0 active torsions:
REMARK  status: ('A' for Active; 'I' for Inactive)
ROOT
HETATM    1  N   UNK N   1      36.556  13.677  12.269  0.00  0.00     0.084 N 
HETATM    2  C   UNK N   1      35.975  11.762  14.354  0.00  0.00    -0.065 C 
HETATM    3  C   UNK N   1      36.297  11.296  12.963  0.00  0.00     0.065 C 
HETATM    4  C   UNK N   1      35.206  13.050  14.282  0.00  0.00     0.065 C 
HETATM    5  C   UNK N   1      37.182  12.347  12.289  0.00  0.00     0.276 C 
HETATM    6  C   UNK N   1      36.089  14.103  13.597  0.00  0.00     0.276 C 
HETATM    7  C   UNK N   1      36.332  11.083  15.543  0.00  0.00    -0.011 C 
HETATM    8  C   UNK N   1      37.176   9.782  15.426  0.00  0.00    -0.015 A 
HETATM    9  C   UNK N   1      35.903  11.694  16.908  0.00  0.00    -0.015 A 
HETATM   10  C   UNK N   1      35.458  13.701  11.314  0.00  0.00     0.309 C 
HETATM   11  C   UNK N   1      37.420   8.805  16.441  0.00  0.00    -0.025 A 
HETATM   12  C   UNK N   1      35.917  11.057  18.190  0.00  0.00    -0.025 A 
HETATM   13  C   UNK N   1      37.808   9.524  14.186  0.00  0.00     0.013 A 
HETATM   14  C   UNK N   1      35.445  13.034  16.913  0.00  0.00     0.013 A 
HETATM   15  C   UNK N   1      36.916   8.787  17.795  0.00  0.00     0.013 C 
HETATM   16  C   UNK N   1      36.307   9.702  18.504  0.00  0.00     0.013 C 
HETATM   17  C   UNK N   1      38.212   7.678  16.160  0.00  0.00     0.012 A 
HETATM   18  C   UNK N   1      35.478  11.752  19.329  0.00  0.00     0.012 A 
HETATM   19  C   UNK N   1      38.593   8.409  13.925  0.00  0.00     0.001 A 
HETATM   20  C   UNK N   1      35.019  13.708  18.051  0.00  0.00     0.001 A 
HETATM   21  C   UNK N   1      38.795   7.477  14.920  0.00  0.00     0.001 A 
HETATM   22  C   UNK N   1      35.034  13.062  19.268  0.00  0.00     0.001 A 
ENDROOT
TORSDOF 0
ENDMDL
MODEL 5
REMARK VINA RESULT:      -7.3     15.267     18.439
REMARK  0 active torsions:
REMARK  status: ('A' for Active; 'I' for Inactive)
ROOT
HETATM    1  N   UNK N   1      22.881  14.677   6.761  0.00  0.00     0.084 N 
HETATM    2  C   UNK N   1      23.789  16.534   4.741  0.00  0.00    -0.065 C 
HETATM    3  C   UNK N   1      22.413  15.937   4.661  0.00  0.00     0.065 C 
HETATM    4  C   UNK N   1      24.739  15.520   5.309  0.00  0.00     0.065 C 
HETATM    5  C   UNK N   1      21.950  15.586   6.077  0.00  0.00     0.276 C 
HETATM    6  C   UNK N   1      24.271  15.159   6.726  0.00  0.00     0.276 C 
HETATM    7  C   UNK N   1      24.133  17.844   4.331  0.00  0.00    -0.011 C 
HETATM    8  C   UNK N   1      23.002  18.776   3.810  0.00  0.00    -0.015 A 
HETATM    9  C   UNK N   1      25.613  18.302   4.464  0.00  0.00    -0.015 A 
HETATM   10  C   UNK N   1      22.793  13.343   6.187  0.00  0.00     0.309 C 
HETATM   11  C   UNK N   1      23.144  20.013   3.108  0.00  0.00    -0.025 A 
HETATM   12  C   UNK N   1      26.224  19.454   3.875  0.00  0.00    -0.025 A 
HETATM   13  C   UNK N   1      21.666  18.389   4.072  0.00  0.00     0.013 A 
HETATM   14  C   UNK N   1      26.478  17.507   5.255  0.00  0.00     0.013 A 
HETATM   15  C   UNK N   1      24.365  20.664   2.695  0.00  0.00     0.013 C 
HETATM   16  C   UNK N   1      25.616  20.437   3.008  0.00  0.00     0.013 C 
HETATM   17  C   UNK N   1      22.004  20.731   2.705  0.00  0.00     0.012 A 
HETATM   18  C   UNK N   1      27.589  19.716   4.084  0.00  0.00     0.012 A 
HETATM   19  C   UNK N   1      20.549  19.113   3.674  0.00  0.00     0.001 A 
HETATM   20  C   UNK N   1      27.825  17.783   5.456  0.00  0.00     0.001 A 
HETATM   21  C   UNK N   1      20.720  20.293   2.983  0.00  0.00     0.001 A 
HETATM   22  C   UNK N   1      28.385  18.895   4.865  0.00  0.00     0.001 A 
ENDROOT
TORSDOF 0
ENDMDL
MODEL 6
REMARK VINA RESULT:      -7.2     11.488     13.254
REMARK  0 active torsions:
REMARK  status: ('A' for Active; 'I' for Inactive)
ROOT
HETATM    1  N   UNK N   1      26.588  15.659   3.726  0.00  0.00     0.084 N 
HETATM    2  C   UNK N   1      28.926  16.979   4.795  0.00  0.00    -0.065 C 
HETATM    3  C   UNK N   1      27.550  17.454   5.165  0.00  0.00     0.065 C 
HETATM    4  C   UNK N   1      28.921  16.496   3.373  0.00  0.00     0.065 C 
HETATM    5  C   UNK N   1      26.582  16.274   5.062  0.00  0.00     0.276 C 
HETATM    6  C   UNK N   1      27.943  15.318   3.266  0.00  0.00     0.276 C 
HETATM    7  C   UNK N   1      30.051  16.997   5.653  0.00  0.00    -0.011 C 
HETATM    8  C   UNK N   1      29.857  17.488   7.116  0.00  0.00    -0.015 A 
HETATM    9  C   UNK N   1      31.414  16.485   5.106  0.00  0.00    -0.015 A 
HETATM   10  C   UNK N   1      25.933  16.536   2.767  0.00  0.00     0.309 C 
HETATM   11  C   UNK N   1      30.870  17.841   8.061  0.00  0.00    -0.025 A 
HETATM   12  C   UNK N   1      32.708  16.661   5.691  0.00  0.00    -0.025 A 
HETATM   13  C   UNK N   1      28.530  17.581   7.602  0.00  0.00     0.013 A 
HETATM   14  C   UNK N   1      31.402  15.755   3.893  0.00  0.00     0.013 A 
HETATM   15  C   UNK N   1      32.301  17.851   7.865  0.00  0.00     0.013 C 
HETATM   16  C   UNK N   1      33.047  17.371   6.903  0.00  0.00     0.013 C 
HETATM   17  C   UNK N   1      30.513  18.270   9.351  0.00  0.00     0.012 A 
HETATM   18  C   UNK N   1      33.849  16.143   5.053  0.00  0.00     0.012 A 
HETATM   19  C   UNK N   1      28.194  18.000   8.882  0.00  0.00     0.001 A 
HETATM   20  C   UNK N   1      32.539  15.244   3.278  0.00  0.00     0.001 A 
HETATM   21  C   UNK N   1      29.194  18.350   9.764  0.00  0.00     0.001 A 
HETATM   22  C   UNK N   1      33.772  15.442   3.862  0.00  0.00     0.001 A 
ENDROOT
TORSDOF 0
ENDMDL
MODEL 7
REMARK VINA RESULT:      -7.2     21.741     24.791
REMARK  0 active torsions:
REMARK  status: ('A' for Active; 'I' for Inactive)
ROOT
HETATM    1  N   UNK N   1      30.359  20.566  -9.539  0.00  0.00     0.084 N 
HETATM    2  C   UNK N   1      29.935  20.922  -6.702  0.00  0.00    -0.065 C 
HETATM    3  C   UNK N   1      30.824  19.821  -7.205  0.00  0.00     0.065 C 
HETATM    4  C   UNK N   1      28.797  21.121  -7.662  0.00  0.00     0.065 C 
HETATM    5  C   UNK N   1      31.404  20.240  -8.557  0.00  0.00     0.276 C 
HETATM    6  C   UNK N   1      29.378  21.533  -9.022  0.00  0.00     0.276 C 
HETATM    7  C   UNK N   1      30.136  21.647  -5.504  0.00  0.00    -0.011 C 
HETATM    8  C   UNK N   1      31.403  21.336  -4.656  0.00  0.00    -0.015 A 
HETATM    9  C   UNK N   1      29.107  22.748  -5.117  0.00  0.00    -0.015 A 
HETATM   10  C   UNK N   1      29.689  19.352  -9.980  0.00  0.00     0.309 C 
HETATM   11  C   UNK N   1      31.673  21.736  -3.310  0.00  0.00    -0.025 A 
HETATM   12  C   UNK N   1      28.965  23.399  -3.850  0.00  0.00    -0.025 A 
HETATM   13  C   UNK N   1      32.435  20.592  -5.275  0.00  0.00     0.013 A 
HETATM   14  C   UNK N   1      28.197  23.175  -6.113  0.00  0.00     0.013 A 
HETATM   15  C   UNK N   1      30.822  22.493  -2.422  0.00  0.00     0.013 C 
HETATM   16  C   UNK N   1      29.723  23.169  -2.642  0.00  0.00     0.013 C 
HETATM   17  C   UNK N   1      32.878  21.363  -2.691  0.00  0.00     0.012 A 
HETATM   18  C   UNK N   1      27.965  24.369  -3.663  0.00  0.00     0.012 A 
HETATM   19  C   UNK N   1      33.625  20.237  -4.653  0.00  0.00     0.001 A 
HETATM   20  C   UNK N   1      27.217  24.140  -5.912  0.00  0.00     0.001 A 
HETATM   21  C   UNK N   1      33.847  20.623  -3.349  0.00  0.00     0.001 A 
HETATM   22  C   UNK N   1      27.099  24.740  -4.677  0.00  0.00     0.001 A 
ENDROOT
TORSDOF 0
ENDMDL
MODEL 8
REMARK VINA RESULT:      -7.1     22.813     26.494
REMARK  0 active torsions:
REMARK  status: ('A' for Active; 'I' for Inactive)
ROOT
HETATM    1  N   UNK N   1      26.226  26.926  -5.914  0.00  0.00     0.084 N 
HETATM    2  C   UNK N   1      27.152  24.196  -5.723  0.00  0.00    -0.065 C 
HETATM    3  C   UNK N   1      26.022  24.552  -6.646  0.00  0.00     0.065 C 
HETATM    4  C   UNK N   1      27.077  25.051  -4.491  0.00  0.00     0.065 C 
HETATM    5  C   UNK N   1      26.178  26.015  -7.067  0.00  0.00     0.276 C 
HETATM    6  C   UNK N   1      27.223  26.519  -4.911  0.00  0.00     0.276 C 
HETATM    7  C   UNK N   1      28.126  23.200  -5.975  0.00  0.00    -0.011 C 
HETATM    8  C   UNK N   1      28.077  22.445  -7.334  0.00  0.00    -0.015 A 
HETATM    9  C   UNK N   1      29.222  22.942  -4.902  0.00  0.00    -0.015 A 
HETATM   10  C   UNK N   1      24.909  27.035  -5.304  0.00  0.00     0.309 C 
HETATM   11  C   UNK N   1      28.769  21.247  -7.693  0.00  0.00    -0.025 A 
HETATM   12  C   UNK N   1      30.119  21.829  -4.824  0.00  0.00    -0.025 A 
HETATM   13  C   UNK N   1      27.279  23.003  -8.361  0.00  0.00     0.013 A 
HETATM   14  C   UNK N   1      29.375  23.903  -3.874  0.00  0.00     0.013 A 
HETATM   15  C   UNK N   1      29.646  20.448  -6.869  0.00  0.00     0.013 C 
HETATM   16  C   UNK N   1      30.195  20.686  -5.705  0.00  0.00     0.013 C 
HETATM   17  C   UNK N   1      28.606  20.694  -8.975  0.00  0.00     0.012 A 
HETATM   18  C   UNK N   1      31.047  21.741  -3.772  0.00  0.00     0.012 A 
HETATM   19  C   UNK N   1      27.133  22.450  -9.626  0.00  0.00     0.001 A 
HETATM   20  C   UNK N   1      30.301  23.803  -2.843  0.00  0.00     0.001 A 
HETATM   21  C   UNK N   1      27.800  21.284  -9.935  0.00  0.00     0.001 A 
HETATM   22  C   UNK N   1      31.143  22.713  -2.792  0.00  0.00     0.001 A 
ENDROOT
TORSDOF 0
ENDMDL
MODEL 9
REMARK VINA RESULT:      -7.1     23.484     26.966
REMARK  0 active torsions:
REMARK  status: ('A' for Active; 'I' for Inactive)
ROOT
HETATM    1  N   UNK N   1      27.219  22.529 -10.329  0.00  0.00     0.084 N 
HETATM    2  C   UNK N   1      26.983  22.847  -7.466  0.00  0.00    -0.065 C 
HETATM    3  C   UNK N   1      27.551  21.583  -8.046  0.00  0.00     0.065 C 
HETATM    4  C   UNK N   1      25.904  23.369  -8.371  0.00  0.00     0.065 C 
HETATM    5  C   UNK N   1      28.177  21.907  -9.404  0.00  0.00     0.276 C 
HETATM    6  C   UNK N   1      26.529  23.685  -9.736  0.00  0.00     0.276 C 
HETATM    7  C   UNK N   1      27.396  23.442  -6.251  0.00  0.00    -0.011 C 
HETATM    8  C   UNK N   1      28.569  22.785  -5.468  0.00  0.00    -0.015 A 
HETATM    9  C   UNK N   1      26.690  24.745  -5.781  0.00  0.00    -0.015 A 
HETATM   10  C   UNK N   1      26.251  21.543 -10.788  0.00  0.00     0.309 C 
HETATM   11  C   UNK N   1      28.971  23.041  -4.120  0.00  0.00    -0.025 A 
HETATM   12  C   UNK N   1      26.754  25.352  -4.486  0.00  0.00    -0.025 A 
HETATM   13  C   UNK N   1      29.362  21.836  -6.156  0.00  0.00     0.013 A 
HETATM   14  C   UNK N   1      25.887  25.433  -6.723  0.00  0.00     0.013 A 
HETATM   15  C   UNK N   1      28.365  23.945  -3.169  0.00  0.00     0.013 C 
HETATM   16  C   UNK N   1      27.465  24.883  -3.319  0.00  0.00     0.013 C 
HETATM   17  C   UNK N   1      30.062  22.350  -3.565  0.00  0.00     0.012 A 
HETATM   18  C   UNK N   1      26.036  26.531  -4.222  0.00  0.00     0.012 A 
HETATM   19  C   UNK N   1      30.442  21.166  -5.596  0.00  0.00     0.001 A 
HETATM   20  C   UNK N   1      25.187  26.601  -6.446  0.00  0.00     0.001 A 
HETATM   21  C   UNK N   1      30.793  21.423  -4.289  0.00  0.00     0.001 A 
HETATM   22  C   UNK N   1      25.262  27.154  -5.185  0.00  0.00     0.001 A 
ENDROOT
TORSDOF 0
ENDMDL
