MODEL 1
REMARK VINA RESULT:      -7.5      0.000      0.000
REMARK  5 active torsions:
REMARK  status: ('A' for Active; 'I' for Inactive)
REMARK    1  A    between atoms: S_2  and  N_12 
REMARK    2  A    between atoms: S_2  and  C_19 
REMARK    3  A    between atoms: C_13  and  C_16 
REMARK    4  A    between atoms: C_16  and  C_21 
REMARK    5  A    between atoms: C_20  and  C_22 
ROOT
HETATM    1  S   UNK N   1      26.719  20.115   4.323  0.00  0.00     0.262 S 
HETATM    2  O   UNK N   1      26.728  20.755   2.932  0.00  0.00    -0.200 OA
HETATM    3  O   UNK N   1      27.075  21.305   5.230  0.00  0.00    -0.200 OA
HETATM    4  N   UNK N   1      28.108  19.052   4.184  0.00  0.00    -0.293 N 
HETATM    5  N   UNK N   1      26.557  17.192   4.768  0.00  0.00    -0.367 N 
HETATM    6  C   UNK N   1      27.915  17.755   4.848  0.00  0.00     0.196 C 
HETATM    7  C   UNK N   1      25.223  19.208   4.378  0.00  0.00     0.107 A 
HETATM    8  C   UNK N   1      25.322  17.831   4.520  0.00  0.00     0.054 A 
HETATM    9  C   UNK N   1      24.029  19.806   4.007  0.00  0.00     0.053 A 
HETATM   10  C   UNK N   1      24.180  17.045   4.313  0.00  0.00     0.048 A 
HETATM   11  C   UNK N   1      22.890  19.032   3.770  0.00  0.00     0.096 A 
HETATM   12  C   UNK N   1      22.965  17.621   3.918  0.00  0.00     0.073 A 
HETATM   13  H   UNK N   1      28.964  19.309   3.692  0.00  0.00     0.174 HD
HETATM   14  H   UNK N   1      26.501  16.220   4.909  0.00  0.00     0.161 HD
ENDROOT
BRANCH   6  15
HETATM   15  C   UNK N   1      28.894  16.788   4.174  0.00  0.00     0.086 C 
BRANCH  15  16
HETATM   16  C   UNK N   1      30.289  16.941   4.683  0.00  0.00    -0.054 A 
HETATM   17  C   UNK N   1      31.350  17.166   3.802  0.00  0.00     0.007 A 
HETATM   18  C   UNK N   1      32.637  17.379   4.304  0.00  0.00     0.001 A 
HETATM   19  C   UNK N   1      32.859  17.382   5.685  0.00  0.00     0.000 A 
HETATM   20  C   UNK N   1      31.797  17.161   6.567  0.00  0.00     0.001 A 
HETATM   21  C   UNK N   1      30.513  16.940   6.065  0.00  0.00     0.007 A 
ENDBRANCH  15  16
ENDBRANCH   6  15
BRANCH  12  22
HETATM   22  C   UNK N   1      21.801  16.713   3.594  0.00  0.00     0.419 C 
HETATM   23  F   UNK N   1      20.651  17.187   4.192  0.00  0.00    -0.166 F 
HETATM   24  F   UNK N   1      22.034  15.427   4.055  0.00  0.00    -0.166 F 
HETATM   25  F   UNK N   1      21.624  16.648   2.223  0.00  0.00    -0.166 F 
ENDBRANCH  12  22
BRANCH  11  26
HETATM   26  S   UNK N   1      21.471  19.879   3.069  0.00  0.00     0.257 S 
HETATM   27  O   UNK N   1      21.892  21.294   2.646  0.00  0.00    -0.201 OA
HETATM   28  O   UNK N   1      20.391  20.200   4.113  0.00  0.00    -0.201 OA
BRANCH  26  29
HETATM   29  N   UNK N   1      20.595  19.258   1.669  0.00  0.00    -0.324 N 
HETATM   30  H   UNK N   1      20.711  18.298   1.344  0.00  0.00     0.169 HD
HETATM   31  H   UNK N   1      19.956  19.877   1.170  0.00  0.00     0.169 HD
ENDBRANCH  26  29
ENDBRANCH  11  26
TORSDOF 5
ENDMDL
MODEL 2
REMARK VINA RESULT:      -7.4      9.916     12.877
REMARK  5 active torsions:
REMARK  status: ('A' for Active; 'I' for Inactive)
REMARK    1  A    between atoms: S_2  and  N_12 
REMARK    2  A    between atoms: S_2  and  C_19 
REMARK    3  A    between atoms: C_13  and  C_16 
REMARK    4  A    between atoms: C_16  and  C_21 
REMARK    5  A    between atoms: C_20  and  C_22 
ROOT
HETATM    1  S   UNK N   1      36.860  13.050  10.403  0.00  0.00     0.262 S 
HETATM    2  O   UNK N   1      36.920  12.009   9.282  0.00  0.00    -0.200 OA
HETATM    3  O   UNK N   1      38.345  13.400  10.598  0.00  0.00    -0.200 OA
HETATM    4  N   UNK N   1      36.318  12.043  11.733  0.00  0.00    -0.293 N 
HETATM    5  N   UNK N   1      34.409  13.628  11.960  0.00  0.00    -0.367 N 
HETATM    6  C   UNK N   1      35.361  12.719  12.621  0.00  0.00     0.196 C 
HETATM    7  C   UNK N   1      35.612  14.167   9.896  0.00  0.00     0.107 A 
HETATM    8  C   UNK N   1      34.488  14.269  10.704  0.00  0.00     0.054 A 
HETATM    9  C   UNK N   1      35.623  14.695   8.616  0.00  0.00     0.053 A 
HETATM   10  C   UNK N   1      33.363  14.947  10.216  0.00  0.00     0.048 A 
HETATM   11  C   UNK N   1      34.498  15.348   8.106  0.00  0.00     0.096 A 
HETATM   12  C   UNK N   1      33.339  15.474   8.918  0.00  0.00     0.073 A 
HETATM   13  H   UNK N   1      36.636  11.084  11.877  0.00  0.00     0.174 HD
HETATM   14  H   UNK N   1      33.590  13.816  12.473  0.00  0.00     0.161 HD
ENDROOT
BRANCH   6  15
HETATM   15  C   UNK N   1      34.579  11.605  13.323  0.00  0.00     0.086 C 
BRANCH  15  16
HETATM   16  C   UNK N   1      34.743  11.641  14.807  0.00  0.00    -0.054 A 
HETATM   17  C   UNK N   1      34.751  10.458  15.552  0.00  0.00     0.007 A 
HETATM   18  C   UNK N   1      34.978  10.509  16.931  0.00  0.00     0.001 A 
HETATM   19  C   UNK N   1      35.211  11.737  17.559  0.00  0.00     0.000 A 
HETATM   20  C   UNK N   1      35.206  12.918  16.812  0.00  0.00     0.001 A 
HETATM   21  C   UNK N   1      34.971  12.870  15.436  0.00  0.00     0.007 A 
ENDBRANCH  15  16
ENDBRANCH   6  15
BRANCH  12  22
HETATM   22  C   UNK N   1      32.057  16.088   8.405  0.00  0.00     0.419 C 
HETATM   23  F   UNK N   1      32.300  17.361   7.928  0.00  0.00    -0.166 F 
HETATM   24  F   UNK N   1      31.112  16.174   9.414  0.00  0.00    -0.166 F 
HETATM   25  F   UNK N   1      31.531  15.302   7.394  0.00  0.00    -0.166 F 
ENDBRANCH  12  22
BRANCH  11  26
HETATM   26  S   UNK N   1      34.536  15.781   6.363  0.00  0.00     0.257 S 
HETATM   27  O   UNK N   1      35.907  15.400   5.785  0.00  0.00    -0.201 OA
HETATM   28  O   UNK N   1      34.535  17.299   6.124  0.00  0.00    -0.201 OA
BRANCH  26  29
HETATM   29  N   UNK N   1      33.384  15.125   5.200  0.00  0.00    -0.324 N 
HETATM   30  H   UNK N   1      32.848  15.728   4.576  0.00  0.00     0.169 HD
HETATM   31  H   UNK N   1      33.250  14.115   5.150  0.00  0.00     0.169 HD
ENDBRANCH  26  29
ENDBRANCH  11  26
TORSDOF 5
ENDMDL
MODEL 3
REMARK VINA RESULT:      -7.1     11.876     13.958
REMARK  5 active torsions:
REMARK  status: ('A' for Active; 'I' for Inactive)
REMARK    1  A    between atoms: S_2  and  N_12 
REMARK    2  A    between atoms: S_2  and  C_19 
REMARK    3  A    between atoms: C_13  and  C_16 
REMARK    4  A    between atoms: C_16  and  C_21 
REMARK    5  A    between atoms: C_20  and  C_22 
ROOT
HETATM    1  S   UNK N   1      27.134  22.527  -8.105  0.00  0.00     0.262 S 
HETATM    2  O   UNK N   1      28.160  22.522  -9.243  0.00  0.00    -0.200 OA
HETATM    3  O   UNK N   1      26.181  21.395  -8.524  0.00  0.00    -0.200 OA
HETATM    4  N   UNK N   1      26.361  24.075  -8.391  0.00  0.00    -0.293 N 
HETATM    5  N   UNK N   1      26.990  24.655  -6.051  0.00  0.00    -0.367 N 
HETATM    6  C   UNK N   1      26.024  24.794  -7.154  0.00  0.00     0.196 C 
HETATM    7  C   UNK N   1      28.099  22.553  -6.646  0.00  0.00     0.107 A 
HETATM    8  C   UNK N   1      27.968  23.661  -5.820  0.00  0.00     0.054 A 
HETATM    9  C   UNK N   1      29.143  21.658  -6.481  0.00  0.00     0.053 A 
HETATM   10  C   UNK N   1      28.895  23.849  -4.786  0.00  0.00     0.048 A 
HETATM   11  C   UNK N   1      30.091  21.848  -5.472  0.00  0.00     0.096 A 
HETATM   12  C   UNK N   1      29.972  22.969  -4.608  0.00  0.00     0.073 A 
HETATM   13  H   UNK N   1      26.165  24.441  -9.323  0.00  0.00     0.174 HD
HETATM   14  H   UNK N   1      26.949  25.364  -5.370  0.00  0.00     0.161 HD
ENDROOT
BRANCH   6  15
HETATM   15  C   UNK N   1      25.921  26.272  -7.540  0.00  0.00     0.086 C 
BRANCH  15  16
HETATM   16  C   UNK N   1      26.141  27.183  -6.379  0.00  0.00    -0.054 A 
HETATM   17  C   UNK N   1      27.189  28.109  -6.386  0.00  0.00     0.007 A 
HETATM   18  C   UNK N   1      27.333  29.001  -5.320  0.00  0.00     0.001 A 
HETATM   19  C   UNK N   1      26.424  28.979  -4.257  0.00  0.00     0.000 A 
HETATM   20  C   UNK N   1      25.374  28.055  -4.253  0.00  0.00     0.001 A 
HETATM   21  C   UNK N   1      25.234  27.158  -5.313  0.00  0.00     0.007 A 
ENDBRANCH  15  16
ENDBRANCH   6  15
BRANCH  12  22
HETATM   22  C   UNK N   1      31.005  23.289  -3.553  0.00  0.00     0.419 C 
HETATM   23  F   UNK N   1      31.099  22.247  -2.652  0.00  0.00    -0.166 F 
HETATM   24  F   UNK N   1      30.663  24.437  -2.857  0.00  0.00    -0.166 F 
HETATM   25  F   UNK N   1      32.235  23.503  -4.150  0.00  0.00    -0.166 F 
ENDBRANCH  12  22
BRANCH  11  26
HETATM   26  S   UNK N   1      31.525  20.767  -5.497  0.00  0.00     0.257 S 
HETATM   27  O   UNK N   1      32.749  21.574  -5.956  0.00  0.00    -0.201 OA
HETATM   28  O   UNK N   1      31.451  19.702  -6.603  0.00  0.00    -0.201 OA
BRANCH  26  29
HETATM   29  N   UNK N   1      32.091  19.911  -4.062  0.00  0.00    -0.324 N 
HETATM   30  H   UNK N   1      32.980  20.138  -3.617  0.00  0.00     0.169 HD
HETATM   31  H   UNK N   1      31.513  19.169  -3.668  0.00  0.00     0.169 HD
ENDBRANCH  26  29
ENDBRANCH  11  26
TORSDOF 5
ENDMDL
MODEL 4
REMARK VINA RESULT:      -7.1      8.444     11.956
REMARK  5 active torsions:
REMARK  status: ('A' for Active; 'I' for Inactive)
REMARK    1  A    between atoms: S_2  and  N_12 
REMARK    2  A    between atoms: S_2  and  C_19 
REMARK    3  A    between atoms: C_13  and  C_16 
REMARK    4  A    between atoms: C_16  and  C_21 
REMARK    5  A    between atoms: C_20  and  C_22 
ROOT
HETATM    1  S   UNK N   1      33.995  17.277   7.728  0.00  0.00     0.262 S 
HETATM    2  O   UNK N   1      34.562  18.103   8.885  0.00  0.00    -0.200 OA
HETATM    3  O   UNK N   1      34.631  17.955   6.503  0.00  0.00    -0.200 OA
HETATM    4  N   UNK N   1      32.302  17.724   7.828  0.00  0.00    -0.293 N 
HETATM    5  N   UNK N   1      31.825  15.289   8.057  0.00  0.00    -0.367 N 
HETATM    6  C   UNK N   1      31.388  16.604   7.559  0.00  0.00     0.196 C 
HETATM    7  C   UNK N   1      34.248  15.614   8.213  0.00  0.00     0.107 A 
HETATM    8  C   UNK N   1      33.118  14.829   8.395  0.00  0.00     0.054 A 
HETATM    9  C   UNK N   1      35.488  15.199   8.667  0.00  0.00     0.053 A 
HETATM   10  C   UNK N   1      33.252  13.584   9.024  0.00  0.00     0.048 A 
HETATM   11  C   UNK N   1      35.632  13.972   9.321  0.00  0.00     0.096 A 
HETATM   12  C   UNK N   1      34.492  13.147   9.511  0.00  0.00     0.073 A 
HETATM   13  H   UNK N   1      31.982  18.667   8.051  0.00  0.00     0.174 HD
HETATM   14  H   UNK N   1      31.105  14.628   8.174  0.00  0.00     0.161 HD
ENDROOT
BRANCH   6  15
HETATM   15  C   UNK N   1      30.061  16.973   8.228  0.00  0.00     0.086 C 
BRANCH  15  16
HETATM   16  C   UNK N   1      29.209  17.842   7.364  0.00  0.00    -0.054 A 
HETATM   17  C   UNK N   1      28.470  18.893   7.917  0.00  0.00     0.007 A 
HETATM   18  C   UNK N   1      27.736  19.739   7.081  0.00  0.00     0.001 A 
HETATM   19  C   UNK N   1      27.752  19.546   5.696  0.00  0.00     0.000 A 
HETATM   20  C   UNK N   1      28.495  18.498   5.144  0.00  0.00     0.001 A 
HETATM   21  C   UNK N   1      29.222  17.646   5.978  0.00  0.00     0.007 A 
ENDBRANCH  15  16
ENDBRANCH   6  15
BRANCH  12  22
HETATM   22  C   UNK N   1      34.553  11.851  10.285  0.00  0.00     0.419 C 
HETATM   23  F   UNK N   1      34.729  12.112  11.630  0.00  0.00    -0.166 F 
HETATM   24  F   UNK N   1      35.611  11.066   9.853  0.00  0.00    -0.166 F 
HETATM   25  F   UNK N   1      33.385  11.134  10.096  0.00  0.00    -0.166 F 
ENDBRANCH  12  22
BRANCH  11  26
HETATM   26  S   UNK N   1      37.228  13.642  10.075  0.00  0.00     0.257 S 
HETATM   27  O   UNK N   1      38.190  14.788   9.730  0.00  0.00    -0.201 OA
HETATM   28  O   UNK N   1      37.958  12.452   9.433  0.00  0.00    -0.201 OA
BRANCH  26  29
HETATM   29  N   UNK N   1      37.427  13.427  11.815  0.00  0.00    -0.324 N 
HETATM   30  H   UNK N   1      37.431  12.502  12.245  0.00  0.00     0.169 HD
HETATM   31  H   UNK N   1      37.541  14.250  12.406  0.00  0.00     0.169 HD
ENDBRANCH  26  29
ENDBRANCH  11  26
TORSDOF 5
ENDMDL
MODEL 5
REMARK VINA RESULT:      -6.9      6.398      8.588
REMARK  5 active torsions:
REMARK  status: ('A' for Active; 'I' for Inactive)
REMARK    1  A    between atoms: S_2  and  N_12 
REMARK    2  A    between atoms: S_2  and  C_19 
REMARK    3  A    between atoms: C_13  and  C_16 
REMARK    4  A    between atoms: C_16  and  C_21 
REMARK    5  A    between atoms: C_20  and  C_22 
ROOT
HETATM    1  S   UNK N   1      32.888  14.559   6.750  0.00  0.00     0.262 S 
HETATM    2  O   UNK N   1      31.979  13.341   6.565  0.00  0.00    -0.200 OA
HETATM    3  O   UNK N   1      33.746  14.519   5.475  0.00  0.00    -0.200 OA
HETATM    4  N   UNK N   1      33.848  14.025   8.117  0.00  0.00    -0.293 N 
HETATM    5  N   UNK N   1      33.069  16.087   9.280  0.00  0.00    -0.367 N 
HETATM    6  C   UNK N   1      34.144  15.101   9.074  0.00  0.00     0.196 C 
HETATM    7  C   UNK N   1      31.798  15.853   7.200  0.00  0.00     0.107 A 
HETATM    8  C   UNK N   1      31.972  16.419   8.455  0.00  0.00     0.054 A 
HETATM    9  C   UNK N   1      30.652  16.092   6.459  0.00  0.00     0.053 A 
HETATM   10  C   UNK N   1      30.978  17.269   8.958  0.00  0.00     0.048 A 
HETATM   11  C   UNK N   1      29.640  16.915   6.960  0.00  0.00     0.096 A 
HETATM   12  C   UNK N   1      29.800  17.513   8.238  0.00  0.00     0.073 A 
HETATM   13  H   UNK N   1      34.170  13.065   8.236  0.00  0.00     0.174 HD
HETATM   14  H   UNK N   1      33.124  16.591  10.123  0.00  0.00     0.161 HD
ENDROOT
BRANCH   6  15
HETATM   15  C   UNK N   1      34.444  14.408  10.407  0.00  0.00     0.086 C 
BRANCH  15  16
HETATM   16  C   UNK N   1      35.863  13.955  10.508  0.00  0.00    -0.054 A 
HETATM   17  C   UNK N   1      36.204  12.842  11.282  0.00  0.00     0.007 A 
HETATM   18  C   UNK N   1      37.527  12.392  11.305  0.00  0.00     0.001 A 
HETATM   19  C   UNK N   1      38.503  13.043  10.544  0.00  0.00     0.000 A 
HETATM   20  C   UNK N   1      38.161  14.154   9.767  0.00  0.00     0.001 A 
HETATM   21  C   UNK N   1      36.841  14.610   9.750  0.00  0.00     0.007 A 
ENDBRANCH  15  16
ENDBRANCH   6  15
BRANCH  12  22
HETATM   22  C   UNK N   1      28.712  18.342   8.883  0.00  0.00     0.419 C 
HETATM   23  F   UNK N   1      27.652  17.533   9.242  0.00  0.00    -0.166 F 
HETATM   24  F   UNK N   1      28.244  19.310   8.009  0.00  0.00    -0.166 F 
HETATM   25  F   UNK N   1      29.211  18.983  10.003  0.00  0.00    -0.166 F 
ENDBRANCH  12  22
BRANCH  11  26
HETATM   26  S   UNK N   1      28.106  16.965   6.029  0.00  0.00     0.257 S 
HETATM   27  O   UNK N   1      28.236  16.051   4.802  0.00  0.00    -0.201 OA
HETATM   28  O   UNK N   1      27.862  18.323   5.352  0.00  0.00    -0.201 OA
BRANCH  26  29
HETATM   29  N   UNK N   1      26.554  16.512   6.736  0.00  0.00    -0.324 N 
HETATM   30  H   UNK N   1      26.141  17.037   7.506  0.00  0.00     0.169 HD
HETATM   31  H   UNK N   1      26.058  15.702   6.365  0.00  0.00     0.169 HD
ENDBRANCH  26  29
ENDBRANCH  11  26
TORSDOF 5
ENDMDL
MODEL 6
REMARK VINA RESULT:      -6.8      5.055      8.726
REMARK  5 active torsions:
REMARK  status: ('A' for Active; 'I' for Inactive)
REMARK    1  A    between atoms: S_2  and  N_12 
REMARK    2  A    between atoms: S_2  and  C_19 
REMARK    3  A    between atoms: C_13  and  C_16 
REMARK    4  A    between atoms: C_16  and  C_21 
REMARK    5  A    between atoms: C_20  and  C_22 
ROOT
HETATM    1  S   UNK N   1      27.849  16.358   3.848  0.00  0.00     0.262 S 
HETATM    2  O   UNK N   1      29.082  16.774   3.041  0.00  0.00    -0.200 OA
HETATM    3  O   UNK N   1      27.495  14.999   3.220  0.00  0.00    -0.200 OA
HETATM    4  N   UNK N   1      26.701  17.568   3.305  0.00  0.00    -0.293 N 
HETATM    5  N   UNK N   1      26.430  18.174   5.707  0.00  0.00    -0.367 N 
HETATM    6  C   UNK N   1      25.814  18.048   4.375  0.00  0.00     0.196 C 
HETATM    7  C   UNK N   1      28.310  16.616   5.516  0.00  0.00     0.107 A 
HETATM    8  C   UNK N   1      27.587  17.558   6.235  0.00  0.00     0.054 A 
HETATM    9  C   UNK N   1      29.511  16.118   5.995  0.00  0.00     0.053 A 
HETATM   10  C   UNK N   1      28.075  17.982   7.478  0.00  0.00     0.048 A 
HETATM   11  C   UNK N   1      30.023  16.553   7.220  0.00  0.00     0.096 A 
HETATM   12  C   UNK N   1      29.296  17.510   7.978  0.00  0.00     0.073 A 
HETATM   13  H   UNK N   1      26.652  17.904   2.344  0.00  0.00     0.174 HD
HETATM   14  H   UNK N   1      25.965  18.782   6.325  0.00  0.00     0.161 HD
ENDROOT
BRANCH   6  15
HETATM   15  C   UNK N   1      25.319  19.425   3.925  0.00  0.00     0.086 C 
BRANCH  15  16
HETATM   16  C   UNK N   1      23.847  19.451   3.679  0.00  0.00    -0.054 A 
HETATM   17  C   UNK N   1      23.002  18.537   4.315  0.00  0.00     0.007 A 
HETATM   18  C   UNK N   1      21.619  18.624   4.128  0.00  0.00     0.001 A 
HETATM   19  C   UNK N   1      21.082  19.632   3.320  0.00  0.00     0.000 A 
HETATM   20  C   UNK N   1      21.928  20.548   2.688  0.00  0.00     0.001 A 
HETATM   21  C   UNK N   1      23.310  20.457   2.868  0.00  0.00     0.007 A 
ENDBRANCH  15  16
ENDBRANCH   6  15
BRANCH  12  22
HETATM   22  C   UNK N   1      29.829  18.092   9.267  0.00  0.00     0.419 C 
HETATM   23  F   UNK N   1      31.085  18.626   9.060  0.00  0.00    -0.166 F 
HETATM   24  F   UNK N   1      29.926  17.117  10.247  0.00  0.00    -0.166 F 
HETATM   25  F   UNK N   1      28.971  19.076   9.728  0.00  0.00    -0.166 F 
ENDBRANCH  12  22
BRANCH  11  26
HETATM   26  S   UNK N   1      31.690  16.027   7.631  0.00  0.00     0.257 S 
HETATM   27  O   UNK N   1      32.680  17.117   7.194  0.00  0.00    -0.201 OA
HETATM   28  O   UNK N   1      32.171  14.843   6.778  0.00  0.00    -0.201 OA
BRANCH  26  29
HETATM   29  N   UNK N   1      32.182  15.641   9.281  0.00  0.00    -0.324 N 
HETATM   30  H   UNK N   1      31.834  14.814   9.766  0.00  0.00     0.169 HD
HETATM   31  H   UNK N   1      32.830  16.263   9.763  0.00  0.00     0.169 HD
ENDBRANCH  26  29
ENDBRANCH  11  26
TORSDOF 5
ENDMDL
MODEL 7
REMARK VINA RESULT:      -6.8      5.425      9.194
REMARK  5 active torsions:
REMARK  status: ('A' for Active; 'I' for Inactive)
REMARK    1  A    between atoms: S_2  and  N_12 
REMARK    2  A    between atoms: S_2  and  C_19 
REMARK    3  A    between atoms: C_13  and  C_16 
REMARK    4  A    between atoms: C_16  and  C_21 
REMARK    5  A    between atoms: C_20  and  C_22 
ROOT
HETATM    1  S   UNK N   1      28.302  18.022   7.243  0.00  0.00     0.262 S 
HETATM    2  O   UNK N   1      27.988  16.761   8.054  0.00  0.00    -0.200 OA
HETATM    3  O   UNK N   1      28.006  19.140   8.257  0.00  0.00    -0.200 OA
HETATM    4  N   UNK N   1      27.012  17.955   6.056  0.00  0.00    -0.293 N 
HETATM    5  N   UNK N   1      28.804  17.998   4.325  0.00  0.00    -0.367 N 
HETATM    6  C   UNK N   1      27.436  18.379   4.714  0.00  0.00     0.196 C 
HETATM    7  C   UNK N   1      29.860  17.698   6.515  0.00  0.00     0.107 A 
HETATM    8  C   UNK N   1      29.912  17.649   5.129  0.00  0.00     0.054 A 
HETATM    9  C   UNK N   1      30.910  17.230   7.288  0.00  0.00     0.053 A 
HETATM   10  C   UNK N   1      31.065  17.145   4.512  0.00  0.00     0.048 A 
HETATM   11  C   UNK N   1      32.054  16.699   6.687  0.00  0.00     0.096 A 
HETATM   12  C   UNK N   1      32.135  16.647   5.270  0.00  0.00     0.073 A 
HETATM   13  H   UNK N   1      26.063  17.652   6.275  0.00  0.00     0.174 HD
HETATM   14  H   UNK N   1      28.972  17.982   3.356  0.00  0.00     0.161 HD
ENDROOT
BRANCH   6  15
HETATM   15  C   UNK N   1      26.445  17.739   3.738  0.00  0.00     0.086 C 
BRANCH  15  16
HETATM   16  C   UNK N   1      25.252  18.601   3.487  0.00  0.00    -0.054 A 
HETATM   17  C   UNK N   1      23.979  18.195   3.899  0.00  0.00     0.007 A 
HETATM   18  C   UNK N   1      22.887  19.049   3.719  0.00  0.00     0.001 A 
HETATM   19  C   UNK N   1      23.070  20.311   3.144  0.00  0.00     0.000 A 
HETATM   20  C   UNK N   1      24.344  20.718   2.736  0.00  0.00     0.001 A 
HETATM   21  C   UNK N   1      25.434  19.862   2.907  0.00  0.00     0.007 A 
ENDBRANCH  15  16
ENDBRANCH   6  15
BRANCH  12  22
HETATM   22  C   UNK N   1      33.300  16.007   4.551  0.00  0.00     0.419 C 
HETATM   23  F   UNK N   1      33.301  16.385   3.223  0.00  0.00    -0.166 F 
HETATM   24  F   UNK N   1      33.218  14.625   4.610  0.00  0.00    -0.166 F 
HETATM   25  F   UNK N   1      34.488  16.389   5.147  0.00  0.00    -0.166 F 
ENDBRANCH  12  22
BRANCH  11  26
HETATM   26  S   UNK N   1      33.244  15.909   7.775  0.00  0.00     0.257 S 
HETATM   27  O   UNK N   1      32.686  15.905   9.205  0.00  0.00    -0.201 OA
HETATM   28  O   UNK N   1      34.522  16.741   7.967  0.00  0.00    -0.201 OA
BRANCH  26  29
HETATM   29  N   UNK N   1      33.799  14.253   7.527  0.00  0.00    -0.324 N 
HETATM   30  H   UNK N   1      34.649  13.900   7.967  0.00  0.00     0.169 HD
HETATM   31  H   UNK N   1      33.255  13.632   6.928  0.00  0.00     0.169 HD
ENDBRANCH  26  29
ENDBRANCH  11  26
TORSDOF 5
ENDMDL
MODEL 8
REMARK VINA RESULT:      -6.6      6.322      9.668
REMARK  5 active torsions:
REMARK  status: ('A' for Active; 'I' for Inactive)
REMARK    1  A    between atoms: S_2  and  N_12 
REMARK    2  A    between atoms: S_2  and  C_19 
REMARK    3  A    between atoms: C_13  and  C_16 
REMARK    4  A    between atoms: C_16  and  C_21 
REMARK    5  A    between atoms: C_20  and  C_22 
ROOT
HETATM    1  S   UNK N   1      29.453  17.791   9.181  0.00  0.00     0.262 S 
HETATM    2  O   UNK N   1      28.978  16.790  10.238  0.00  0.00    -0.200 OA
HETATM    3  O   UNK N   1      29.675  19.063  10.016  0.00  0.00    -0.200 OA
HETATM    4  N   UNK N   1      27.985  17.963   8.236  0.00  0.00    -0.293 N 
HETATM    5  N   UNK N   1      29.345  17.258   6.270  0.00  0.00    -0.367 N 
HETATM    6  C   UNK N   1      28.235  18.073   6.791  0.00  0.00     0.196 C 
HETATM    7  C   UNK N   1      30.691  16.932   8.291  0.00  0.00     0.107 A 
HETATM    8  C   UNK N   1      30.454  16.698   6.943  0.00  0.00     0.054 A 
HETATM    9  C   UNK N   1      31.707  16.274   8.963  0.00  0.00     0.053 A 
HETATM   10  C   UNK N   1      31.284  15.803   6.255  0.00  0.00     0.048 A 
HETATM   11  C   UNK N   1      32.524  15.357   8.297  0.00  0.00     0.096 A 
HETATM   12  C   UNK N   1      32.308  15.109   6.915  0.00  0.00     0.073 A 
HETATM   13  H   UNK N   1      27.052  17.984   8.647  0.00  0.00     0.174 HD
HETATM   14  H   UNK N   1      29.308  17.074   5.304  0.00  0.00     0.161 HD
ENDROOT
BRANCH   6  15
HETATM   15  C   UNK N   1      26.936  17.639   6.106  0.00  0.00     0.086 C 
BRANCH  15  16
HETATM   16  C   UNK N   1      26.462  18.634   5.099  0.00  0.00    -0.054 A 
HETATM   17  C   UNK N   1      27.363  19.498   4.470  0.00  0.00     0.007 A 
HETATM   18  C   UNK N   1      26.909  20.371   3.478  0.00  0.00     0.001 A 
HETATM   19  C   UNK N   1      25.561  20.370   3.104  0.00  0.00     0.000 A 
HETATM   20  C   UNK N   1      24.661  19.503   3.731  0.00  0.00     0.001 A 
HETATM   21  C   UNK N   1      25.112  18.636   4.728  0.00  0.00     0.007 A 
ENDBRANCH  15  16
ENDBRANCH   6  15
BRANCH  12  22
HETATM   22  C   UNK N   1      33.092  14.069   6.149  0.00  0.00     0.419 C 
HETATM   23  F   UNK N   1      34.443  14.345   6.223  0.00  0.00    -0.166 F 
HETATM   24  F   UNK N   1      32.723  14.055   4.813  0.00  0.00    -0.166 F 
HETATM   25  F   UNK N   1      32.842  12.812   6.673  0.00  0.00    -0.166 F 
ENDBRANCH  12  22
BRANCH  11  26
HETATM   26  S   UNK N   1      33.648  14.391   9.310  0.00  0.00     0.257 S 
HETATM   27  O   UNK N   1      33.655  14.966  10.734  0.00  0.00    -0.201 OA
HETATM   28  O   UNK N   1      35.122  14.581   8.917  0.00  0.00    -0.201 OA
BRANCH  26  29
HETATM   29  N   UNK N   1      33.451  12.655   9.552  0.00  0.00    -0.324 N 
HETATM   30  H   UNK N   1      33.949  12.155  10.288  0.00  0.00     0.169 HD
HETATM   31  H   UNK N   1      32.822  12.137   8.938  0.00  0.00     0.169 HD
ENDBRANCH  26  29
ENDBRANCH  11  26
TORSDOF 5
ENDMDL
MODEL 9
REMARK VINA RESULT:      -6.6      5.613      9.251
REMARK  5 active torsions:
REMARK  status: ('A' for Active; 'I' for Inactive)
REMARK    1  A    between atoms: S_2  and  N_12 
REMARK    2  A    between atoms: S_2  and  C_19 
REMARK    3  A    between atoms: C_13  and  C_16 
REMARK    4  A    between atoms: C_16  and  C_21 
REMARK    5  A    between atoms: C_20  and  C_22 
ROOT
HETATM    1  S   UNK N   1      28.783  16.107   3.696  0.00  0.00     0.262 S 
HETATM    2  O   UNK N   1      29.759  16.409   2.556  0.00  0.00    -0.200 OA
HETATM    3  O   UNK N   1      28.157  14.777   3.243  0.00  0.00    -0.200 OA
HETATM    4  N   UNK N   1      27.626  17.405   3.467  0.00  0.00    -0.293 N 
HETATM    5  N   UNK N   1      28.111  18.055   5.823  0.00  0.00    -0.367 N 
HETATM    6  C   UNK N   1      27.128  17.969   4.729  0.00  0.00     0.196 C 
HETATM    7  C   UNK N   1      29.726  16.340   5.152  0.00  0.00     0.107 A 
HETATM    8  C   UNK N   1      29.319  17.348   6.016  0.00  0.00     0.054 A 
HETATM    9  C   UNK N   1      30.971  15.747   5.282  0.00  0.00     0.053 A 
HETATM   10  C   UNK N   1      30.177  17.740   7.052  0.00  0.00     0.048 A 
HETATM   11  C   UNK N   1      31.849  16.148   6.293  0.00  0.00     0.096 A 
HETATM   12  C   UNK N   1      31.449  17.170   7.195  0.00  0.00     0.073 A 
HETATM   13  H   UNK N   1      27.328  17.735   2.548  0.00  0.00     0.174 HD
HETATM   14  H   UNK N   1      27.893  18.706   6.527  0.00  0.00     0.161 HD
ENDROOT
BRANCH   6  15
HETATM   15  C   UNK N   1      26.634  19.380   4.394  0.00  0.00     0.086 C 
BRANCH  15  16
HETATM   16  C   UNK N   1      25.168  19.420   4.116  0.00  0.00    -0.054 A 
HETATM   17  C   UNK N   1      24.632  20.373   3.245  0.00  0.00     0.007 A 
HETATM   18  C   UNK N   1      23.268  20.347   2.942  0.00  0.00     0.001 A 
HETATM   19  C   UNK N   1      22.444  19.362   3.496  0.00  0.00     0.000 A 
HETATM   20  C   UNK N   1      22.981  18.406   4.364  0.00  0.00     0.001 A 
HETATM   21  C   UNK N   1      24.343  18.436   4.674  0.00  0.00     0.007 A 
ENDBRANCH  15  16
ENDBRANCH   6  15
BRANCH  12  22
HETATM   22  C   UNK N   1      32.376  17.717   8.256  0.00  0.00     0.419 C 
HETATM   23  F   UNK N   1      32.798  16.698   9.086  0.00  0.00    -0.166 F 
HETATM   24  F   UNK N   1      31.734  18.671   9.030  0.00  0.00    -0.166 F 
HETATM   25  F   UNK N   1      33.470  18.319   7.659  0.00  0.00    -0.166 F 
ENDBRANCH  12  22
BRANCH  11  26
HETATM   26  S   UNK N   1      33.516  15.486   6.225  0.00  0.00     0.257 S 
HETATM   27  O   UNK N   1      34.466  16.577   5.710  0.00  0.00    -0.201 OA
HETATM   28  O   UNK N   1      33.690  14.416   5.135  0.00  0.00    -0.201 OA
BRANCH  26  29
HETATM   29  N   UNK N   1      34.337  14.840   7.647  0.00  0.00    -0.324 N 
HETATM   30  H   UNK N   1      34.311  13.847   7.878  0.00  0.00     0.169 HD
HETATM   31  H   UNK N   1      34.851  15.478   8.254  0.00  0.00     0.169 HD
ENDBRANCH  26  29
ENDBRANCH  11  26
TORSDOF 5
ENDMDL
