MODEL 1
REMARK VINA RESULT:      -4.9      0.000      0.000
REMARK  0 active torsions:
REMARK  status: ('A' for Active; 'I' for Inactive)
ROOT
HETATM    1  O   UNK N   1      20.914  12.567   9.586  0.00  0.00    -0.267 OA
HETATM    2  N   UNK N   1      25.280  12.966  10.442  0.00  0.00    -0.285 N 
HETATM    3  N   UNK N   1      25.042  13.381   9.198  0.00  0.00    -0.309 N 
HETATM    4  N   UNK N   1      23.886  12.096  12.206  0.00  0.00    -0.337 N 
ATOM      5  HN  UNK N   1      24.653  11.979  12.868  1.00  0.00     0.168 HD
HETATM    6  N   UNK N   1      21.578  11.924  11.647  0.00  0.00    -0.319 N 
ATOM      7  HN  UNK N   1      20.627  11.672  11.914  1.00  0.00     0.169 HD
HETATM    8  C   UNK N   1      23.120  12.754  10.059  0.00  0.00     0.094 A 
HETATM    9  C   UNK N   1      24.108  12.586  10.962  0.00  0.00     0.138 A 
HETATM   10  C   UNK N   1      23.717  13.263   8.930  0.00  0.00     0.128 A 
HETATM   11  C   UNK N   1      21.821  12.424  10.385  0.00  0.00     0.261 A 
HETATM   12  C   UNK N   1      22.604  11.763  12.547  0.00  0.00     0.185 A 
HETATM   13  H   UNK N   1      26.154  12.944  10.894  0.00  0.00     0.188 HD
HETATM   14  H   UNK N   1      25.723  13.720   8.572  0.00  0.00     0.186 HD
ENDROOT
TORSDOF 0
ENDMDL
MODEL 2
REMARK VINA RESULT:      -4.9      1.290      1.745
REMARK  0 active torsions:
REMARK  status: ('A' for Active; 'I' for Inactive)
ROOT
HETATM    1  O   UNK N   1      21.890  14.205   8.628  0.00  0.00    -0.267 OA
HETATM    2  N   UNK N   1      24.245  11.945  11.679  0.00  0.00    -0.285 N 
HETATM    3  N   UNK N   1      25.087  12.532  10.829  0.00  0.00    -0.309 N 
HETATM    4  N   UNK N   1      21.843  11.878  11.870  0.00  0.00    -0.337 N 
ATOM      5  HN  UNK N   1      21.841  11.283  12.698  1.00  0.00     0.168 HD
HETATM    6  N   UNK N   1      20.684  13.114  10.196  0.00  0.00    -0.319 N 
ATOM      7  HN  UNK N   1      19.804  13.430   9.792  1.00  0.00     0.169 HD
HETATM    8  C   UNK N   1      23.047  13.047  10.194  0.00  0.00     0.094 A 
HETATM    9  C   UNK N   1      23.005  12.261  11.289  0.00  0.00     0.138 A 
HETATM   10  C   UNK N   1      24.379  13.221   9.898  0.00  0.00     0.128 A 
HETATM   11  C   UNK N   1      21.876  13.495   9.617  0.00  0.00     0.261 A 
HETATM   12  C   UNK N   1      20.671  12.312  11.312  0.00  0.00     0.185 A 
HETATM   13  H   UNK N   1      24.489  11.384  12.450  0.00  0.00     0.188 HD
HETATM   14  H   UNK N   1      26.069  12.474  10.870  0.00  0.00     0.186 HD
ENDROOT
TORSDOF 0
ENDMDL
MODEL 3
REMARK VINA RESULT:      -4.8     22.086     23.489
REMARK  0 active torsions:
REMARK  status: ('A' for Active; 'I' for Inactive)
ROOT
HETATM    1  O   UNK N   1      42.275  19.793   3.513  0.00  0.00    -0.267 OA
HETATM    2  N   UNK N   1      44.777  23.491   3.363  0.00  0.00    -0.285 N 
HETATM    3  N   UNK N   1      45.457  22.533   3.990  0.00  0.00    -0.309 N 
HETATM    4  N   UNK N   1      42.588  23.600   2.357  0.00  0.00    -0.337 N 
ATOM      5  HN  UNK N   1      42.678  24.573   2.066  1.00  0.00     0.168 HD
HETATM    6  N   UNK N   1      41.339  21.577   2.491  0.00  0.00    -0.319 N 
ATOM      7  HN  UNK N   1      40.484  21.059   2.289  1.00  0.00     0.169 HD
HETATM    8  C   UNK N   1      43.511  21.688   3.416  0.00  0.00     0.094 A 
HETATM    9  C   UNK N   1      43.594  22.973   3.015  0.00  0.00     0.138 A 
HETATM   10  C   UNK N   1      44.703  21.405   4.040  0.00  0.00     0.128 A 
HETATM   11  C   UNK N   1      42.371  20.954   3.160  0.00  0.00     0.261 A 
HETATM   12  C   UNK N   1      41.449  22.888   2.095  0.00  0.00     0.185 A 
HETATM   13  H   UNK N   1      45.086  24.409   3.188  0.00  0.00     0.188 HD
HETATM   14  H   UNK N   1      46.365  22.628   4.359  0.00  0.00     0.186 HD
ENDROOT
TORSDOF 0
ENDMDL
MODEL 4
REMARK VINA RESULT:      -4.6      1.976      3.478
REMARK  0 active torsions:
REMARK  status: ('A' for Active; 'I' for Inactive)
ROOT
HETATM    1  O   UNK N   1      23.806  11.630  13.043  0.00  0.00    -0.267 OA
HETATM    2  N   UNK N   1      21.310  13.076   9.632  0.00  0.00    -0.285 N 
HETATM    3  N   UNK N   1      20.507  12.669  10.615  0.00  0.00    -0.309 N 
HETATM    4  N   UNK N   1      23.704  13.174   9.364  0.00  0.00    -0.337 N 
ATOM      5  HN  UNK N   1      23.667  13.569   8.425  1.00  0.00     0.168 HD
HETATM    6  N   UNK N   1      24.940  12.381  11.239  0.00  0.00    -0.319 N 
ATOM      7  HN  UNK N   1      25.840  12.191  11.679  1.00  0.00     0.169 HD
HETATM    8  C   UNK N   1      22.577  12.372  11.292  0.00  0.00     0.094 A 
HETATM    9  C   UNK N   1      22.568  12.894  10.048  0.00  0.00     0.138 A 
HETATM   10  C   UNK N   1      21.259  12.227  11.656  0.00  0.00     0.128 A 
HETATM   11  C   UNK N   1      23.775  12.101  11.921  0.00  0.00     0.261 A 
HETATM   12  C   UNK N   1      24.902  12.912   9.972  0.00  0.00     0.185 A 
HETATM   13  H   UNK N   1      21.030  13.443   8.762  0.00  0.00     0.188 HD
HETATM   14  H   UNK N   1      19.523  12.685  10.589  0.00  0.00     0.186 HD
ENDROOT
TORSDOF 0
ENDMDL
MODEL 5
REMARK VINA RESULT:      -4.6      1.934      3.537
REMARK  0 active torsions:
REMARK  status: ('A' for Active; 'I' for Inactive)
ROOT
HETATM    1  O   UNK N   1      24.859  13.160   9.469  0.00  0.00    -0.267 OA
HETATM    2  N   UNK N   1      21.357  11.812  11.893  0.00  0.00    -0.285 N 
HETATM    3  N   UNK N   1      22.479  11.484  12.533  0.00  0.00    -0.309 N 
HETATM    4  N   UNK N   1      20.890  12.924   9.805  0.00  0.00    -0.337 N 
ATOM      5  HN  UNK N   1      19.877  12.859   9.901  1.00  0.00     0.168 HD
HETATM    6  N   UNK N   1      22.825  13.601   8.593  0.00  0.00    -0.319 N 
ATOM      7  HN  UNK N   1      23.234  14.047   7.772  1.00  0.00     0.169 HD
HETATM    8  C   UNK N   1      23.058  12.493  10.667  0.00  0.00     0.094 A 
HETATM    9  C   UNK N   1      21.714  12.425  10.759  0.00  0.00     0.138 A 
HETATM   10  C   UNK N   1      23.549  11.891  11.802  0.00  0.00     0.128 A 
HETATM   11  C   UNK N   1      23.649  13.088   9.572  0.00  0.00     0.261 A 
HETATM   12  C   UNK N   1      21.458  13.519   8.712  0.00  0.00     0.185 A 
HETATM   13  H   UNK N   1      20.438  11.636  12.197  0.00  0.00     0.188 HD
HETATM   14  H   UNK N   1      22.524  11.020  13.400  0.00  0.00     0.186 HD
ENDROOT
TORSDOF 0
ENDMDL
MODEL 6
REMARK VINA RESULT:      -4.5      1.958      2.894
REMARK  0 active torsions:
REMARK  status: ('A' for Active; 'I' for Inactive)
ROOT
HETATM    1  O   UNK N   1      25.123  13.474   9.162  0.00  0.00    -0.267 OA
HETATM    2  N   UNK N   1      20.877  12.805  10.379  0.00  0.00    -0.285 N 
HETATM    3  N   UNK N   1      20.898  13.473   9.225  0.00  0.00    -0.309 N 
HETATM    4  N   UNK N   1      22.591  11.945  11.840  0.00  0.00    -0.337 N 
ATOM      5  HN  UNK N   1      21.935  11.558  12.519  1.00  0.00     0.168 HD
HETATM    6  N   UNK N   1      24.817  12.355  11.100  0.00  0.00    -0.319 N 
ATOM      7  HN  UNK N   1      25.821  12.261  11.247  1.00  0.00     0.169 HD
HETATM    8  C   UNK N   1      22.985  13.115   9.814  0.00  0.00     0.094 A 
HETATM    9  C   UNK N   1      22.149  12.590  10.733  0.00  0.00     0.138 A 
HETATM   10  C   UNK N   1      22.185  13.680   8.849  0.00  0.00     0.128 A 
HETATM   11  C   UNK N   1      24.351  13.008   9.978  0.00  0.00     0.261 A 
HETATM   12  C   UNK N   1      23.942  11.829  12.020  0.00  0.00     0.185 A 
HETATM   13  H   UNK N   1      20.076  12.524  10.877  0.00  0.00     0.188 HD
HETATM   14  H   UNK N   1      20.103  13.769   8.726  0.00  0.00     0.186 HD
ENDROOT
TORSDOF 0
ENDMDL
MODEL 7
REMARK VINA RESULT:      -4.4      1.579      3.232
REMARK  0 active torsions:
REMARK  status: ('A' for Active; 'I' for Inactive)
ROOT
HETATM    1  O   UNK N   1      19.928  14.089   9.024  0.00  0.00    -0.267 OA
HETATM    2  N   UNK N   1      22.792  11.715  11.497  0.00  0.00    -0.285 N 
HETATM    3  N   UNK N   1      21.587  11.666  12.063  0.00  0.00    -0.309 N 
HETATM    4  N   UNK N   1      23.664  12.776   9.515  0.00  0.00    -0.337 N 
ATOM      5  HN  UNK N   1      24.616  12.435   9.650  1.00  0.00     0.168 HD
HETATM    6  N   UNK N   1      22.057  14.015   8.270  0.00  0.00    -0.319 N 
ATOM      7  HN  UNK N   1      21.831  14.600   7.466  1.00  0.00     0.169 HD
HETATM    8  C   UNK N   1      21.412  12.895  10.249  0.00  0.00     0.094 A 
HETATM    9  C   UNK N   1      22.681  12.463  10.394  0.00  0.00     0.138 A 
HETATM   10  C   UNK N   1      20.710  12.385  11.317  0.00  0.00     0.128 A 
HETATM   11  C   UNK N   1      21.068  13.688   9.174  0.00  0.00     0.261 A 
HETATM   12  C   UNK N   1      23.342  13.561   8.442  0.00  0.00     0.185 A 
HETATM   13  H   UNK N   1      23.612  11.281  11.828  0.00  0.00     0.188 HD
HETATM   14  H   UNK N   1      21.368  11.183  12.892  0.00  0.00     0.186 HD
ENDROOT
TORSDOF 0
ENDMDL
MODEL 8
REMARK VINA RESULT:      -4.4      8.054      9.551
REMARK  0 active torsions:
REMARK  status: ('A' for Active; 'I' for Inactive)
ROOT
HETATM    1  O   UNK N   1      29.397  16.885   5.373  0.00  0.00    -0.267 OA
HETATM    2  N   UNK N   1      27.284  19.611   8.211  0.00  0.00    -0.285 N 
HETATM    3  N   UNK N   1      27.668  18.517   8.867  0.00  0.00    -0.309 N 
HETATM    4  N   UNK N   1      27.499  20.351   5.927  0.00  0.00    -0.337 N 
ATOM      5  HN  UNK N   1      27.013  21.235   6.079  1.00  0.00     0.168 HD
HETATM    6  N   UNK N   1      28.641  18.825   4.499  0.00  0.00    -0.319 N 
ATOM      7  HN  UNK N   1      28.999  18.591   3.573  1.00  0.00     0.169 HD
HETATM    8  C   UNK N   1      28.320  18.295   6.779  0.00  0.00     0.094 A 
HETATM    9  C   UNK N   1      27.682  19.472   6.942  0.00  0.00     0.138 A 
HETATM   10  C   UNK N   1      28.312  17.683   8.011  0.00  0.00     0.128 A 
HETATM   11  C   UNK N   1      28.818  17.942   5.542  0.00  0.00     0.261 A 
HETATM   12  C   UNK N   1      27.987  20.018   4.692  0.00  0.00     0.185 A 
HETATM   13  H   UNK N   1      26.797  20.379   8.590  0.00  0.00     0.188 HD
HETATM   14  H   UNK N   1      27.510  18.341   9.823  0.00  0.00     0.186 HD
ENDROOT
TORSDOF 0
ENDMDL
MODEL 9
REMARK VINA RESULT:      -4.4     12.113     13.272
REMARK  0 active torsions:
REMARK  status: ('A' for Active; 'I' for Inactive)
ROOT
HETATM    1  O   UNK N   1      34.369  11.725  13.588  0.00  0.00    -0.267 OA
HETATM    2  N   UNK N   1      37.112  15.104  14.598  0.00  0.00    -0.285 N 
HETATM    3  N   UNK N   1      37.016  14.294  15.652  0.00  0.00    -0.309 N 
HETATM    4  N   UNK N   1      36.147  15.091  12.389  0.00  0.00    -0.337 N 
ATOM      5  HN  UNK N   1      36.606  15.952  12.092  1.00  0.00     0.168 HD
HETATM    6  N   UNK N   1      34.702  13.248  11.954  0.00  0.00    -0.319 N 
ATOM      7  HN  UNK N   1      34.084  12.750  11.313  1.00  0.00     0.169 HD
HETATM    8  C   UNK N   1      35.753  13.454  14.060  0.00  0.00     0.094 A 
HETATM    9  C   UNK N   1      36.343  14.589  13.632  0.00  0.00     0.138 A 
HETATM   10  C   UNK N   1      36.183  13.264  15.353  0.00  0.00     0.128 A 
HETATM   11  C   UNK N   1      34.912  12.752  13.223  0.00  0.00     0.261 A 
HETATM   12  C   UNK N   1      35.315  14.408  11.544  0.00  0.00     0.185 A 
HETATM   13  H   UNK N   1      37.649  15.927  14.540  0.00  0.00     0.188 HD
HETATM   14  H   UNK N   1      37.476  14.423  16.512  0.00  0.00     0.186 HD
ENDROOT
TORSDOF 0
ENDMDL
