MODEL 1
REMARK VINA RESULT:      -8.2      0.000      0.000
REMARK  11 active torsions:
REMARK  status: ('A' for Active; 'I' for Inactive)
REMARK    1  A    between atoms: O_7  and  N_13 
REMARK    2  A    between atoms: O_7  and  C_34 
REMARK    3  A    between atoms: O_8  and  C_38 
REMARK    4  A    between atoms: C_19  and  N_11 
REMARK       I    between atoms: N_11  and  C_26 
REMARK    5  A    between atoms: N_12  and  C_24 
REMARK    6  A    between atoms: N_17  and  C_39 
REMARK    7  A    between atoms: C_21  and  C_25 
REMARK    8  A    between atoms: C_22  and  C_24 
REMARK    9  A    between atoms: C_26  and  C_27 
REMARK   10  A    between atoms: C_27  and  C_30 
REMARK   11  A    between atoms: C_34  and  C_38 
ROOT
HETATM    1  O   UNK N   1      36.834  12.618  11.556  0.00  0.00    -0.266 OA
HETATM    2  N   UNK N   1      35.121  14.044  11.571  0.00  0.00    -0.340 N 
HETATM    3  C   UNK N   1      35.706  12.874  11.947  0.00  0.00     0.273 C 
HETATM    4  H   UNK N   1      34.335  14.388  12.053  0.00  0.00     0.163 HD
ENDROOT
BRANCH   3   5
HETATM    5  C   UNK N   1      34.928  11.817  12.686  0.00  0.00     0.149 C 
HETATM    6  N   UNK N   1      34.525  11.993  13.903  0.00  0.00    -0.258 N 
ATOM      7  HN  UNK N   1      33.971  11.265  14.355  1.00  0.00     0.194 HD
BRANCH   6   8
HETATM    8  O   UNK N   1      34.816  13.094  14.577  0.00  0.00    -0.258 OA
BRANCH   8   9
HETATM    9  C   UNK N   1      35.787  13.167  15.560  0.00  0.00     0.166 C 
HETATM   10  C   UNK N   1      36.526  11.842  15.576  0.00  0.00     0.060 C 
HETATM   11  C   UNK N   1      35.193  13.390  16.951  0.00  0.00     0.060 C 
BRANCH   9  12
HETATM   12  C   UNK N   1      36.768  14.262  15.209  0.00  0.00     0.178 C 
HETATM   13  O   UNK N   1      37.499  14.724  16.072  0.00  0.00    -0.648 OA
BRANCH  12  14
HETATM   14  O   UNK N   1      36.840  14.750  13.953  0.00  0.00    -0.774 OA
HETATM   15  H   UNK N   1      36.341  15.483  13.649  0.00  0.00     0.167 HD
ENDBRANCH  12  14
ENDBRANCH   9  12
ENDBRANCH   8   9
ENDBRANCH   6   8
BRANCH   5  16
HETATM   16  C   UNK N   1      34.496  10.590  11.953  0.00  0.00     0.075 A 
HETATM   17  N   UNK N   1      33.384  10.582  11.130  0.00  0.00    -0.335 N 
HETATM   18  C   UNK N   1      33.141   9.360  10.612  0.00  0.00     0.142 A 
ATOM     19  HN  UNK N   1      32.814  11.406  10.937  1.00  0.00     0.168 HD
HETATM   20  S   UNK N   1      34.258   8.289  11.159  0.00  0.00    -0.064 SA
HETATM   21  C   UNK N   1      35.145   9.342  12.094  0.00  0.00     0.085 A 
BRANCH  18  22
HETATM   22  N   UNK N   1      32.074   9.074   9.736  0.00  0.00    -0.380 N 
HETATM   23  H   UNK N   1      31.587   9.806   9.295  0.00  0.00     0.158 HD
HETATM   24  H   UNK N   1      31.816   8.139   9.565  0.00  0.00     0.158 HD
ENDBRANCH  18  22
ENDBRANCH   5  16
ENDBRANCH   3   5
BRANCH   2  25
HETATM   25  C   UNK N   1      35.673  14.771  10.454  0.00  0.00     0.211 A 
HETATM   26  C   UNK N   1      34.927  14.593   9.024  0.00  0.00     0.187 A 
HETATM   27  S   UNK N   1      33.289  13.850   8.835  0.00  0.00    -0.136 SA
HETATM   28  N   UNK N   1      34.680  15.996   9.078  0.00  0.00    -0.293 N 
HETATM   29  C   UNK N   1      33.213  14.613   7.146  0.00  0.00     0.114 C 
HETATM   30  C   UNK N   1      33.321  16.141   7.118  0.00  0.00    -0.019 C 
HETATM   31  C   UNK N   1      34.030  16.796   8.090  0.00  0.00     0.120 C 
HETATM   32  C   UNK N   1      35.209  16.162  10.258  0.00  0.00     0.251 A 
HETATM   33  O   UNK N   1      35.294  17.177  10.930  0.00  0.00    -0.271 OA
BRANCH  30  34
HETATM   34  C   UNK N   1      32.607  16.930   6.034  0.00  0.00     0.165 C 
BRANCH  34  35
HETATM   35  N   UNK N   1      31.156  17.047   6.132  0.00  0.00    -0.362 N 
HETATM   36  C   UNK N   1      30.539  16.984   7.347  0.00  0.00     0.090 A 
HETATM   37  C   UNK N   1      29.170  17.223   7.461  0.00  0.00     0.017 A 
HETATM   38  C   UNK N   1      28.441  17.570   6.324  0.00  0.00     0.003 A 
HETATM   39  C   UNK N   1      29.085  17.658   5.090  0.00  0.00     0.017 A 
HETATM   40  C   UNK N   1      30.455  17.391   5.014  0.00  0.00     0.090 A 
ENDBRANCH  34  35
ENDBRANCH  30  34
BRANCH  31  41
HETATM   41  C   UNK N   1      34.148  18.298   8.138  0.00  0.00     0.227 C 
HETATM   42  O   UNK N   1      35.320  18.920   7.903  0.00  0.00    -0.643 OA
HETATM   43  O   UNK N   1      33.184  18.980   8.434  0.00  0.00    -0.643 OA
ENDBRANCH  31  41
ENDBRANCH   2  25
TORSDOF 11
ENDMDL
MODEL 2
REMARK VINA RESULT:      -7.6      2.962      9.516
REMARK  11 active torsions:
REMARK  status: ('A' for Active; 'I' for Inactive)
REMARK    1  A    between atoms: O_7  and  N_13 
REMARK    2  A    between atoms: O_7  and  C_34 
REMARK    3  A    between atoms: O_8  and  C_38 
REMARK    4  A    between atoms: C_19  and  N_11 
REMARK       I    between atoms: N_11  and  C_26 
REMARK    5  A    between atoms: N_12  and  C_24 
REMARK    6  A    between atoms: N_17  and  C_39 
REMARK    7  A    between atoms: C_21  and  C_25 
REMARK    8  A    between atoms: C_22  and  C_24 
REMARK    9  A    between atoms: C_26  and  C_27 
REMARK   10  A    between atoms: C_27  and  C_30 
REMARK   11  A    between atoms: C_34  and  C_38 
ROOT
HETATM    1  O   UNK N   1      29.738  17.328   7.400  0.00  0.00    -0.266 OA
HETATM    2  N   UNK N   1      31.944  17.347   7.082  0.00  0.00    -0.340 N 
HETATM    3  C   UNK N   1      30.669  17.324   6.608  0.00  0.00     0.273 C 
HETATM    4  H   UNK N   1      32.693  17.588   6.491  0.00  0.00     0.163 HD
ENDROOT
BRANCH   3   5
HETATM    5  C   UNK N   1      30.385  17.118   5.144  0.00  0.00     0.149 C 
HETATM    6  N   UNK N   1      29.651  17.943   4.469  0.00  0.00    -0.258 N 
ATOM      7  HN  UNK N   1      29.512  17.786   3.471  1.00  0.00     0.194 HD
BRANCH   6   8
HETATM    8  O   UNK N   1      29.074  18.987   5.043  0.00  0.00    -0.258 OA
BRANCH   8   9
HETATM    9  C   UNK N   1      27.705  19.178   5.106  0.00  0.00     0.166 C 
HETATM   10  C   UNK N   1      27.279  19.873   3.826  0.00  0.00     0.060 C 
HETATM   11  C   UNK N   1      27.294  20.065   6.281  0.00  0.00     0.060 C 
BRANCH   9  12
HETATM   12  C   UNK N   1      27.018  17.834   5.178  0.00  0.00     0.178 C 
HETATM   13  O   UNK N   1      26.540  17.340   4.168  0.00  0.00    -0.648 OA
BRANCH  12  14
HETATM   14  O   UNK N   1      26.911  17.174   6.349  0.00  0.00    -0.774 OA
HETATM   15  H   UNK N   1      26.891  17.596   7.186  0.00  0.00     0.167 HD
ENDBRANCH  12  14
ENDBRANCH   9  12
ENDBRANCH   8   9
ENDBRANCH   6   8
BRANCH   5  16
HETATM   16  C   UNK N   1      31.075  16.009   4.421  0.00  0.00     0.075 A 
HETATM   17  N   UNK N   1      32.232  16.219   3.691  0.00  0.00    -0.335 N 
HETATM   18  C   UNK N   1      32.656  15.097   3.073  0.00  0.00     0.142 A 
ATOM     19  HN  UNK N   1      32.708  17.119   3.628  1.00  0.00     0.168 HD
HETATM   20  S   UNK N   1      31.628  13.858   3.397  0.00  0.00    -0.064 SA
HETATM   21  C   UNK N   1      30.569  14.689   4.375  0.00  0.00     0.085 A 
BRANCH  18  22
HETATM   22  N   UNK N   1      33.813  15.028   2.271  0.00  0.00    -0.380 N 
HETATM   23  H   UNK N   1      34.637  14.623   2.626  0.00  0.00     0.158 HD
HETATM   24  H   UNK N   1      33.797  15.387   1.354  0.00  0.00     0.158 HD
ENDBRANCH  18  22
ENDBRANCH   5  16
ENDBRANCH   3   5
BRANCH   2  25
HETATM   25  C   UNK N   1      32.180  17.011   8.465  0.00  0.00     0.211 A 
HETATM   26  C   UNK N   1      32.351  15.436   8.817  0.00  0.00     0.187 A 
HETATM   27  S   UNK N   1      32.614  14.154   7.569  0.00  0.00    -0.136 SA
HETATM   28  N   UNK N   1      33.661  15.769   9.270  0.00  0.00    -0.293 N 
HETATM   29  C   UNK N   1      33.187  13.038   8.934  0.00  0.00     0.114 C 
HETATM   30  C   UNK N   1      34.403  13.543   9.719  0.00  0.00    -0.019 C 
HETATM   31  C   UNK N   1      34.623  14.889   9.851  0.00  0.00     0.120 C 
HETATM   32  C   UNK N   1      33.583  17.026   8.934  0.00  0.00     0.251 A 
HETATM   33  O   UNK N   1      34.426  17.904   9.029  0.00  0.00    -0.271 OA
BRANCH  30  34
HETATM   34  C   UNK N   1      35.385  12.549  10.316  0.00  0.00     0.165 C 
BRANCH  34  35
HETATM   35  N   UNK N   1      34.982  11.854  11.535  0.00  0.00    -0.362 N 
HETATM   36  C   UNK N   1      35.014  12.497  12.737  0.00  0.00     0.090 A 
HETATM   37  C   UNK N   1      34.512  11.882  13.884  0.00  0.00     0.017 A 
HETATM   38  C   UNK N   1      33.933  10.617  13.782  0.00  0.00     0.003 A 
HETATM   39  C   UNK N   1      33.881   9.980  12.543  0.00  0.00     0.017 A 
HETATM   40  C   UNK N   1      34.415  10.620  11.421  0.00  0.00     0.090 A 
ENDBRANCH  34  35
ENDBRANCH  30  34
BRANCH  31  41
HETATM   41  C   UNK N   1      35.815  15.450  10.583  0.00  0.00     0.227 C 
HETATM   42  O   UNK N   1      35.712  15.919  11.842  0.00  0.00    -0.643 OA
HETATM   43  O   UNK N   1      36.895  15.529  10.026  0.00  0.00    -0.643 OA
ENDBRANCH  31  41
ENDBRANCH   2  25
TORSDOF 11
ENDMDL
MODEL 3
REMARK VINA RESULT:      -7.6      3.045      9.211
REMARK  11 active torsions:
REMARK  status: ('A' for Active; 'I' for Inactive)
REMARK    1  A    between atoms: O_7  and  N_13 
REMARK    2  A    between atoms: O_7  and  C_34 
REMARK    3  A    between atoms: O_8  and  C_38 
REMARK    4  A    between atoms: C_19  and  N_11 
REMARK       I    between atoms: N_11  and  C_26 
REMARK    5  A    between atoms: N_12  and  C_24 
REMARK    6  A    between atoms: N_17  and  C_39 
REMARK    7  A    between atoms: C_21  and  C_25 
REMARK    8  A    between atoms: C_22  and  C_24 
REMARK    9  A    between atoms: C_26  and  C_27 
REMARK   10  A    between atoms: C_27  and  C_30 
REMARK   11  A    between atoms: C_34  and  C_38 
ROOT
HETATM    1  O   UNK N   1      33.538  17.938   6.279  0.00  0.00    -0.266 OA
HETATM    2  N   UNK N   1      33.521  15.740   6.655  0.00  0.00    -0.340 N 
HETATM    3  C   UNK N   1      32.892  16.902   6.326  0.00  0.00     0.273 C 
HETATM    4  H   UNK N   1      33.098  14.872   6.467  0.00  0.00     0.163 HD
ENDROOT
BRANCH   3   5
HETATM    5  C   UNK N   1      31.394  16.966   6.193  0.00  0.00     0.149 C 
HETATM    6  N   UNK N   1      30.774  16.419   5.196  0.00  0.00    -0.258 N 
ATOM      7  HN  UNK N   1      29.755  16.456   5.162  1.00  0.00     0.194 HD
BRANCH   6   8
HETATM    8  O   UNK N   1      31.431  15.814   4.220  0.00  0.00    -0.258 OA
BRANCH   8   9
HETATM    9  C   UNK N   1      31.202  14.507   3.827  0.00  0.00     0.166 C 
HETATM   10  C   UNK N   1      32.507  13.955   3.285  0.00  0.00     0.060 C 
HETATM   11  C   UNK N   1      30.154  14.407   2.718  0.00  0.00     0.060 C 
BRANCH   9  12
HETATM   12  C   UNK N   1      30.794  13.689   5.031  0.00  0.00     0.178 C 
HETATM   13  O   UNK N   1      29.655  13.256   5.114  0.00  0.00    -0.648 OA
BRANCH  12  14
HETATM   14  O   UNK N   1      31.670  13.440   6.026  0.00  0.00    -0.774 OA
HETATM   15  H   UNK N   1      31.710  13.935   6.822  0.00  0.00     0.167 HD
ENDBRANCH  12  14
ENDBRANCH   9  12
ENDBRANCH   8   9
ENDBRANCH   6   8
BRANCH   5  16
HETATM   16  C   UNK N   1      30.592  17.559   7.304  0.00  0.00     0.075 A 
HETATM   17  N   UNK N   1      29.289  17.986   7.119  0.00  0.00    -0.335 N 
HETATM   18  C   UNK N   1      28.771  18.540   8.235  0.00  0.00     0.142 A 
ATOM     19  HN  UNK N   1      28.780  17.893   6.240  1.00  0.00     0.168 HD
HETATM   20  S   UNK N   1      29.889  18.526   9.438  0.00  0.00    -0.064 SA
HETATM   21  C   UNK N   1      31.119  17.784   8.596  0.00  0.00     0.085 A 
BRANCH  18  22
HETATM   22  N   UNK N   1      27.460  19.051   8.325  0.00  0.00    -0.380 N 
HETATM   23  H   UNK N   1      27.281  19.861   8.856  0.00  0.00     0.158 HD
HETATM   24  H   UNK N   1      26.722  18.597   7.858  0.00  0.00     0.158 HD
ENDBRANCH  18  22
ENDBRANCH   5  16
ENDBRANCH   3   5
BRANCH   2  25
HETATM   25  C   UNK N   1      34.818  15.804   7.284  0.00  0.00     0.211 A 
HETATM   26  C   UNK N   1      34.849  15.717   8.904  0.00  0.00     0.187 A 
HETATM   27  S   UNK N   1      33.437  15.200   9.908  0.00  0.00    -0.136 SA
HETATM   28  N   UNK N   1      35.624  14.532   8.738  0.00  0.00    -0.293 N 
HETATM   29  C   UNK N   1      34.618  14.933  11.312  0.00  0.00     0.114 C 
HETATM   30  C   UNK N   1      35.726  13.909  11.043  0.00  0.00    -0.019 C 
HETATM   31  C   UNK N   1      36.187  13.718   9.766  0.00  0.00     0.120 C 
HETATM   32  C   UNK N   1      35.557  14.532   7.436  0.00  0.00     0.251 A 
HETATM   33  O   UNK N   1      36.009  13.725   6.640  0.00  0.00    -0.271 OA
BRANCH  30  34
HETATM   34  C   UNK N   1      36.284  13.080  12.186  0.00  0.00     0.165 C 
BRANCH  34  35
HETATM   35  N   UNK N   1      35.331  12.344  13.011  0.00  0.00    -0.362 N 
HETATM   36  C   UNK N   1      34.734  11.215  12.534  0.00  0.00     0.090 A 
HETATM   37  C   UNK N   1      33.923  10.438  13.360  0.00  0.00     0.017 A 
HETATM   38  C   UNK N   1      33.762  10.803  14.697  0.00  0.00     0.003 A 
HETATM   39  C   UNK N   1      34.398  11.944  15.182  0.00  0.00     0.017 A 
HETATM   40  C   UNK N   1      35.186  12.708  14.316  0.00  0.00     0.090 A 
ENDBRANCH  34  35
ENDBRANCH  30  34
BRANCH  31  41
HETATM   41  C   UNK N   1      37.252  12.705   9.430  0.00  0.00     0.227 C 
HETATM   42  O   UNK N   1      36.945  11.415   9.191  0.00  0.00    -0.643 OA
HETATM   43  O   UNK N   1      38.424  13.032   9.409  0.00  0.00    -0.643 OA
ENDBRANCH  31  41
ENDBRANCH   2  25
TORSDOF 11
ENDMDL
MODEL 4
REMARK VINA RESULT:      -7.4      2.757      9.225
REMARK  11 active torsions:
REMARK  status: ('A' for Active; 'I' for Inactive)
REMARK    1  A    between atoms: O_7  and  N_13 
REMARK    2  A    between atoms: O_7  and  C_34 
REMARK    3  A    between atoms: O_8  and  C_38 
REMARK    4  A    between atoms: C_19  and  N_11 
REMARK       I    between atoms: N_11  and  C_26 
REMARK    5  A    between atoms: N_12  and  C_24 
REMARK    6  A    between atoms: N_17  and  C_39 
REMARK    7  A    between atoms: C_21  and  C_25 
REMARK    8  A    between atoms: C_22  and  C_24 
REMARK    9  A    between atoms: C_26  and  C_27 
REMARK   10  A    between atoms: C_27  and  C_30 
REMARK   11  A    between atoms: C_34  and  C_38 
ROOT
HETATM    1  O   UNK N   1      29.599  17.306   7.494  0.00  0.00    -0.266 OA
HETATM    2  N   UNK N   1      31.789  17.107   7.130  0.00  0.00    -0.340 N 
HETATM    3  C   UNK N   1      30.505  17.176   6.685  0.00  0.00     0.273 C 
HETATM    4  H   UNK N   1      32.541  17.248   6.512  0.00  0.00     0.163 HD
ENDROOT
BRANCH   3   5
HETATM    5  C   UNK N   1      30.167  16.920   5.240  0.00  0.00     0.149 C 
HETATM    6  N   UNK N   1      30.896  16.153   4.495  0.00  0.00    -0.258 N 
ATOM      7  HN  UNK N   1      30.612  15.978   3.531  1.00  0.00     0.194 HD
BRANCH   6   8
HETATM    8  O   UNK N   1      32.002  15.590   4.953  0.00  0.00    -0.258 OA
BRANCH   8   9
HETATM    9  C   UNK N   1      33.261  15.806   4.419  0.00  0.00     0.166 C 
HETATM   10  C   UNK N   1      33.079  16.479   3.072  0.00  0.00     0.060 C 
HETATM   11  C   UNK N   1      34.030  14.504   4.194  0.00  0.00     0.060 C 
BRANCH   9  12
HETATM   12  C   UNK N   1      34.032  16.739   5.325  0.00  0.00     0.178 C 
HETATM   13  O   UNK N   1      33.836  17.944   5.266  0.00  0.00    -0.648 OA
BRANCH  12  14
HETATM   14  O   UNK N   1      34.946  16.261   6.193  0.00  0.00    -0.774 OA
HETATM   15  H   UNK N   1      34.888  16.366   7.123  0.00  0.00     0.167 HD
ENDBRANCH  12  14
ENDBRANCH   9  12
ENDBRANCH   8   9
ENDBRANCH   6   8
BRANCH   5  16
HETATM   16  C   UNK N   1      28.887  17.456   4.689  0.00  0.00     0.075 A 
HETATM   17  N   UNK N   1      28.625  18.814   4.636  0.00  0.00    -0.335 N 
HETATM   18  C   UNK N   1      27.392  19.076   4.157  0.00  0.00     0.142 A 
ATOM     19  HN  UNK N   1      29.288  19.532   4.928  1.00  0.00     0.168 HD
HETATM   20  S   UNK N   1      26.615  17.672   3.810  0.00  0.00    -0.064 SA
HETATM   21  C   UNK N   1      27.834  16.625   4.244  0.00  0.00     0.085 A 
BRANCH  18  22
HETATM   22  N   UNK N   1      26.871  20.376   3.991  0.00  0.00    -0.380 N 
HETATM   23  H   UNK N   1      25.898  20.515   3.934  0.00  0.00     0.158 HD
HETATM   24  H   UNK N   1      27.481  21.146   3.934  0.00  0.00     0.158 HD
ENDBRANCH  18  22
ENDBRANCH   5  16
ENDBRANCH   3   5
BRANCH   2  25
HETATM   25  C   UNK N   1      32.029  16.824   8.525  0.00  0.00     0.211 A 
HETATM   26  C   UNK N   1      32.265  15.269   8.925  0.00  0.00     0.187 A 
HETATM   27  S   UNK N   1      32.593  13.963   7.719  0.00  0.00    -0.136 SA
HETATM   28  N   UNK N   1      33.556  15.673   9.376  0.00  0.00    -0.293 N 
HETATM   29  C   UNK N   1      33.204  12.915   9.122  0.00  0.00     0.114 C 
HETATM   30  C   UNK N   1      34.390  13.496   9.898  0.00  0.00    -0.019 C 
HETATM   31  C   UNK N   1      34.551  14.854   9.990  0.00  0.00     0.120 C 
HETATM   32  C   UNK N   1      33.426  16.915   9.002  0.00  0.00     0.251 A 
HETATM   33  O   UNK N   1      34.229  17.830   9.074  0.00  0.00    -0.271 OA
BRANCH  30  34
HETATM   34  C   UNK N   1      35.410  12.565  10.531  0.00  0.00     0.165 C 
BRANCH  34  35
HETATM   35  N   UNK N   1      35.023  11.879  11.761  0.00  0.00    -0.362 N 
HETATM   36  C   UNK N   1      34.966  12.559  12.941  0.00  0.00     0.090 A 
HETATM   37  C   UNK N   1      34.475  11.944  14.092  0.00  0.00     0.017 A 
HETATM   38  C   UNK N   1      34.001  10.634  14.016  0.00  0.00     0.003 A 
HETATM   39  C   UNK N   1      34.038   9.956  12.799  0.00  0.00     0.017 A 
HETATM   40  C   UNK N   1      34.557  10.601  11.672  0.00  0.00     0.090 A 
ENDBRANCH  34  35
ENDBRANCH  30  34
BRANCH  31  41
HETATM   41  C   UNK N   1      35.712  15.488  10.712  0.00  0.00     0.227 C 
HETATM   42  O   UNK N   1      36.943  15.525  10.167  0.00  0.00    -0.643 OA
HETATM   43  O   UNK N   1      35.562  15.947  11.829  0.00  0.00    -0.643 OA
ENDBRANCH  31  41
ENDBRANCH   2  25
TORSDOF 11
ENDMDL
MODEL 5
REMARK VINA RESULT:      -7.4      2.076      4.125
REMARK  11 active torsions:
REMARK  status: ('A' for Active; 'I' for Inactive)
REMARK    1  A    between atoms: O_7  and  N_13 
REMARK    2  A    between atoms: O_7  and  C_34 
REMARK    3  A    between atoms: O_8  and  C_38 
REMARK    4  A    between atoms: C_19  and  N_11 
REMARK       I    between atoms: N_11  and  C_26 
REMARK    5  A    between atoms: N_12  and  C_24 
REMARK    6  A    between atoms: N_17  and  C_39 
REMARK    7  A    between atoms: C_21  and  C_25 
REMARK    8  A    between atoms: C_22  and  C_24 
REMARK    9  A    between atoms: C_26  and  C_27 
REMARK   10  A    between atoms: C_27  and  C_30 
REMARK   11  A    between atoms: C_34  and  C_38 
ROOT
HETATM    1  O   UNK N   1      36.837  12.941  12.084  0.00  0.00    -0.266 OA
HETATM    2  N   UNK N   1      34.985  14.123  11.707  0.00  0.00    -0.340 N 
HETATM    3  C   UNK N   1      35.635  13.066  12.266  0.00  0.00     0.273 C 
HETATM    4  H   UNK N   1      34.092  14.386  12.025  0.00  0.00     0.163 HD
ENDROOT
BRANCH   3   5
HETATM    5  C   UNK N   1      34.878  11.959  12.951  0.00  0.00     0.149 C 
HETATM    6  N   UNK N   1      34.233  11.058  12.281  0.00  0.00    -0.258 N 
ATOM      7  HN  UNK N   1      33.762  10.306  12.784  1.00  0.00     0.194 HD
BRANCH   6   8
HETATM    8  O   UNK N   1      34.169  11.091  10.960  0.00  0.00    -0.258 OA
BRANCH   8   9
HETATM    9  C   UNK N   1      34.155   9.963  10.158  0.00  0.00     0.166 C 
HETATM   10  C   UNK N   1      33.820   8.775  11.040  0.00  0.00     0.060 C 
HETATM   11  C   UNK N   1      35.512   9.696   9.505  0.00  0.00     0.060 C 
BRANCH   9  12
HETATM   12  C   UNK N   1      33.073  10.109   9.113  0.00  0.00     0.178 C 
HETATM   13  O   UNK N   1      31.918  10.314   9.458  0.00  0.00    -0.648 OA
BRANCH  12  14
HETATM   14  O   UNK N   1      33.360  10.004   7.800  0.00  0.00    -0.774 OA
HETATM   15  H   UNK N   1      34.233   9.977   7.457  0.00  0.00     0.167 HD
ENDBRANCH  12  14
ENDBRANCH   9  12
ENDBRANCH   8   9
ENDBRANCH   6   8
BRANCH   5  16
HETATM   16  C   UNK N   1      34.983  11.819  14.434  0.00  0.00     0.075 A 
HETATM   17  N   UNK N   1      34.904  12.911  15.280  0.00  0.00    -0.335 N 
HETATM   18  C   UNK N   1      35.080  12.568  16.572  0.00  0.00     0.142 A 
ATOM     19  HN  UNK N   1      34.732  13.865  14.961  1.00  0.00     0.168 HD
HETATM   20  S   UNK N   1      35.344  10.952  16.692  0.00  0.00    -0.064 SA
HETATM   21  C   UNK N   1      35.232  10.583  15.073  0.00  0.00     0.085 A 
BRANCH  18  22
HETATM   22  N   UNK N   1      35.040  13.485  17.643  0.00  0.00    -0.380 N 
HETATM   23  H   UNK N   1      35.695  14.219  17.689  0.00  0.00     0.158 HD
HETATM   24  H   UNK N   1      34.357  13.391  18.345  0.00  0.00     0.158 HD
ENDBRANCH  18  22
ENDBRANCH   5  16
ENDBRANCH   3   5
BRANCH   2  25
HETATM   25  C   UNK N   1      35.627  14.851  10.639  0.00  0.00     0.211 A 
HETATM   26  C   UNK N   1      35.013  14.658   9.150  0.00  0.00     0.187 A 
HETATM   27  S   UNK N   1      33.406  13.897   8.819  0.00  0.00    -0.136 SA
HETATM   28  N   UNK N   1      34.748  16.059   9.173  0.00  0.00    -0.293 N 
HETATM   29  C   UNK N   1      33.474  14.650   7.126  0.00  0.00     0.114 C 
HETATM   30  C   UNK N   1      33.567  16.180   7.099  0.00  0.00    -0.019 C 
HETATM   31  C   UNK N   1      34.181  16.847   8.127  0.00  0.00     0.120 C 
HETATM   32  C   UNK N   1      35.168  16.235  10.395  0.00  0.00     0.251 A 
HETATM   33  O   UNK N   1      35.182  17.254  11.066  0.00  0.00    -0.271 OA
BRANCH  30  34
HETATM   34  C   UNK N   1      32.945  16.956   5.952  0.00  0.00     0.165 C 
BRANCH  34  35
HETATM   35  N   UNK N   1      31.491  17.081   5.934  0.00  0.00    -0.362 N 
HETATM   36  C   UNK N   1      30.781  17.042   7.098  0.00  0.00     0.090 A 
HETATM   37  C   UNK N   1      29.409  17.288   7.101  0.00  0.00     0.017 A 
HETATM   38  C   UNK N   1      28.773  17.620   5.905  0.00  0.00     0.003 A 
HETATM   39  C   UNK N   1      29.512  17.684   4.724  0.00  0.00     0.017 A 
HETATM   40  C   UNK N   1      30.882  17.409   4.760  0.00  0.00     0.090 A 
ENDBRANCH  34  35
ENDBRANCH  30  34
BRANCH  31  41
HETATM   41  C   UNK N   1      34.279  18.350   8.177  0.00  0.00     0.227 C 
HETATM   42  O   UNK N   1      35.455  18.985   8.009  0.00  0.00    -0.643 OA
HETATM   43  O   UNK N   1      33.291  19.021   8.413  0.00  0.00    -0.643 OA
ENDBRANCH  31  41
ENDBRANCH   2  25
TORSDOF 11
ENDMDL
MODEL 6
REMARK VINA RESULT:      -7.4      1.544      2.097
REMARK  11 active torsions:
REMARK  status: ('A' for Active; 'I' for Inactive)
REMARK    1  A    between atoms: O_7  and  N_13 
REMARK    2  A    between atoms: O_7  and  C_34 
REMARK    3  A    between atoms: O_8  and  C_38 
REMARK    4  A    between atoms: C_19  and  N_11 
REMARK       I    between atoms: N_11  and  C_26 
REMARK    5  A    between atoms: N_12  and  C_24 
REMARK    6  A    between atoms: N_17  and  C_39 
REMARK    7  A    between atoms: C_21  and  C_25 
REMARK    8  A    between atoms: C_22  and  C_24 
REMARK    9  A    between atoms: C_26  and  C_27 
REMARK   10  A    between atoms: C_27  and  C_30 
REMARK   11  A    between atoms: C_34  and  C_38 
ROOT
HETATM    1  O   UNK N   1      37.271  12.233  10.548  0.00  0.00    -0.266 OA
HETATM    2  N   UNK N   1      35.584  13.603  11.046  0.00  0.00    -0.340 N 
HETATM    3  C   UNK N   1      36.141  12.362  10.995  0.00  0.00     0.273 C 
HETATM    4  H   UNK N   1      34.797  13.775  11.611  0.00  0.00     0.163 HD
ENDROOT
BRANCH   3   5
HETATM    5  C   UNK N   1      35.334  11.132  11.313  0.00  0.00     0.149 C 
HETATM    6  N   UNK N   1      35.237  10.672  12.519  0.00  0.00    -0.258 N 
ATOM      7  HN  UNK N   1      34.652   9.856  12.697  1.00  0.00     0.194 HD
BRANCH   6   8
HETATM    8  O   UNK N   1      35.882  11.235  13.529  0.00  0.00    -0.258 OA
BRANCH   8   9
HETATM    9  C   UNK N   1      35.342  11.409  14.791  0.00  0.00     0.166 C 
HETATM   10  C   UNK N   1      36.393  10.991  15.802  0.00  0.00     0.060 C 
HETATM   11  C   UNK N   1      34.102  10.545  15.019  0.00  0.00     0.060 C 
BRANCH   9  12
HETATM   12  C   UNK N   1      35.026  12.873  15.000  0.00  0.00     0.178 C 
HETATM   13  O   UNK N   1      34.906  13.612  14.035  0.00  0.00    -0.648 OA
BRANCH  12  14
HETATM   14  O   UNK N   1      34.888  13.380  16.242  0.00  0.00    -0.774 OA
HETATM   15  H   UNK N   1      34.133  13.241  16.781  0.00  0.00     0.167 HD
ENDBRANCH  12  14
ENDBRANCH   9  12
ENDBRANCH   8   9
ENDBRANCH   6   8
BRANCH   5  16
HETATM   16  C   UNK N   1      34.515  10.503  10.234  0.00  0.00     0.075 A 
HETATM   17  N   UNK N   1      35.024  10.276   8.967  0.00  0.00    -0.335 N 
HETATM   18  C   UNK N   1      34.102   9.754   8.133  0.00  0.00     0.142 A 
ATOM     19  HN  UNK N   1      35.986  10.482   8.696  1.00  0.00     0.168 HD
HETATM   20  S   UNK N   1      32.671   9.578   8.920  0.00  0.00    -0.064 SA
HETATM   21  C   UNK N   1      33.156  10.155  10.404  0.00  0.00     0.085 A 
BRANCH  18  22
HETATM   22  N   UNK N   1      34.355   9.420   6.788  0.00  0.00    -0.380 N 
HETATM   23  H   UNK N   1      33.656   8.988   6.245  0.00  0.00     0.158 HD
HETATM   24  H   UNK N   1      35.233   9.619   6.389  0.00  0.00     0.158 HD
ENDBRANCH  18  22
ENDBRANCH   5  16
ENDBRANCH   3   5
BRANCH   2  25
HETATM   25  C   UNK N   1      36.166  14.661  10.257  0.00  0.00     0.211 A 
HETATM   26  C   UNK N   1      35.782  14.695   8.681  0.00  0.00     0.187 A 
HETATM   27  S   UNK N   1      34.430  13.735   7.959  0.00  0.00    -0.136 SA
HETATM   28  N   UNK N   1      35.213  15.977   8.937  0.00  0.00    -0.293 N 
HETATM   29  C   UNK N   1      34.520  14.848   6.479  0.00  0.00     0.114 C 
HETATM   30  C   UNK N   1      34.277  16.333   6.768  0.00  0.00    -0.019 C 
HETATM   31  C   UNK N   1      34.608  16.857   7.990  0.00  0.00     0.120 C 
HETATM   32  C   UNK N   1      35.444  15.951  10.220  0.00  0.00     0.251 A 
HETATM   33  O   UNK N   1      35.158  16.776  11.072  0.00  0.00    -0.271 OA
BRANCH  30  34
HETATM   34  C   UNK N   1      33.632  17.214   5.712  0.00  0.00     0.165 C 
BRANCH  34  35
HETATM   35  N   UNK N   1      32.180  17.153   5.580  0.00  0.00    -0.362 N 
HETATM   36  C   UNK N   1      31.578  17.524   4.413  0.00  0.00     0.090 A 
HETATM   37  C   UNK N   1      30.205  17.348   4.236  0.00  0.00     0.017 A 
HETATM   38  C   UNK N   1      29.458  16.747   5.249  0.00  0.00     0.003 A 
HETATM   39  C   UNK N   1      30.088  16.347   6.427  0.00  0.00     0.017 A 
HETATM   40  C   UNK N   1      31.461  16.561   6.575  0.00  0.00     0.090 A 
ENDBRANCH  34  35
ENDBRANCH  30  34
BRANCH  31  41
HETATM   41  C   UNK N   1      34.366  18.301   8.349  0.00  0.00     0.227 C 
HETATM   42  O   UNK N   1      33.124  18.772   8.574  0.00  0.00    -0.643 OA
HETATM   43  O   UNK N   1      35.297  19.084   8.400  0.00  0.00    -0.643 OA
ENDBRANCH  31  41
ENDBRANCH   2  25
TORSDOF 11
ENDMDL
MODEL 7
REMARK VINA RESULT:      -7.2      3.328      8.800
REMARK  11 active torsions:
REMARK  status: ('A' for Active; 'I' for Inactive)
REMARK    1  A    between atoms: O_7  and  N_13 
REMARK    2  A    between atoms: O_7  and  C_34 
REMARK    3  A    between atoms: O_8  and  C_38 
REMARK    4  A    between atoms: C_19  and  N_11 
REMARK       I    between atoms: N_11  and  C_26 
REMARK    5  A    between atoms: N_12  and  C_24 
REMARK    6  A    between atoms: N_17  and  C_39 
REMARK    7  A    between atoms: C_21  and  C_25 
REMARK    8  A    between atoms: C_22  and  C_24 
REMARK    9  A    between atoms: C_26  and  C_27 
REMARK   10  A    between atoms: C_27  and  C_30 
REMARK   11  A    between atoms: C_34  and  C_38 
ROOT
HETATM    1  O   UNK N   1      35.459  14.434   4.624  0.00  0.00    -0.266 OA
HETATM    2  N   UNK N   1      34.390  14.061   6.545  0.00  0.00    -0.340 N 
HETATM    3  C   UNK N   1      34.404  14.188   5.190  0.00  0.00     0.273 C 
HETATM    4  H   UNK N   1      33.630  13.632   6.999  0.00  0.00     0.163 HD
ENDROOT
BRANCH   3   5
HETATM    5  C   UNK N   1      33.125  14.206   4.396  0.00  0.00     0.149 C 
HETATM    6  N   UNK N   1      32.102  14.910   4.767  0.00  0.00    -0.258 N 
ATOM      7  HN  UNK N   1      31.267  14.921   4.182  1.00  0.00     0.194 HD
BRANCH   6   8
HETATM    8  O   UNK N   1      32.115  15.613   5.887  0.00  0.00    -0.258 OA
BRANCH   8   9
HETATM    9  C   UNK N   1      31.973  16.989   5.939  0.00  0.00     0.166 C 
HETATM   10  C   UNK N   1      30.749  17.293   6.783  0.00  0.00     0.060 C 
HETATM   11  C   UNK N   1      31.754  17.605   4.557  0.00  0.00     0.060 C 
BRANCH   9  12
HETATM   12  C   UNK N   1      33.186  17.589   6.612  0.00  0.00     0.178 C 
HETATM   13  O   UNK N   1      34.254  17.627   6.020  0.00  0.00    -0.648 OA
BRANCH  12  14
HETATM   14  O   UNK N   1      33.110  18.075   7.868  0.00  0.00    -0.774 OA
HETATM   15  H   UNK N   1      32.539  18.773   8.123  0.00  0.00     0.167 HD
ENDBRANCH  12  14
ENDBRANCH   9  12
ENDBRANCH   8   9
ENDBRANCH   6   8
BRANCH   5  16
HETATM   16  C   UNK N   1      33.078  13.503   3.080  0.00  0.00     0.075 A 
HETATM   17  N   UNK N   1      34.024  13.726   2.096  0.00  0.00    -0.335 N 
HETATM   18  C   UNK N   1      33.762  13.033   0.969  0.00  0.00     0.142 A 
ATOM     19  HN  UNK N   1      34.827  14.346   2.210  1.00  0.00     0.168 HD
HETATM   20  S   UNK N   1      32.382  12.162   1.157  0.00  0.00    -0.064 SA
HETATM   21  C   UNK N   1      32.038  12.613   2.721  0.00  0.00     0.085 A 
BRANCH  18  22
HETATM   22  N   UNK N   1      34.568  13.072  -0.186  0.00  0.00    -0.380 N 
HETATM   23  H   UNK N   1      35.443  12.619  -0.194  0.00  0.00     0.158 HD
HETATM   24  H   UNK N   1      34.258  13.553  -0.987  0.00  0.00     0.158 HD
ENDBRANCH  18  22
ENDBRANCH   5  16
ENDBRANCH   3   5
BRANCH   2  25
HETATM   25  C   UNK N   1      35.508  14.568   7.304  0.00  0.00     0.211 A 
HETATM   26  C   UNK N   1      35.214  15.002   8.839  0.00  0.00     0.187 A 
HETATM   27  S   UNK N   1      33.704  14.563   9.732  0.00  0.00    -0.136 SA
HETATM   28  N   UNK N   1      36.154  13.997   9.211  0.00  0.00    -0.293 N 
HETATM   29  C   UNK N   1      34.592  14.984  11.305  0.00  0.00     0.114 C 
HETATM   30  C   UNK N   1      35.857  14.161  11.576  0.00  0.00    -0.019 C 
HETATM   31  C   UNK N   1      36.594  13.672  10.529  0.00  0.00     0.120 C 
HETATM   32  C   UNK N   1      36.361  13.576   7.994  0.00  0.00     0.251 A 
HETATM   33  O   UNK N   1      37.070  12.664   7.603  0.00  0.00    -0.271 OA
BRANCH  30  34
HETATM   34  C   UNK N   1      36.269  13.856  13.005  0.00  0.00     0.165 C 
BRANCH  34  35
HETATM   35  N   UNK N   1      35.517  12.828  13.718  0.00  0.00    -0.362 N 
HETATM   36  C   UNK N   1      35.258  12.962  15.050  0.00  0.00     0.090 A 
HETATM   37  C   UNK N   1      34.434  12.050  15.708  0.00  0.00     0.017 A 
HETATM   38  C   UNK N   1      33.839  11.020  14.980  0.00  0.00     0.003 A 
HETATM   39  C   UNK N   1      34.088  10.907  13.613  0.00  0.00     0.017 A 
HETATM   40  C   UNK N   1      34.937  11.829  12.995  0.00  0.00     0.090 A 
ENDBRANCH  34  35
ENDBRANCH  30  34
BRANCH  31  41
HETATM   41  C   UNK N   1      37.829  12.831  10.728  0.00  0.00     0.227 C 
HETATM   42  O   UNK N   1      39.063  13.340  10.553  0.00  0.00    -0.643 OA
HETATM   43  O   UNK N   1      37.727  11.651  11.013  0.00  0.00    -0.643 OA
ENDBRANCH  31  41
ENDBRANCH   2  25
TORSDOF 11
ENDMDL
MODEL 8
REMARK VINA RESULT:      -7.1      3.365      5.903
REMARK  11 active torsions:
REMARK  status: ('A' for Active; 'I' for Inactive)
REMARK    1  A    between atoms: O_7  and  N_13 
REMARK    2  A    between atoms: O_7  and  C_34 
REMARK    3  A    between atoms: O_8  and  C_38 
REMARK    4  A    between atoms: C_19  and  N_11 
REMARK       I    between atoms: N_11  and  C_26 
REMARK    5  A    between atoms: N_12  and  C_24 
REMARK    6  A    between atoms: N_17  and  C_39 
REMARK    7  A    between atoms: C_21  and  C_25 
REMARK    8  A    between atoms: C_22  and  C_24 
REMARK    9  A    between atoms: C_26  and  C_27 
REMARK   10  A    between atoms: C_27  and  C_30 
REMARK   11  A    between atoms: C_34  and  C_38 
ROOT
HETATM    1  O   UNK N   1      34.868  16.557   6.284  0.00  0.00    -0.266 OA
HETATM    2  N   UNK N   1      33.200  15.988   7.647  0.00  0.00    -0.340 N 
HETATM    3  C   UNK N   1      34.351  15.698   6.983  0.00  0.00     0.273 C 
HETATM    4  H   UNK N   1      32.896  15.421   8.393  0.00  0.00     0.163 HD
ENDROOT
BRANCH   3   5
HETATM    5  C   UNK N   1      34.902  14.297   6.952  0.00  0.00     0.149 C 
HETATM    6  N   UNK N   1      35.266  13.684   8.032  0.00  0.00    -0.258 N 
ATOM      7  HN  UNK N   1      35.601  12.723   7.970  1.00  0.00     0.194 HD
BRANCH   6   8
HETATM    8  O   UNK N   1      35.215  14.275   9.215  0.00  0.00    -0.258 OA
BRANCH   8   9
HETATM    9  C   UNK N   1      35.446  13.626  10.415  0.00  0.00     0.166 C 
HETATM   10  C   UNK N   1      36.911  13.810  10.763  0.00  0.00     0.060 C 
HETATM   11  C   UNK N   1      35.169  12.124  10.328  0.00  0.00     0.060 C 
BRANCH   9  12
HETATM   12  C   UNK N   1      34.608  14.268  11.497  0.00  0.00     0.178 C 
HETATM   13  O   UNK N   1      34.932  14.148  12.669  0.00  0.00    -0.648 OA
BRANCH  12  14
HETATM   14  O   UNK N   1      33.495  14.964  11.188  0.00  0.00    -0.774 OA
HETATM   15  H   UNK N   1      33.451  15.900  11.177  0.00  0.00     0.167 HD
ENDBRANCH  12  14
ENDBRANCH   9  12
ENDBRANCH   8   9
ENDBRANCH   6   8
BRANCH   5  16
HETATM   16  C   UNK N   1      34.904  13.548   5.660  0.00  0.00     0.075 A 
HETATM   17  N   UNK N   1      35.624  13.982   4.562  0.00  0.00    -0.335 N 
HETATM   18  C   UNK N   1      35.441  13.191   3.486  0.00  0.00     0.142 A 
ATOM     19  HN  UNK N   1      36.225  14.807   4.567  1.00  0.00     0.168 HD
HETATM   20  S   UNK N   1      34.399  11.976   3.855  0.00  0.00    -0.064 SA
HETATM   21  C   UNK N   1      34.127  12.386   5.445  0.00  0.00     0.085 A 
BRANCH  18  22
HETATM   22  N   UNK N   1      36.062  13.401   2.238  0.00  0.00    -0.380 N 
HETATM   23  H   UNK N   1      37.011  13.658   2.195  0.00  0.00     0.158 HD
HETATM   24  H   UNK N   1      35.545  13.290   1.407  0.00  0.00     0.158 HD
ENDBRANCH  18  22
ENDBRANCH   5  16
ENDBRANCH   3   5
BRANCH   2  25
HETATM   25  C   UNK N   1      32.430  17.138   7.240  0.00  0.00     0.211 A 
HETATM   26  C   UNK N   1      31.254  16.884   6.151  0.00  0.00     0.187 A 
HETATM   27  S   UNK N   1      30.638  15.243   5.707  0.00  0.00    -0.136 SA
HETATM   28  N   UNK N   1      30.349  17.348   7.150  0.00  0.00    -0.293 N 
HETATM   29  C   UNK N   1      29.152  16.074   4.973  0.00  0.00     0.114 C 
HETATM   30  C   UNK N   1      28.327  16.914   5.953  0.00  0.00    -0.019 C 
HETATM   31  C   UNK N   1      28.937  17.512   7.025  0.00  0.00     0.120 C 
HETATM   32  C   UNK N   1      31.260  17.496   8.071  0.00  0.00     0.251 A 
HETATM   33  O   UNK N   1      31.133  17.852   9.231  0.00  0.00    -0.271 OA
BRANCH  30  34
HETATM   34  C   UNK N   1      26.827  17.051   5.757  0.00  0.00     0.165 C 
BRANCH  34  35
HETATM   35  N   UNK N   1      26.360  18.072   4.825  0.00  0.00    -0.362 N 
HETATM   36  C   UNK N   1      25.032  18.186   4.536  0.00  0.00     0.090 A 
HETATM   37  C   UNK N   1      24.565  19.238   3.748  0.00  0.00     0.017 A 
HETATM   38  C   UNK N   1      25.466  20.201   3.293  0.00  0.00     0.003 A 
HETATM   39  C   UNK N   1      26.817  20.091   3.616  0.00  0.00     0.017 A 
HETATM   40  C   UNK N   1      27.249  19.010   4.391  0.00  0.00     0.090 A 
ENDBRANCH  34  35
ENDBRANCH  30  34
BRANCH  31  41
HETATM   41  C   UNK N   1      28.178  18.325   8.043  0.00  0.00     0.227 C 
HETATM   42  O   UNK N   1      27.733  17.778   9.191  0.00  0.00    -0.643 OA
HETATM   43  O   UNK N   1      27.916  19.493   7.822  0.00  0.00    -0.643 OA
ENDBRANCH  31  41
ENDBRANCH   2  25
TORSDOF 11
ENDMDL
MODEL 9
REMARK VINA RESULT:      -6.9      3.747      6.294
REMARK  11 active torsions:
REMARK  status: ('A' for Active; 'I' for Inactive)
REMARK    1  A    between atoms: O_7  and  N_13 
REMARK    2  A    between atoms: O_7  and  C_34 
REMARK    3  A    between atoms: O_8  and  C_38 
REMARK    4  A    between atoms: C_19  and  N_11 
REMARK       I    between atoms: N_11  and  C_26 
REMARK    5  A    between atoms: N_12  and  C_24 
REMARK    6  A    between atoms: N_17  and  C_39 
REMARK    7  A    between atoms: C_21  and  C_25 
REMARK    8  A    between atoms: C_22  and  C_24 
REMARK    9  A    between atoms: C_26  and  C_27 
REMARK   10  A    between atoms: C_27  and  C_30 
REMARK   11  A    between atoms: C_34  and  C_38 
ROOT
HETATM    1  O   UNK N   1      34.700  17.296   6.100  0.00  0.00    -0.266 OA
HETATM    2  N   UNK N   1      33.274  16.444   7.587  0.00  0.00    -0.340 N 
HETATM    3  C   UNK N   1      34.384  16.349   6.804  0.00  0.00     0.273 C 
HETATM    4  H   UNK N   1      33.132  15.816   8.331  0.00  0.00     0.163 HD
ENDROOT
BRANCH   3   5
HETATM    5  C   UNK N   1      35.124  15.046   6.658  0.00  0.00     0.149 C 
HETATM    6  N   UNK N   1      35.619  14.424   7.680  0.00  0.00    -0.258 N 
ATOM      7  HN  UNK N   1      36.083  13.527   7.540  1.00  0.00     0.194 HD
BRANCH   6   8
HETATM    8  O   UNK N   1      35.537  14.925   8.902  0.00  0.00    -0.258 OA
BRANCH   8   9
HETATM    9  C   UNK N   1      35.271  14.172  10.032  0.00  0.00     0.166 C 
HETATM   10  C   UNK N   1      36.601  13.754  10.630  0.00  0.00     0.060 C 
HETATM   11  C   UNK N   1      34.481  12.902   9.712  0.00  0.00     0.060 C 
BRANCH   9  12
HETATM   12  C   UNK N   1      34.536  15.027  11.038  0.00  0.00     0.178 C 
HETATM   13  O   UNK N   1      35.163  15.762  11.786  0.00  0.00    -0.648 OA
BRANCH  12  14
HETATM   14  O   UNK N   1      33.191  14.981  11.134  0.00  0.00    -0.774 OA
HETATM   15  H   UNK N   1      32.725  14.328  11.618  0.00  0.00     0.167 HD
ENDBRANCH  12  14
ENDBRANCH   9  12
ENDBRANCH   8   9
ENDBRANCH   6   8
BRANCH   5  16
HETATM   16  C   UNK N   1      35.175  14.388   5.318  0.00  0.00     0.075 A 
HETATM   17  N   UNK N   1      34.341  14.770   4.283  0.00  0.00    -0.335 N 
HETATM   18  C   UNK N   1      34.513  14.009   3.182  0.00  0.00     0.142 A 
ATOM     19  HN  UNK N   1      33.672  15.538   4.346  1.00  0.00     0.168 HD
HETATM   20  S   UNK N   1      35.661  12.869   3.464  0.00  0.00    -0.064 SA
HETATM   21  C   UNK N   1      36.025  13.295   5.031  0.00  0.00     0.085 A 
BRANCH  18  22
HETATM   22  N   UNK N   1      33.797  14.186   1.982  0.00  0.00    -0.380 N 
HETATM   23  H   UNK N   1      34.234  14.018   1.116  0.00  0.00     0.158 HD
HETATM   24  H   UNK N   1      32.857  14.479   2.008  0.00  0.00     0.158 HD
ENDBRANCH  18  22
ENDBRANCH   5  16
ENDBRANCH   3   5
BRANCH   2  25
HETATM   25  C   UNK N   1      32.310  17.481   7.307  0.00  0.00     0.211 A 
HETATM   26  C   UNK N   1      31.141  17.123   6.241  0.00  0.00     0.187 A 
HETATM   27  S   UNK N   1      30.777  15.443   5.678  0.00  0.00    -0.136 SA
HETATM   28  N   UNK N   1      30.221  17.351   7.306  0.00  0.00    -0.293 N 
HETATM   29  C   UNK N   1      29.143  16.074   5.070  0.00  0.00     0.114 C 
HETATM   30  C   UNK N   1      28.241  16.686   6.147  0.00  0.00    -0.019 C 
HETATM   31  C   UNK N   1      28.797  17.289   7.245  0.00  0.00     0.120 C 
HETATM   32  C   UNK N   1      31.139  17.574   8.205  0.00  0.00     0.251 A 
HETATM   33  O   UNK N   1      31.012  17.810   9.395  0.00  0.00    -0.271 OA
BRANCH  30  34
HETATM   34  C   UNK N   1      26.731  16.588   6.015  0.00  0.00     0.165 C 
BRANCH  34  35
HETATM   35  N   UNK N   1      26.125  15.270   6.178  0.00  0.00    -0.362 N 
HETATM   36  C   UNK N   1      26.184  14.355   5.169  0.00  0.00     0.090 A 
HETATM   37  C   UNK N   1      25.721  13.053   5.363  0.00  0.00     0.017 A 
HETATM   38  C   UNK N   1      25.236  12.682   6.617  0.00  0.00     0.003 A 
HETATM   39  C   UNK N   1      25.204  13.618   7.650  0.00  0.00     0.017 A 
HETATM   40  C   UNK N   1      25.657  14.918   7.409  0.00  0.00     0.090 A 
ENDBRANCH  34  35
ENDBRANCH  30  34
BRANCH  31  41
HETATM   41  C   UNK N   1      27.966  17.883   8.354  0.00  0.00     0.227 C 
HETATM   42  O   UNK N   1      27.522  17.131   9.379  0.00  0.00    -0.643 OA
HETATM   43  O   UNK N   1      27.645  19.056   8.319  0.00  0.00    -0.643 OA
ENDBRANCH  31  41
ENDBRANCH   2  25
TORSDOF 11
ENDMDL
