MODEL 1
REMARK VINA RESULT:      -5.8      0.000      0.000
REMARK  6 active torsions:
REMARK  status: ('A' for Active; 'I' for Inactive)
REMARK    1  A    between atoms: O_1  and  C_15 
REMARK    2  A    between atoms: O_2  and  C_16 
REMARK    3  A    between atoms: O_3  and  C_17 
REMARK    4  A    between atoms: N_8  and  C_18 
REMARK       I    between atoms: N_9  and  C_20 
REMARK    5  A    between atoms: C_10  and  C_11 
REMARK    6  A    between atoms: C_10  and  C_12 
ROOT
HETATM    1  N   UNK N   1      20.530  15.836   0.922  0.00  0.00    -0.177 N 
ATOM      2  HN  UNK N   1      20.690  15.145   0.189  1.00  0.00     0.185 HD
HETATM    3  N   UNK N   1      19.272  17.632   1.772  0.00  0.00    -0.202 N 
ATOM      4  HN  UNK N   1      18.495  18.286   1.676  1.00  0.00     0.183 HD
HETATM    5  N   UNK N   1      18.608  16.609  -0.285  0.00  0.00    -0.234 N 
HETATM    6  C   UNK N   1      21.154  16.816   3.012  0.00  0.00     0.006 A 
HETATM    7  C   UNK N   1      21.369  15.877   1.992  0.00  0.00     0.122 A 
HETATM    8  C   UNK N   1      20.083  17.708   2.853  0.00  0.00     0.117 A 
HETATM    9  C   UNK N   1      19.482  16.696   0.813  0.00  0.00     0.677 A 
HETATM   10  H   UNK N   1      17.761  17.112  -0.302  0.00  0.00     0.174 HD
HETATM   11  H   UNK N   1      18.847  16.036  -1.049  0.00  0.00     0.174 HD
ENDROOT
BRANCH   6  12
HETATM   12  C   UNK N   1      22.027  16.817   4.261  0.00  0.00     0.082 C 
BRANCH  12  13
HETATM   13  C   UNK N   1      21.444  16.135   5.475  0.00  0.00    -0.048 A 
HETATM   14  C   UNK N   1      21.146  16.872   6.618  0.00  0.00     0.047 A 
HETATM   15  C   UNK N   1      20.673  16.276   7.778  0.00  0.00     0.104 A 
HETATM   16  C   UNK N   1      20.423  14.877   7.791  0.00  0.00     0.135 A 
HETATM   17  C   UNK N   1      20.672  14.120   6.607  0.00  0.00     0.104 A 
HETATM   18  C   UNK N   1      21.194  14.764   5.467  0.00  0.00     0.047 A 
BRANCH  15  19
HETATM   19  O   UNK N   1      20.498  17.089   8.852  0.00  0.00    -0.353 OA
HETATM   20  C   UNK N   1      19.444  17.950   9.045  0.00  0.00     0.210 C 
ENDBRANCH  15  19
BRANCH  16  21
HETATM   21  O   UNK N   1      19.947  14.312   8.936  0.00  0.00    -0.351 OA
HETATM   22  C   UNK N   1      20.701  13.753   9.941  0.00  0.00     0.210 C 
ENDBRANCH  16  21
BRANCH  17  23
HETATM   23  O   UNK N   1      20.407  12.789   6.579  0.00  0.00    -0.353 OA
HETATM   24  C   UNK N   1      21.360  11.816   6.779  0.00  0.00     0.210 C 
ENDBRANCH  17  23
ENDBRANCH  12  13
ENDBRANCH   6  12
BRANCH   7  25
HETATM   25  N   UNK N   1      22.431  14.954   2.079  0.00  0.00    -0.385 N 
HETATM   26  H   UNK N   1      22.449  14.189   2.696  0.00  0.00     0.157 HD
HETATM   27  H   UNK N   1      23.204  15.084   1.482  0.00  0.00     0.157 HD
ENDBRANCH   7  25
TORSDOF 6
ENDMDL
MODEL 2
REMARK VINA RESULT:      -5.8      4.952      7.790
REMARK  6 active torsions:
REMARK  status: ('A' for Active; 'I' for Inactive)
REMARK    1  A    between atoms: O_1  and  C_15 
REMARK    2  A    between atoms: O_2  and  C_16 
REMARK    3  A    between atoms: O_3  and  C_17 
REMARK    4  A    between atoms: N_8  and  C_18 
REMARK       I    between atoms: N_9  and  C_20 
REMARK    5  A    between atoms: C_10  and  C_11 
REMARK    6  A    between atoms: C_10  and  C_12 
ROOT
HETATM    1  N   UNK N   1      24.040  12.364  11.446  0.00  0.00    -0.177 N 
ATOM      2  HN  UNK N   1      25.022  12.470  11.697  1.00  0.00     0.185 HD
HETATM    3  N   UNK N   1      21.815  11.970  12.099  0.00  0.00    -0.202 N 
ATOM      4  HN  UNK N   1      21.133  11.780  12.834  1.00  0.00     0.183 HD
HETATM    5  N   UNK N   1      23.522  12.078  13.770  0.00  0.00    -0.234 N 
HETATM    6  C   UNK N   1      22.322  12.322   9.783  0.00  0.00     0.006 A 
HETATM    7  C   UNK N   1      23.672  12.457  10.140  0.00  0.00     0.122 A 
HETATM    8  C   UNK N   1      21.406  12.054  10.812  0.00  0.00     0.117 A 
HETATM    9  C   UNK N   1      23.122  12.134  12.423  0.00  0.00     0.677 A 
HETATM   10  H   UNK N   1      22.859  12.071  14.498  0.00  0.00     0.174 HD
HETATM   11  H   UNK N   1      24.481  12.045  13.988  0.00  0.00     0.174 HD
ENDROOT
BRANCH   6  12
HETATM   12  C   UNK N   1      21.880  12.514   8.338  0.00  0.00     0.082 C 
BRANCH  12  13
HETATM   13  C   UNK N   1      21.819  13.942   7.850  0.00  0.00    -0.048 A 
HETATM   14  C   UNK N   1      22.543  14.330   6.725  0.00  0.00     0.047 A 
HETATM   15  C   UNK N   1      22.570  15.643   6.282  0.00  0.00     0.104 A 
HETATM   16  C   UNK N   1      21.787  16.622   6.952  0.00  0.00     0.135 A 
HETATM   17  C   UNK N   1      20.997  16.225   8.072  0.00  0.00     0.104 A 
HETATM   18  C   UNK N   1      21.038  14.886   8.513  0.00  0.00     0.047 A 
BRANCH  15  19
HETATM   19  O   UNK N   1      23.378  15.913   5.224  0.00  0.00    -0.353 OA
HETATM   20  C   UNK N   1      24.678  16.355   5.297  0.00  0.00     0.210 C 
ENDBRANCH  15  19
BRANCH  16  21
HETATM   21  O   UNK N   1      21.817  17.905   6.494  0.00  0.00    -0.351 OA
HETATM   22  C   UNK N   1      21.151  18.391   5.393  0.00  0.00     0.210 C 
ENDBRANCH  16  21
BRANCH  17  23
HETATM   23  O   UNK N   1      20.211  17.130   8.709  0.00  0.00    -0.353 OA
HETATM   24  C   UNK N   1      18.835  17.095   8.689  0.00  0.00     0.210 C 
ENDBRANCH  17  23
ENDBRANCH  12  13
ENDBRANCH   6  12
BRANCH   7  25
HETATM   25  N   UNK N   1      24.651  12.718   9.159  0.00  0.00    -0.385 N 
HETATM   26  H   UNK N   1      24.464  13.140   8.291  0.00  0.00     0.157 HD
HETATM   27  H   UNK N   1      25.582  12.461   9.357  0.00  0.00     0.157 HD
ENDBRANCH   7  25
TORSDOF 6
ENDMDL
MODEL 3
REMARK VINA RESULT:      -5.8      0.178      2.790
REMARK  6 active torsions:
REMARK  status: ('A' for Active; 'I' for Inactive)
REMARK    1  A    between atoms: O_1  and  C_15 
REMARK    2  A    between atoms: O_2  and  C_16 
REMARK    3  A    between atoms: O_3  and  C_17 
REMARK    4  A    between atoms: N_8  and  C_18 
REMARK       I    between atoms: N_9  and  C_20 
REMARK    5  A    between atoms: C_10  and  C_11 
REMARK    6  A    between atoms: C_10  and  C_12 
ROOT
HETATM    1  N   UNK N   1      20.410  15.693   0.838  0.00  0.00    -0.177 N 
ATOM      2  HN  UNK N   1      20.516  14.978   0.119  1.00  0.00     0.185 HD
HETATM    3  N   UNK N   1      19.244  17.548   1.691  0.00  0.00    -0.202 N 
ATOM      4  HN  UNK N   1      18.482  18.222   1.613  1.00  0.00     0.183 HD
HETATM    5  N   UNK N   1      18.454  16.487  -0.300  0.00  0.00    -0.234 N 
HETATM    6  C   UNK N   1      21.160  16.714   2.866  0.00  0.00     0.006 A 
HETATM    7  C   UNK N   1      21.300  15.741   1.865  0.00  0.00     0.122 A 
HETATM    8  C   UNK N   1      20.107  17.632   2.731  0.00  0.00     0.117 A 
HETATM    9  C   UNK N   1      19.382  16.580   0.752  0.00  0.00     0.677 A 
HETATM   10  H   UNK N   1      17.622  17.013  -0.292  0.00  0.00     0.174 HD
HETATM   11  H   UNK N   1      18.640  15.886  -1.057  0.00  0.00     0.174 HD
ENDROOT
BRANCH   6  12
HETATM   12  C   UNK N   1      22.091  16.726   4.071  0.00  0.00     0.082 C 
BRANCH  12  13
HETATM   13  C   UNK N   1      21.537  16.126   5.341  0.00  0.00    -0.048 A 
HETATM   14  C   UNK N   1      21.242  14.766   5.404  0.00  0.00     0.047 A 
HETATM   15  C   UNK N   1      20.669  14.187   6.526  0.00  0.00     0.104 A 
HETATM   16  C   UNK N   1      20.428  14.984   7.677  0.00  0.00     0.135 A 
HETATM   17  C   UNK N   1      20.779  16.368   7.644  0.00  0.00     0.104 A 
HETATM   18  C   UNK N   1      21.317  16.920   6.464  0.00  0.00     0.047 A 
BRANCH  15  19
HETATM   19  O   UNK N   1      20.352  12.869   6.436  0.00  0.00    -0.353 OA
HETATM   20  C   UNK N   1      21.209  11.819   6.664  0.00  0.00     0.210 C 
ENDBRANCH  15  19
BRANCH  16  21
HETATM   21  O   UNK N   1      19.876  14.395   8.774  0.00  0.00    -0.351 OA
HETATM   22  C   UNK N   1      20.561  13.842   9.831  0.00  0.00     0.210 C 
ENDBRANCH  16  21
BRANCH  17  23
HETATM   23  O   UNK N   1      20.595  17.146   8.741  0.00  0.00    -0.353 OA
HETATM   24  C   UNK N   1      19.481  17.929   8.944  0.00  0.00     0.210 C 
ENDBRANCH  17  23
ENDBRANCH  12  13
ENDBRANCH   6  12
BRANCH   7  25
HETATM   25  N   UNK N   1      22.340  14.790   1.929  0.00  0.00    -0.385 N 
HETATM   26  H   UNK N   1      22.480  14.175   2.683  0.00  0.00     0.157 HD
HETATM   27  H   UNK N   1      22.964  14.739   1.169  0.00  0.00     0.157 HD
ENDBRANCH   7  25
TORSDOF 6
ENDMDL
MODEL 4
REMARK VINA RESULT:      -5.7     10.361     11.723
REMARK  6 active torsions:
REMARK  status: ('A' for Active; 'I' for Inactive)
REMARK    1  A    between atoms: O_1  and  C_15 
REMARK    2  A    between atoms: O_2  and  C_16 
REMARK    3  A    between atoms: O_3  and  C_17 
REMARK    4  A    between atoms: N_8  and  C_18 
REMARK       I    between atoms: N_9  and  C_20 
REMARK    5  A    between atoms: C_10  and  C_11 
REMARK    6  A    between atoms: C_10  and  C_12 
ROOT
HETATM    1  N   UNK N   1      27.338  20.053   7.500  0.00  0.00    -0.177 N 
ATOM      2  HN  UNK N   1      26.906  20.577   8.261  1.00  0.00     0.185 HD
HETATM    3  N   UNK N   1      27.929  19.895   5.230  0.00  0.00    -0.202 N 
ATOM      4  HN  UNK N   1      27.938  20.296   4.292  1.00  0.00     0.183 HD
HETATM    5  N   UNK N   1      26.853  21.877   6.022  0.00  0.00    -0.234 N 
HETATM    6  C   UNK N   1      28.474  18.098   6.720  0.00  0.00     0.006 A 
HETATM    7  C   UNK N   1      27.868  18.826   7.755  0.00  0.00     0.122 A 
HETATM    8  C   UNK N   1      28.468  18.671   5.439  0.00  0.00     0.117 A 
HETATM    9  C   UNK N   1      27.375  20.592   6.252  0.00  0.00     0.677 A 
HETATM   10  H   UNK N   1      27.011  22.345   5.170  0.00  0.00     0.174 HD
HETATM   11  H   UNK N   1      26.320  22.315   6.724  0.00  0.00     0.174 HD
ENDROOT
BRANCH   6  12
HETATM   12  C   UNK N   1      29.154  16.765   7.005  0.00  0.00     0.082 C 
BRANCH  12  13
HETATM   13  C   UNK N   1      30.639  16.710   6.739  0.00  0.00    -0.048 A 
HETATM   14  C   UNK N   1      31.120  16.144   5.561  0.00  0.00     0.047 A 
HETATM   15  C   UNK N   1      32.476  16.012   5.306  0.00  0.00     0.104 A 
HETATM   16  C   UNK N   1      33.416  16.523   6.242  0.00  0.00     0.135 A 
HETATM   17  C   UNK N   1      32.934  17.156   7.428  0.00  0.00     0.104 A 
HETATM   18  C   UNK N   1      31.545  17.226   7.663  0.00  0.00     0.047 A 
BRANCH  15  19
HETATM   19  O   UNK N   1      32.821  15.369   4.160  0.00  0.00    -0.353 OA
HETATM   20  C   UNK N   1      33.019  15.960   2.935  0.00  0.00     0.210 C 
ENDBRANCH  15  19
BRANCH  16  21
HETATM   21  O   UNK N   1      34.744  16.395   5.969  0.00  0.00    -0.351 OA
HETATM   22  C   UNK N   1      35.504  15.262   6.140  0.00  0.00     0.210 C 
ENDBRANCH  16  21
BRANCH  17  23
HETATM   23  O   UNK N   1      33.806  17.687   8.322  0.00  0.00    -0.353 OA
HETATM   24  C   UNK N   1      34.397  16.964   9.334  0.00  0.00     0.210 C 
ENDBRANCH  17  23
ENDBRANCH  12  13
ENDBRANCH   6  12
BRANCH   7  25
HETATM   25  N   UNK N   1      27.828  18.311   9.068  0.00  0.00    -0.385 N 
HETATM   26  H   UNK N   1      27.585  17.384   9.290  0.00  0.00     0.157 HD
HETATM   27  H   UNK N   1      28.060  18.918   9.808  0.00  0.00     0.157 HD
ENDBRANCH   7  25
TORSDOF 6
ENDMDL
MODEL 5
REMARK VINA RESULT:      -5.7      2.047      3.394
REMARK  6 active torsions:
REMARK  status: ('A' for Active; 'I' for Inactive)
REMARK    1  A    between atoms: O_1  and  C_15 
REMARK    2  A    between atoms: O_2  and  C_16 
REMARK    3  A    between atoms: O_3  and  C_17 
REMARK    4  A    between atoms: N_8  and  C_18 
REMARK       I    between atoms: N_9  and  C_20 
REMARK    5  A    between atoms: C_10  and  C_11 
REMARK    6  A    between atoms: C_10  and  C_12 
ROOT
HETATM    1  N   UNK N   1      20.122  19.296   1.585  0.00  0.00    -0.177 N 
ATOM      2  HN  UNK N   1      19.801  19.579   0.660  1.00  0.00     0.185 HD
HETATM    3  N   UNK N   1      21.156  19.843   3.625  0.00  0.00    -0.202 N 
ATOM      4  HN  UNK N   1      21.609  20.531   4.226  1.00  0.00     0.183 HD
HETATM    5  N   UNK N   1      20.834  21.550   1.983  0.00  0.00    -0.234 N 
HETATM    6  C   UNK N   1      20.384  17.604   3.255  0.00  0.00     0.006 A 
HETATM    7  C   UNK N   1      19.956  18.005   1.980  0.00  0.00     0.122 A 
HETATM    8  C   UNK N   1      21.010  18.569   4.058  0.00  0.00     0.117 A 
HETATM    9  C   UNK N   1      20.706  20.214   2.401  0.00  0.00     0.677 A 
HETATM   10  H   UNK N   1      21.106  22.256   2.613  0.00  0.00     0.174 HD
HETATM   11  H   UNK N   1      20.648  21.783   1.045  0.00  0.00     0.174 HD
ENDROOT
BRANCH   6  12
HETATM   12  C   UNK N   1      20.124  16.187   3.749  0.00  0.00     0.082 C 
BRANCH  12  13
HETATM   13  C   UNK N   1      20.405  15.935   5.211  0.00  0.00    -0.048 A 
HETATM   14  C   UNK N   1      21.666  15.508   5.619  0.00  0.00     0.047 A 
HETATM   15  C   UNK N   1      21.949  15.199   6.941  0.00  0.00     0.104 A 
HETATM   16  C   UNK N   1      20.945  15.382   7.930  0.00  0.00     0.135 A 
HETATM   17  C   UNK N   1      19.665  15.873   7.532  0.00  0.00     0.104 A 
HETATM   18  C   UNK N   1      19.412  16.129   6.169  0.00  0.00     0.047 A 
BRANCH  15  19
HETATM   19  O   UNK N   1      23.191  14.714   7.202  0.00  0.00    -0.353 OA
HETATM   20  C   UNK N   1      24.355  15.115   6.591  0.00  0.00     0.210 C 
ENDBRANCH  15  19
BRANCH  16  21
HETATM   21  O   UNK N   1      21.245  15.086   9.225  0.00  0.00    -0.351 OA
HETATM   22  C   UNK N   1      21.039  13.879   9.853  0.00  0.00     0.210 C 
ENDBRANCH  16  21
BRANCH  17  23
HETATM   23  O   UNK N   1      18.698  16.092   8.459  0.00  0.00    -0.353 OA
HETATM   24  C   UNK N   1      18.468  17.315   9.048  0.00  0.00     0.210 C 
ENDBRANCH  17  23
ENDBRANCH  12  13
ENDBRANCH   6  12
BRANCH   7  25
HETATM   25  N   UNK N   1      19.326  17.088   1.113  0.00  0.00    -0.385 N 
HETATM   26  H   UNK N   1      18.753  16.347   1.414  0.00  0.00     0.157 HD
HETATM   27  H   UNK N   1      19.469  17.197   0.145  0.00  0.00     0.157 HD
ENDBRANCH   7  25
TORSDOF 6
ENDMDL
MODEL 6
REMARK VINA RESULT:      -5.6      4.846      7.414
REMARK  6 active torsions:
REMARK  status: ('A' for Active; 'I' for Inactive)
REMARK    1  A    between atoms: O_1  and  C_15 
REMARK    2  A    between atoms: O_2  and  C_16 
REMARK    3  A    between atoms: O_3  and  C_17 
REMARK    4  A    between atoms: N_8  and  C_18 
REMARK       I    between atoms: N_9  and  C_20 
REMARK    5  A    between atoms: C_10  and  C_11 
REMARK    6  A    between atoms: C_10  and  C_12 
ROOT
HETATM    1  N   UNK N   1      24.089  12.438  11.204  0.00  0.00    -0.177 N 
ATOM      2  HN  UNK N   1      25.060  12.532  11.501  1.00  0.00     0.185 HD
HETATM    3  N   UNK N   1      21.833  12.057  11.749  0.00  0.00    -0.202 N 
ATOM      4  HN  UNK N   1      21.116  11.864  12.449  1.00  0.00     0.183 HD
HETATM    5  N   UNK N   1      23.462  12.128  13.498  0.00  0.00    -0.234 N 
HETATM    6  C   UNK N   1      22.449  12.434   9.463  0.00  0.00     0.006 A 
HETATM    7  C   UNK N   1      23.782  12.551   9.884  0.00  0.00     0.122 A 
HETATM    8  C   UNK N   1      21.484  12.162  10.445  0.00  0.00     0.117 A 
HETATM    9  C   UNK N   1      23.124  12.204  12.135  0.00  0.00     0.677 A 
HETATM   10  H   UNK N   1      22.765  12.118  14.194  0.00  0.00     0.174 HD
HETATM   11  H   UNK N   1      24.410  12.083  13.759  0.00  0.00     0.174 HD
ENDROOT
BRANCH   6  12
HETATM   12  C   UNK N   1      22.076  12.649   8.002  0.00  0.00     0.082 C 
BRANCH  12  13
HETATM   13  C   UNK N   1      22.019  14.084   7.539  0.00  0.00    -0.048 A 
HETATM   14  C   UNK N   1      20.957  14.902   7.915  0.00  0.00     0.047 A 
HETATM   15  C   UNK N   1      20.831  16.205   7.457  0.00  0.00     0.104 A 
HETATM   16  C   UNK N   1      21.845  16.755   6.627  0.00  0.00     0.135 A 
HETATM   17  C   UNK N   1      22.968  15.944   6.281  0.00  0.00     0.104 A 
HETATM   18  C   UNK N   1      23.029  14.610   6.734  0.00  0.00     0.047 A 
BRANCH  15  19
HETATM   19  O   UNK N   1      19.708  16.875   7.828  0.00  0.00    -0.353 OA
HETATM   20  C   UNK N   1      19.572  17.655   8.951  0.00  0.00     0.210 C 
ENDBRANCH  15  19
BRANCH  16  21
HETATM   21  O   UNK N   1      21.710  18.040   6.198  0.00  0.00    -0.351 OA
HETATM   22  C   UNK N   1      21.257  18.442   4.963  0.00  0.00     0.210 C 
ENDBRANCH  16  21
BRANCH  17  23
HETATM   23  O   UNK N   1      23.970  16.454   5.521  0.00  0.00    -0.353 OA
HETATM   24  C   UNK N   1      25.298  16.135   5.693  0.00  0.00     0.210 C 
ENDBRANCH  17  23
ENDBRANCH  12  13
ENDBRANCH   6  12
BRANCH   7  25
HETATM   25  N   UNK N   1      24.808  12.815   8.952  0.00  0.00    -0.385 N 
HETATM   26  H   UNK N   1      24.654  13.000   7.999  0.00  0.00     0.157 HD
HETATM   27  H   UNK N   1      25.738  12.814   9.279  0.00  0.00     0.157 HD
ENDBRANCH   7  25
TORSDOF 6
ENDMDL
MODEL 7
REMARK VINA RESULT:      -5.5     11.971     13.668
REMARK  6 active torsions:
REMARK  status: ('A' for Active; 'I' for Inactive)
REMARK    1  A    between atoms: O_1  and  C_15 
REMARK    2  A    between atoms: O_2  and  C_16 
REMARK    3  A    between atoms: O_3  and  C_17 
REMARK    4  A    between atoms: N_8  and  C_18 
REMARK       I    between atoms: N_9  and  C_20 
REMARK    5  A    between atoms: C_10  and  C_11 
REMARK    6  A    between atoms: C_10  and  C_12 
ROOT
HETATM    1  N   UNK N   1      35.527  14.878  10.254  0.00  0.00    -0.177 N 
ATOM      2  HN  UNK N   1      35.713  14.813  11.254  1.00  0.00     0.185 HD
HETATM    3  N   UNK N   1      35.447  13.852   8.139  0.00  0.00    -0.202 N 
ATOM      4  HN  UNK N   1      35.574  13.025   7.555  1.00  0.00     0.183 HD
HETATM    5  N   UNK N   1      36.040  12.544  10.050  0.00  0.00    -0.234 N 
HETATM    6  C   UNK N   1      34.870  16.169   8.351  0.00  0.00     0.006 A 
HETATM    7  C   UNK N   1      35.138  16.069   9.725  0.00  0.00     0.122 A 
HETATM    8  C   UNK N   1      35.058  15.018   7.571  0.00  0.00     0.117 A 
HETATM    9  C   UNK N   1      35.671  13.773   9.473  0.00  0.00     0.677 A 
HETATM   10  H   UNK N   1      35.996  11.707   9.534  0.00  0.00     0.174 HD
HETATM   11  H   UNK N   1      36.348  12.522  10.985  0.00  0.00     0.174 HD
ENDROOT
BRANCH   6  12
HETATM   12  C   UNK N   1      34.344  17.470   7.757  0.00  0.00     0.082 C 
BRANCH  12  13
HETATM   13  C   UNK N   1      32.944  17.422   7.195  0.00  0.00    -0.048 A 
HETATM   14  C   UNK N   1      31.844  17.447   8.048  0.00  0.00     0.047 A 
HETATM   15  C   UNK N   1      30.544  17.337   7.579  0.00  0.00     0.104 A 
HETATM   16  C   UNK N   1      30.311  17.259   6.179  0.00  0.00     0.135 A 
HETATM   17  C   UNK N   1      31.428  17.288   5.291  0.00  0.00     0.104 A 
HETATM   18  C   UNK N   1      32.734  17.356   5.819  0.00  0.00     0.047 A 
BRANCH  15  19
HETATM   19  O   UNK N   1      29.560  17.291   8.515  0.00  0.00    -0.353 OA
HETATM   20  C   UNK N   1      29.081  18.363   9.230  0.00  0.00     0.210 C 
ENDBRANCH  15  19
BRANCH  16  21
HETATM   21  O   UNK N   1      29.026  17.164   5.737  0.00  0.00    -0.351 OA
HETATM   22  C   UNK N   1      28.207  18.212   5.387  0.00  0.00     0.210 C 
ENDBRANCH  16  21
BRANCH  17  23
HETATM   23  O   UNK N   1      31.235  17.252   3.949  0.00  0.00    -0.353 OA
HETATM   24  C   UNK N   1      32.228  16.961   3.041  0.00  0.00     0.210 C 
ENDBRANCH  17  23
ENDBRANCH  12  13
ENDBRANCH   6  12
BRANCH   7  25
HETATM   25  N   UNK N   1      34.979  17.186  10.571  0.00  0.00    -0.385 N 
HETATM   26  H   UNK N   1      34.345  17.919  10.405  0.00  0.00     0.157 HD
HETATM   27  H   UNK N   1      35.540  17.235  11.379  0.00  0.00     0.157 HD
ENDBRANCH   7  25
TORSDOF 6
ENDMDL
MODEL 8
REMARK VINA RESULT:      -5.5      5.496      7.868
REMARK  6 active torsions:
REMARK  status: ('A' for Active; 'I' for Inactive)
REMARK    1  A    between atoms: O_1  and  C_15 
REMARK    2  A    between atoms: O_2  and  C_16 
REMARK    3  A    between atoms: O_3  and  C_17 
REMARK    4  A    between atoms: N_8  and  C_18 
REMARK       I    between atoms: N_9  and  C_20 
REMARK    5  A    between atoms: C_10  and  C_11 
REMARK    6  A    between atoms: C_10  and  C_12 
ROOT
HETATM    1  N   UNK N   1      28.085  18.896   6.668  0.00  0.00    -0.177 N 
ATOM      2  HN  UNK N   1      28.229  19.162   7.642  1.00  0.00     0.185 HD
HETATM    3  N   UNK N   1      28.486  17.403   4.896  0.00  0.00    -0.202 N 
ATOM      4  HN  UNK N   1      28.928  16.554   4.542  1.00  0.00     0.183 HD
HETATM    5  N   UNK N   1      29.401  16.929   7.054  0.00  0.00    -0.234 N 
HETATM    6  C   UNK N   1      27.114  19.334   4.526  0.00  0.00     0.006 A 
HETATM    7  C   UNK N   1      27.328  19.692   5.866  0.00  0.00     0.122 A 
HETATM    8  C   UNK N   1      27.739  18.166   4.064  0.00  0.00     0.117 A 
HETATM    9  C   UNK N   1      28.652  17.754   6.195  0.00  0.00     0.677 A 
HETATM   10  H   UNK N   1      29.684  16.029   6.774  0.00  0.00     0.174 HD
HETATM   11  H   UNK N   1      29.647  17.259   7.948  0.00  0.00     0.174 HD
ENDROOT
BRANCH   6  12
HETATM   12  C   UNK N   1      26.195  20.163   3.640  0.00  0.00     0.082 C 
BRANCH  12  13
HETATM   13  C   UNK N   1      24.725  19.829   3.716  0.00  0.00    -0.048 A 
HETATM   14  C   UNK N   1      24.279  18.815   4.560  0.00  0.00     0.047 A 
HETATM   15  C   UNK N   1      22.947  18.431   4.611  0.00  0.00     0.104 A 
HETATM   16  C   UNK N   1      21.988  19.129   3.829  0.00  0.00     0.135 A 
HETATM   17  C   UNK N   1      22.425  20.208   3.003  0.00  0.00     0.104 A 
HETATM   18  C   UNK N   1      23.796  20.532   2.950  0.00  0.00     0.047 A 
BRANCH  15  19
HETATM   19  O   UNK N   1      22.649  17.374   5.411  0.00  0.00    -0.353 OA
HETATM   20  C   UNK N   1      23.066  16.078   5.219  0.00  0.00     0.210 C 
ENDBRANCH  15  19
BRANCH  16  21
HETATM   21  O   UNK N   1      20.684  18.745   3.903  0.00  0.00    -0.351 OA
HETATM   22  C   UNK N   1      20.083  17.756   3.158  0.00  0.00     0.210 C 
ENDBRANCH  16  21
BRANCH  17  23
HETATM   23  O   UNK N   1      21.527  20.917   2.273  0.00  0.00    -0.353 OA
HETATM   24  C   UNK N   1      21.026  20.498   1.061  0.00  0.00     0.210 C 
ENDBRANCH  17  23
ENDBRANCH  12  13
ENDBRANCH   6  12
BRANCH   7  25
HETATM   25  N   UNK N   1      26.739  20.858   6.400  0.00  0.00    -0.385 N 
HETATM   26  H   UNK N   1      25.814  21.141   6.221  0.00  0.00     0.157 HD
HETATM   27  H   UNK N   1      27.289  21.423   6.989  0.00  0.00     0.157 HD
ENDBRANCH   7  25
TORSDOF 6
ENDMDL
MODEL 9
REMARK VINA RESULT:      -5.5     15.332     16.587
REMARK  6 active torsions:
REMARK  status: ('A' for Active; 'I' for Inactive)
REMARK    1  A    between atoms: O_1  and  C_15 
REMARK    2  A    between atoms: O_2  and  C_16 
REMARK    3  A    between atoms: O_3  and  C_17 
REMARK    4  A    between atoms: N_8  and  C_18 
REMARK       I    between atoms: N_9  and  C_20 
REMARK    5  A    between atoms: C_10  and  C_11 
REMARK    6  A    between atoms: C_10  and  C_12 
ROOT
HETATM    1  N   UNK N   1      33.952  15.440   8.812  0.00  0.00    -0.177 N 
ATOM      2  HN  UNK N   1      33.346  15.065   8.083  1.00  0.00     0.185 HD
HETATM    3  N   UNK N   1      34.684  17.272  10.093  0.00  0.00    -0.202 N 
ATOM      4  HN  UNK N   1      34.629  18.264  10.323  1.00  0.00     0.183 HD
HETATM    5  N   UNK N   1      32.927  17.586   8.502  0.00  0.00    -0.234 N 
HETATM    6  C   UNK N   1      35.663  15.113  10.450  0.00  0.00     0.006 A 
HETATM    7  C   UNK N   1      34.830  14.612   9.439  0.00  0.00     0.122 A 
HETATM    8  C   UNK N   1      35.572  16.482  10.742  0.00  0.00     0.117 A 
HETATM    9  C   UNK N   1      33.868  16.758   9.140  0.00  0.00     0.677 A 
HETATM   10  H   UNK N   1      32.743  18.495   8.833  0.00  0.00     0.174 HD
HETATM   11  H   UNK N   1      32.445  17.251   7.712  0.00  0.00     0.174 HD
ENDROOT
BRANCH   6  12
HETATM   12  C   UNK N   1      36.586  14.182  11.226  0.00  0.00     0.082 C 
BRANCH  12  13
HETATM   13  C   UNK N   1      36.122  13.793  12.609  0.00  0.00    -0.048 A 
HETATM   14  C   UNK N   1      36.649  14.427  13.731  0.00  0.00     0.047 A 
HETATM   15  C   UNK N   1      36.302  14.055  15.020  0.00  0.00     0.104 A 
HETATM   16  C   UNK N   1      35.329  13.037  15.215  0.00  0.00     0.135 A 
HETATM   17  C   UNK N   1      34.740  12.418  14.072  0.00  0.00     0.104 A 
HETATM   18  C   UNK N   1      35.159  12.800  12.781  0.00  0.00     0.047 A 
BRANCH  15  19
HETATM   19  O   UNK N   1      36.946  14.692  16.033  0.00  0.00    -0.353 OA
HETATM   20  C   UNK N   1      37.435  15.976  15.992  0.00  0.00     0.210 C 
ENDBRANCH  15  19
BRANCH  16  21
HETATM   21  O   UNK N   1      34.992  12.694  16.489  0.00  0.00    -0.351 OA
HETATM   22  C   UNK N   1      35.528  11.661  17.223  0.00  0.00     0.210 C 
ENDBRANCH  16  21
BRANCH  17  23
HETATM   23  O   UNK N   1      33.782  11.469  14.226  0.00  0.00    -0.353 OA
HETATM   24  C   UNK N   1      34.026  10.117  14.143  0.00  0.00     0.210 C 
ENDBRANCH  17  23
ENDBRANCH  12  13
ENDBRANCH   6  12
BRANCH   7  25
HETATM   25  N   UNK N   1      34.872  13.247   9.085  0.00  0.00    -0.385 N 
HETATM   26  H   UNK N   1      35.659  12.670   9.204  0.00  0.00     0.157 HD
HETATM   27  H   UNK N   1      34.061  12.848   8.694  0.00  0.00     0.157 HD
ENDBRANCH   7  25
TORSDOF 6
ENDMDL
