MODEL 1
REMARK VINA RESULT:      -6.0      0.000      0.000
REMARK  5 active torsions:
REMARK  status: ('A' for Active; 'I' for Inactive)
REMARK    1  A    between atoms: C_11  and  O_4 
REMARK    2  A    between atoms: O_5  and  C_15 
REMARK    3  A    between atoms: C_14  and  N_7 
REMARK    4  A    between atoms: N_10  and  C_19 
REMARK    5  A    between atoms: C_13  and  C_15 
ROOT
HETATM    1  F   UNK N   1      32.336  18.441   8.691  0.00  0.00    -0.198 F 
HETATM    2  F   UNK N   1      34.368  18.706   7.691  0.00  0.00    -0.198 F 
HETATM    3  O   UNK N   1      33.008  15.510   8.116  0.00  0.00    -0.350 OA
HETATM    4  C   UNK N   1      34.069  17.063   9.461  0.00  0.00     0.226 C 
HETATM    5  C   UNK N   1      33.491  17.803   8.268  0.00  0.00     0.314 C 
HETATM    6  C   UNK N   1      34.120  15.638   8.950  0.00  0.00     0.182 C 
HETATM    7  C   UNK N   1      33.203  16.635   7.313  0.00  0.00     0.307 C 
ENDROOT
BRANCH   7   8
HETATM    8  N   UNK N   1      32.143  16.816   6.301  0.00  0.00    -0.276 N 
HETATM    9  C   UNK N   1      30.868  16.389   6.544  0.00  0.00     0.102 A 
HETATM   10  C   UNK N   1      29.855  16.594   5.610  0.00  0.00     0.065 A 
HETATM   11  C   UNK N   1      30.161  17.243   4.420  0.00  0.00     0.103 A 
HETATM   12  N   UNK N   1      31.430  17.663   4.185  0.00  0.00    -0.295 N 
HETATM   13  C   UNK N   1      32.419  17.463   5.110  0.00  0.00     0.330 A 
ATOM     14  HN  UNK N   1      31.649  18.134   3.307  1.00  0.00     0.172 HD
HETATM   15  O   UNK N   1      33.549  17.861   4.867  0.00  0.00    -0.246 OA
BRANCH  11  16
HETATM   16  N   UNK N   1      29.157  17.471   3.461  0.00  0.00    -0.385 N 
HETATM   17  H   UNK N   1      28.478  16.782   3.275  0.00  0.00     0.157 HD
HETATM   18  H   UNK N   1      29.132  18.326   2.972  0.00  0.00     0.157 HD
ENDBRANCH  11  16
ENDBRANCH   7   8
BRANCH   6  19
HETATM   19  C   UNK N   1      34.104  14.609  10.062  0.00  0.00     0.199 C 
BRANCH  19  20
HETATM   20  O   UNK N   1      33.130  14.960  10.999  0.00  0.00    -0.398 OA
HETATM   21  H   UNK N   1      32.747  15.849  11.068  0.00  0.00     0.209 HD
ENDBRANCH  19  20
ENDBRANCH   6  19
BRANCH   4  22
HETATM   22  O   UNK N   1      35.335  17.522   9.828  0.00  0.00    -0.387 OA
HETATM   23  H   UNK N   1      35.604  18.368  10.217  0.00  0.00     0.210 HD
ENDBRANCH   4  22
TORSDOF 5
ENDMDL
MODEL 2
REMARK VINA RESULT:      -5.9      8.603     11.489
REMARK  5 active torsions:
REMARK  status: ('A' for Active; 'I' for Inactive)
REMARK    1  A    between atoms: C_11  and  O_4 
REMARK    2  A    between atoms: O_5  and  C_15 
REMARK    3  A    between atoms: C_14  and  N_7 
REMARK    4  A    between atoms: N_10  and  C_19 
REMARK    5  A    between atoms: C_13  and  C_15 
ROOT
HETATM    1  F   UNK N   1      37.748  12.801  15.510  0.00  0.00    -0.198 F 
HETATM    2  F   UNK N   1      37.190  15.001  15.721  0.00  0.00    -0.198 F 
HETATM    3  O   UNK N   1      34.774  12.643  14.801  0.00  0.00    -0.350 OA
HETATM    4  C   UNK N   1      36.517  13.742  13.751  0.00  0.00     0.226 C 
HETATM    5  C   UNK N   1      36.789  13.765  15.245  0.00  0.00     0.314 C 
HETATM    6  C   UNK N   1      35.027  13.475  13.708  0.00  0.00     0.182 C 
HETATM    7  C   UNK N   1      35.406  13.388  15.797  0.00  0.00     0.307 C 
ENDROOT
BRANCH   7   8
HETATM    8  N   UNK N   1      35.345  12.748  17.126  0.00  0.00    -0.276 N 
HETATM    9  C   UNK N   1      35.357  11.387  17.245  0.00  0.00     0.102 A 
HETATM   10  C   UNK N   1      35.341  10.779  18.498  0.00  0.00     0.065 A 
HETATM   11  C   UNK N   1      35.313  11.581  19.633  0.00  0.00     0.103 A 
HETATM   12  N   UNK N   1      35.300  12.931  19.507  0.00  0.00    -0.295 N 
HETATM   13  C   UNK N   1      35.321  13.523  18.273  0.00  0.00     0.330 A 
ATOM     14  HN  UNK N   1      35.274  13.514  20.344  1.00  0.00     0.172 HD
HETATM   15  O   UNK N   1      35.316  14.742  18.198  0.00  0.00    -0.246 OA
BRANCH  11  16
HETATM   16  N   UNK N   1      35.304  10.994  20.912  0.00  0.00    -0.385 N 
HETATM   17  H   UNK N   1      34.462  10.675  21.310  0.00  0.00     0.157 HD
HETATM   18  H   UNK N   1      36.146  10.902  21.414  0.00  0.00     0.157 HD
ENDBRANCH  11  16
ENDBRANCH   7   8
BRANCH   6  19
HETATM   19  C   UNK N   1      34.575  12.841  12.408  0.00  0.00     0.199 C 
BRANCH  19  20
HETATM   20  O   UNK N   1      34.180  13.843  11.521  0.00  0.00    -0.398 OA
HETATM   21  H   UNK N   1      34.648  14.687  11.419  0.00  0.00     0.209 HD
ENDBRANCH  19  20
ENDBRANCH   6  19
BRANCH   4  22
HETATM   22  O   UNK N   1      36.842  14.942  13.117  0.00  0.00    -0.387 OA
HETATM   23  H   UNK N   1      36.556  15.293  12.259  0.00  0.00     0.210 HD
ENDBRANCH   4  22
TORSDOF 5
ENDMDL
MODEL 3
REMARK VINA RESULT:      -5.8      2.984      4.199
REMARK  5 active torsions:
REMARK  status: ('A' for Active; 'I' for Inactive)
REMARK    1  A    between atoms: C_11  and  O_4 
REMARK    2  A    between atoms: O_5  and  C_15 
REMARK    3  A    between atoms: C_14  and  N_7 
REMARK    4  A    between atoms: N_10  and  C_19 
REMARK    5  A    between atoms: C_13  and  C_15 
ROOT
HETATM    1  F   UNK N   1      32.449  17.655   7.944  0.00  0.00    -0.198 F 
HETATM    2  F   UNK N   1      31.734  15.665   8.795  0.00  0.00    -0.198 F 
HETATM    3  O   UNK N   1      29.664  17.532   6.681  0.00  0.00    -0.350 OA
HETATM    4  C   UNK N   1      30.309  17.634   8.899  0.00  0.00     0.226 C 
HETATM    5  C   UNK N   1      31.357  16.830   8.149  0.00  0.00     0.314 C 
HETATM    6  C   UNK N   1      29.119  17.545   7.966  0.00  0.00     0.182 C 
HETATM    7  C   UNK N   1      30.604  16.514   6.848  0.00  0.00     0.307 C 
ENDROOT
BRANCH   7   8
HETATM    8  N   UNK N   1      31.403  16.257   5.634  0.00  0.00    -0.276 N 
HETATM    9  C   UNK N   1      31.805  17.288   4.833  0.00  0.00     0.102 A 
HETATM   10  C   UNK N   1      32.594  17.055   3.709  0.00  0.00     0.065 A 
HETATM   11  C   UNK N   1      32.969  15.750   3.411  0.00  0.00     0.103 A 
HETATM   12  N   UNK N   1      32.564  14.731   4.210  0.00  0.00    -0.295 N 
HETATM   13  C   UNK N   1      31.794  14.968   5.316  0.00  0.00     0.330 A 
ATOM     14  HN  UNK N   1      32.839  13.776   3.982  1.00  0.00     0.172 HD
HETATM   15  O   UNK N   1      31.454  14.026   6.016  0.00  0.00    -0.246 OA
BRANCH  11  16
HETATM   16  N   UNK N   1      33.772  15.486   2.286  0.00  0.00    -0.385 N 
HETATM   17  H   UNK N   1      34.191  14.603   2.168  0.00  0.00     0.157 HD
HETATM   18  H   UNK N   1      33.916  16.189   1.611  0.00  0.00     0.157 HD
ENDBRANCH  11  16
ENDBRANCH   7   8
BRANCH   6  19
HETATM   19  C   UNK N   1      28.138  18.686   8.144  0.00  0.00     0.199 C 
BRANCH  19  20
HETATM   20  O   UNK N   1      27.400  18.479   9.310  0.00  0.00    -0.398 OA
HETATM   21  H   UNK N   1      27.596  17.780   9.954  0.00  0.00     0.209 HD
ENDBRANCH  19  20
ENDBRANCH   6  19
BRANCH   4  22
HETATM   22  O   UNK N   1      30.014  17.110  10.158  0.00  0.00    -0.387 OA
HETATM   23  H   UNK N   1      29.493  16.330  10.404  0.00  0.00     0.210 HD
ENDBRANCH   4  22
TORSDOF 5
ENDMDL
MODEL 4
REMARK VINA RESULT:      -5.6      2.577      2.854
REMARK  5 active torsions:
REMARK  status: ('A' for Active; 'I' for Inactive)
REMARK    1  A    between atoms: C_11  and  O_4 
REMARK    2  A    between atoms: O_5  and  C_15 
REMARK    3  A    between atoms: C_14  and  N_7 
REMARK    4  A    between atoms: N_10  and  C_19 
REMARK    5  A    between atoms: C_13  and  C_15 
ROOT
HETATM    1  F   UNK N   1      33.252  18.434   7.673  0.00  0.00    -0.198 F 
HETATM    2  F   UNK N   1      33.131  17.029   5.882  0.00  0.00    -0.198 F 
HETATM    3  O   UNK N   1      32.175  15.929   9.063  0.00  0.00    -0.350 OA
HETATM    4  C   UNK N   1      34.172  16.297   7.956  0.00  0.00     0.226 C 
HETATM    5  C   UNK N   1      33.100  17.120   7.263  0.00  0.00     0.314 C 
HETATM    6  C   UNK N   1      33.345  15.263   8.691  0.00  0.00     0.182 C 
HETATM    7  C   UNK N   1      31.827  16.471   7.825  0.00  0.00     0.307 C 
ENDROOT
BRANCH   7   8
HETATM    8  N   UNK N   1      30.599  17.291   7.876  0.00  0.00    -0.276 N 
HETATM    9  C   UNK N   1      30.279  17.996   9.002  0.00  0.00     0.102 A 
HETATM   10  C   UNK N   1      29.144  18.803   9.041  0.00  0.00     0.065 A 
HETATM   11  C   UNK N   1      28.337  18.881   7.912  0.00  0.00     0.103 A 
HETATM   12  N   UNK N   1      28.661  18.177   6.799  0.00  0.00    -0.295 N 
HETATM   13  C   UNK N   1      29.781  17.390   6.765  0.00  0.00     0.330 A 
ATOM     14  HN  UNK N   1      28.062  18.235   5.975  1.00  0.00     0.172 HD
HETATM   15  O   UNK N   1      30.044  16.775   5.742  0.00  0.00    -0.246 OA
BRANCH  11  16
HETATM   16  N   UNK N   1      27.189  19.695   7.920  0.00  0.00    -0.385 N 
HETATM   17  H   UNK N   1      26.823  20.034   8.769  0.00  0.00     0.157 HD
HETATM   18  H   UNK N   1      26.747  19.927   7.071  0.00  0.00     0.157 HD
ENDBRANCH  11  16
ENDBRANCH   7   8
BRANCH   6  19
HETATM   19  C   UNK N   1      34.059  14.678   9.893  0.00  0.00     0.199 C 
BRANCH  19  20
HETATM   20  O   UNK N   1      33.332  14.974  11.047  0.00  0.00    -0.398 OA
HETATM   21  H   UNK N   1      33.244  15.869  11.413  0.00  0.00     0.209 HD
ENDBRANCH  19  20
ENDBRANCH   6  19
BRANCH   4  22
HETATM   22  O   UNK N   1      35.065  15.700   7.065  0.00  0.00    -0.387 OA
HETATM   23  H   UNK N   1      34.948  14.934   6.482  0.00  0.00     0.210 HD
ENDBRANCH   4  22
TORSDOF 5
ENDMDL
MODEL 5
REMARK VINA RESULT:      -5.5      2.755      5.520
REMARK  5 active torsions:
REMARK  status: ('A' for Active; 'I' for Inactive)
REMARK    1  A    between atoms: C_11  and  O_4 
REMARK    2  A    between atoms: O_5  and  C_15 
REMARK    3  A    between atoms: C_14  and  N_7 
REMARK    4  A    between atoms: N_10  and  C_19 
REMARK    5  A    between atoms: C_13  and  C_15 
ROOT
HETATM    1  F   UNK N   1      33.514  15.765   5.658  0.00  0.00    -0.198 F 
HETATM    2  F   UNK N   1      33.737  18.005   5.301  0.00  0.00    -0.198 F 
HETATM    3  O   UNK N   1      31.113  16.779   7.262  0.00  0.00    -0.350 OA
HETATM    4  C   UNK N   1      31.582  16.918   5.002  0.00  0.00     0.226 C 
HETATM    5  C   UNK N   1      32.899  17.002   5.754  0.00  0.00     0.314 C 
HETATM    6  C   UNK N   1      30.583  17.294   6.077  0.00  0.00     0.182 C 
HETATM    7  C   UNK N   1      32.403  17.305   7.175  0.00  0.00     0.307 C 
ENDROOT
BRANCH   7   8
HETATM    8  N   UNK N   1      33.266  16.911   8.307  0.00  0.00    -0.276 N 
HETATM    9  C   UNK N   1      33.108  15.698   8.915  0.00  0.00     0.102 A 
HETATM   10  C   UNK N   1      33.946  15.305   9.955  0.00  0.00     0.065 A 
HETATM   11  C   UNK N   1      34.954  16.169  10.368  0.00  0.00     0.103 A 
HETATM   12  N   UNK N   1      35.104  17.372   9.760  0.00  0.00    -0.295 N 
HETATM   13  C   UNK N   1      34.280  17.750   8.735  0.00  0.00     0.330 A 
ATOM     14  HN  UNK N   1      35.843  18.003  10.071  1.00  0.00     0.172 HD
HETATM   15  O   UNK N   1      34.450  18.839   8.206  0.00  0.00    -0.246 OA
BRANCH  11  16
HETATM   16  N   UNK N   1      35.821  15.795  11.411  0.00  0.00    -0.385 N 
HETATM   17  H   UNK N   1      35.819  14.873  11.756  0.00  0.00     0.157 HD
HETATM   18  H   UNK N   1      36.435  16.460  11.800  0.00  0.00     0.157 HD
ENDBRANCH  11  16
ENDBRANCH   7   8
BRANCH   6  19
HETATM   19  C   UNK N   1      29.192  16.757   5.809  0.00  0.00     0.199 C 
BRANCH  19  20
HETATM   20  O   UNK N   1      28.683  17.356   4.656  0.00  0.00    -0.398 OA
HETATM   21  H   UNK N   1      28.066  16.917   4.049  0.00  0.00     0.209 HD
ENDBRANCH  19  20
ENDBRANCH   6  19
BRANCH   4  22
HETATM   22  O   UNK N   1      31.516  17.789   3.914  0.00  0.00    -0.387 OA
HETATM   23  H   UNK N   1      31.396  17.601   2.970  0.00  0.00     0.210 HD
ENDBRANCH   4  22
TORSDOF 5
ENDMDL
MODEL 6
REMARK VINA RESULT:      -5.5      8.306     10.598
REMARK  5 active torsions:
REMARK  status: ('A' for Active; 'I' for Inactive)
REMARK    1  A    between atoms: C_11  and  O_4 
REMARK    2  A    between atoms: O_5  and  C_15 
REMARK    3  A    between atoms: C_14  and  N_7 
REMARK    4  A    between atoms: N_10  and  C_19 
REMARK    5  A    between atoms: C_13  and  C_15 
ROOT
HETATM    1  F   UNK N   1      33.963  13.829  17.226  0.00  0.00    -0.198 F 
HETATM    2  F   UNK N   1      35.884  14.589  18.188  0.00  0.00    -0.198 F 
HETATM    3  O   UNK N   1      35.740  11.369  16.829  0.00  0.00    -0.350 OA
HETATM    4  C   UNK N   1      35.001  12.397  18.764  0.00  0.00     0.226 C 
HETATM    5  C   UNK N   1      35.209  13.477  17.717  0.00  0.00     0.314 C 
HETATM    6  C   UNK N   1      35.845  11.264  18.217  0.00  0.00     0.182 C 
HETATM    7  C   UNK N   1      36.057  12.720  16.684  0.00  0.00     0.307 C 
ENDROOT
BRANCH   7   8
HETATM    8  N   UNK N   1      36.008  13.179  15.281  0.00  0.00    -0.276 N 
HETATM    9  C   UNK N   1      35.175  12.578  14.380  0.00  0.00     0.102 A 
HETATM   10  C   UNK N   1      35.095  13.034  13.067  0.00  0.00     0.065 A 
HETATM   11  C   UNK N   1      35.879  14.116  12.682  0.00  0.00     0.103 A 
HETATM   12  N   UNK N   1      36.705  14.706  13.583  0.00  0.00    -0.295 N 
HETATM   13  C   UNK N   1      36.774  14.257  14.873  0.00  0.00     0.330 A 
ATOM     14  HN  UNK N   1      37.281  15.496  13.293  1.00  0.00     0.172 HD
HETATM   15  O   UNK N   1      37.525  14.818  15.658  0.00  0.00    -0.246 OA
BRANCH  11  16
HETATM   16  N   UNK N   1      35.813  14.603  11.364  0.00  0.00    -0.385 N 
HETATM   17  H   UNK N   1      35.101  15.228  11.097  0.00  0.00     0.157 HD
HETATM   18  H   UNK N   1      36.483  14.316  10.702  0.00  0.00     0.157 HD
ENDBRANCH  11  16
ENDBRANCH   7   8
BRANCH   6  19
HETATM   19  C   UNK N   1      35.400   9.902  18.709  0.00  0.00     0.199 C 
BRANCH  19  20
HETATM   20  O   UNK N   1      35.510   9.858  20.100  0.00  0.00    -0.398 OA
HETATM   21  H   UNK N   1      35.901  10.569  20.632  0.00  0.00     0.209 HD
ENDBRANCH  19  20
ENDBRANCH   6  19
BRANCH   4  22
HETATM   22  O   UNK N   1      35.421  12.781  20.038  0.00  0.00    -0.387 OA
HETATM   23  H   UNK N   1      35.066  12.548  20.910  0.00  0.00     0.210 HD
ENDBRANCH   4  22
TORSDOF 5
ENDMDL
MODEL 7
REMARK VINA RESULT:      -5.4     11.946     14.338
REMARK  5 active torsions:
REMARK  status: ('A' for Active; 'I' for Inactive)
REMARK    1  A    between atoms: C_11  and  O_4 
REMARK    2  A    between atoms: O_5  and  C_15 
REMARK    3  A    between atoms: C_14  and  N_7 
REMARK    4  A    between atoms: N_10  and  C_19 
REMARK    5  A    between atoms: C_13  and  C_15 
ROOT
HETATM    1  F   UNK N   1      30.411  25.265  -5.319  0.00  0.00    -0.198 F 
HETATM    2  F   UNK N   1      30.594  25.959  -3.155  0.00  0.00    -0.198 F 
HETATM    3  O   UNK N   1      27.860  24.025  -4.169  0.00  0.00    -0.350 OA
HETATM    4  C   UNK N   1      28.503  26.237  -4.367  0.00  0.00     0.226 C 
HETATM    5  C   UNK N   1      29.752  25.414  -4.110  0.00  0.00     0.314 C 
HETATM    6  C   UNK N   1      27.411  25.313  -3.870  0.00  0.00     0.182 C 
HETATM    7  C   UNK N   1      29.136  24.100  -3.608  0.00  0.00     0.307 C 
ENDROOT
BRANCH   7   8
HETATM    8  N   UNK N   1      29.918  22.860  -3.782  0.00  0.00    -0.276 N 
HETATM    9  C   UNK N   1      29.888  22.177  -4.965  0.00  0.00     0.102 A 
HETATM   10  C   UNK N   1      30.657  21.030  -5.148  0.00  0.00     0.065 A 
HETATM   11  C   UNK N   1      31.460  20.586  -4.103  0.00  0.00     0.103 A 
HETATM   12  N   UNK N   1      31.483  21.269  -2.931  0.00  0.00    -0.295 N 
HETATM   13  C   UNK N   1      30.730  22.399  -2.760  0.00  0.00     0.330 A 
ATOM     14  HN  UNK N   1      32.071  20.935  -2.168  1.00  0.00     0.172 HD
HETATM   15  O   UNK N   1      30.781  22.991  -1.693  0.00  0.00    -0.246 OA
BRANCH  11  16
HETATM   16  N   UNK N   1      32.253  19.435  -4.263  0.00  0.00    -0.385 N 
HETATM   17  H   UNK N   1      32.899  19.371  -5.003  0.00  0.00     0.157 HD
HETATM   18  H   UNK N   1      32.161  18.686  -3.629  0.00  0.00     0.157 HD
ENDBRANCH  11  16
ENDBRANCH   7   8
BRANCH   6  19
HETATM   19  C   UNK N   1      26.062  25.594  -4.502  0.00  0.00     0.199 C 
BRANCH  19  20
HETATM   20  O   UNK N   1      25.758  26.948  -4.352  0.00  0.00    -0.398 OA
HETATM   21  H   UNK N   1      25.961  27.459  -3.553  0.00  0.00     0.209 HD
ENDBRANCH  19  20
ENDBRANCH   6  19
BRANCH   4  22
HETATM   22  O   UNK N   1      28.497  27.453  -3.682  0.00  0.00    -0.387 OA
HETATM   23  H   UNK N   1      27.980  27.733  -2.911  0.00  0.00     0.210 HD
ENDBRANCH   4  22
TORSDOF 5
ENDMDL
MODEL 8
REMARK VINA RESULT:      -5.4      1.882      2.122
REMARK  5 active torsions:
REMARK  status: ('A' for Active; 'I' for Inactive)
REMARK    1  A    between atoms: C_11  and  O_4 
REMARK    2  A    between atoms: O_5  and  C_15 
REMARK    3  A    between atoms: C_14  and  N_7 
REMARK    4  A    between atoms: N_10  and  C_19 
REMARK    5  A    between atoms: C_13  and  C_15 
ROOT
HETATM    1  F   UNK N   1      31.707  15.882   8.697  0.00  0.00    -0.198 F 
HETATM    2  F   UNK N   1      33.393  17.301   9.280  0.00  0.00    -0.198 F 
HETATM    3  O   UNK N   1      34.107  14.244   7.736  0.00  0.00    -0.350 OA
HETATM    4  C   UNK N   1      33.512  14.941   9.859  0.00  0.00     0.226 C 
HETATM    5  C   UNK N   1      33.073  16.015   8.879  0.00  0.00     0.314 C 
HETATM    6  C   UNK N   1      34.558  14.194   9.056  0.00  0.00     0.182 C 
HETATM    7  C   UNK N   1      33.876  15.616   7.632  0.00  0.00     0.307 C 
ENDROOT
BRANCH   7   8
HETATM    8  N   UNK N   1      33.346  16.017   6.313  0.00  0.00    -0.276 N 
HETATM    9  C   UNK N   1      32.535  15.177   5.604  0.00  0.00     0.102 A 
HETATM   10  C   UNK N   1      31.999  15.566   4.379  0.00  0.00     0.065 A 
HETATM   11  C   UNK N   1      32.303  16.829   3.884  0.00  0.00     0.103 A 
HETATM   12  N   UNK N   1      33.111  17.657   4.593  0.00  0.00    -0.295 N 
HETATM   13  C   UNK N   1      33.629  17.270   5.800  0.00  0.00     0.330 A 
ATOM     14  HN  UNK N   1      33.333  18.580   4.222  1.00  0.00     0.172 HD
HETATM   15  O   UNK N   1      34.347  18.045   6.414  0.00  0.00    -0.246 OA
BRANCH  11  16
HETATM   16  N   UNK N   1      31.770  17.252   2.652  0.00  0.00    -0.385 N 
HETATM   17  H   UNK N   1      30.913  17.735   2.619  0.00  0.00     0.157 HD
HETATM   18  H   UNK N   1      32.257  17.063   1.817  0.00  0.00     0.157 HD
ENDBRANCH  11  16
ENDBRANCH   7   8
BRANCH   6  19
HETATM   19  C   UNK N   1      34.756  12.767   9.524  0.00  0.00     0.199 C 
BRANCH  19  20
HETATM   20  O   UNK N   1      34.066  12.576  10.722  0.00  0.00    -0.398 OA
HETATM   21  H   UNK N   1      33.671  11.730  10.986  0.00  0.00     0.209 HD
ENDBRANCH  19  20
ENDBRANCH   6  19
BRANCH   4  22
HETATM   22  O   UNK N   1      34.046  15.461  11.039  0.00  0.00    -0.387 OA
HETATM   23  H   UNK N   1      33.633  15.592  11.907  0.00  0.00     0.210 HD
ENDBRANCH   4  22
TORSDOF 5
ENDMDL
MODEL 9
REMARK VINA RESULT:      -5.4      4.408      7.003
REMARK  5 active torsions:
REMARK  status: ('A' for Active; 'I' for Inactive)
REMARK    1  A    between atoms: C_11  and  O_4 
REMARK    2  A    between atoms: O_5  and  C_15 
REMARK    3  A    between atoms: C_14  and  N_7 
REMARK    4  A    between atoms: N_10  and  C_19 
REMARK    5  A    between atoms: C_13  and  C_15 
ROOT
HETATM    1  F   UNK N   1      33.237  14.190   9.472  0.00  0.00    -0.198 F 
HETATM    2  F   UNK N   1      34.639  13.617   7.768  0.00  0.00    -0.198 F 
HETATM    3  O   UNK N   1      35.086  16.629   9.491  0.00  0.00    -0.350 OA
HETATM    4  C   UNK N   1      33.652  15.839   7.858  0.00  0.00     0.226 C 
HETATM    5  C   UNK N   1      34.215  14.639   8.599  0.00  0.00     0.314 C 
HETATM    6  C   UNK N   1      34.664  16.915   8.191  0.00  0.00     0.182 C 
HETATM    7  C   UNK N   1      35.405  15.280   9.328  0.00  0.00     0.307 C 
ENDROOT
BRANCH   7   8
HETATM    8  N   UNK N   1      35.877  14.642  10.573  0.00  0.00    -0.276 N 
HETATM    9  C   UNK N   1      35.097  14.640  11.694  0.00  0.00     0.102 A 
HETATM   10  C   UNK N   1      35.520  14.004  12.859  0.00  0.00     0.065 A 
HETATM   11  C   UNK N   1      36.755  13.366  12.864  0.00  0.00     0.103 A 
HETATM   12  N   UNK N   1      37.525  13.373  11.747  0.00  0.00    -0.295 N 
HETATM   13  C   UNK N   1      37.101  13.995  10.605  0.00  0.00     0.330 A 
ATOM     14  HN  UNK N   1      38.433  12.908  11.760  1.00  0.00     0.172 HD
HETATM   15  O   UNK N   1      37.818  13.976   9.616  0.00  0.00    -0.246 OA
BRANCH  11  16
HETATM   16  N   UNK N   1      37.205  12.708  14.024  0.00  0.00    -0.385 N 
HETATM   17  H   UNK N   1      37.025  13.087  14.915  0.00  0.00     0.157 HD
HETATM   18  H   UNK N   1      37.704  11.863  13.945  0.00  0.00     0.157 HD
ENDBRANCH  11  16
ENDBRANCH   7   8
BRANCH   6  19
HETATM   19  C   UNK N   1      34.096  18.316   8.085  0.00  0.00     0.199 C 
BRANCH  19  20
HETATM   20  O   UNK N   1      35.086  19.239   8.425  0.00  0.00    -0.398 OA
HETATM   21  H   UNK N   1      35.896  19.375   7.907  0.00  0.00     0.209 HD
ENDBRANCH  19  20
ENDBRANCH   6  19
BRANCH   4  22
HETATM   22  O   UNK N   1      33.554  15.635   6.481  0.00  0.00    -0.387 OA
HETATM   23  H   UNK N   1      32.954  16.034   5.832  0.00  0.00     0.210 HD
ENDBRANCH   4  22
TORSDOF 5
ENDMDL
