MODEL 1
REMARK VINA RESULT:      -6.4      0.000      0.000
REMARK  4 active torsions:
REMARK  status: ('A' for Active; 'I' for Inactive)
REMARK    1  A    between atoms: C_13  and  O_1 
REMARK    2  A    between atoms: O_2  and  C_16 
REMARK    3  A    between atoms: C_11  and  N_4 
REMARK       I    between atoms: N_10  and  C_22 
REMARK    4  A    between atoms: C_12  and  C_16 
ROOT
HETATM    1  O   UNK N   1      37.178  13.854  11.504  0.00  0.00    -0.265 OA
HETATM    2  N   UNK N   1      35.611  13.009  15.604  0.00  0.00    -0.318 N 
HETATM    3  N   UNK N   1      34.596  11.807  13.750  0.00  0.00    -0.174 N 
HETATM    4  N   UNK N   1      37.072  14.195  14.364  0.00  0.00    -0.345 N 
ATOM      5  HN  UNK N   1      37.808  14.846  14.092  1.00  0.00     0.167 HD
HETATM    6  N   UNK N   1      35.514  12.334  11.620  0.00  0.00    -0.154 N 
ATOM      7  HN  UNK N   1      35.530  12.188  10.610  1.00  0.00     0.187 HD
HETATM    8  N   UNK N   1      33.759  10.695  11.792  0.00  0.00    -0.234 N 
HETATM    9  C   UNK N   1      35.448  12.705  14.303  0.00  0.00     0.157 A 
HETATM   10  C   UNK N   1      36.620  13.921  15.620  0.00  0.00     0.186 A 
HETATM   11  C   UNK N   1      36.328  13.411  13.564  0.00  0.00     0.147 A 
HETATM   12  C   UNK N   1      36.381  13.240  12.189  0.00  0.00     0.290 A 
HETATM   13  C   UNK N   1      34.628  11.624  12.394  0.00  0.00     0.680 A 
HETATM   14  H   UNK N   1      33.967  11.298  14.312  0.00  0.00     0.186 HD
HETATM   15  H   UNK N   1      33.020  10.304  12.311  0.00  0.00     0.174 HD
HETATM   16  H   UNK N   1      33.891  10.435  10.851  0.00  0.00     0.174 HD
ENDROOT
BRANCH   2  17
HETATM   17  C   UNK N   1      34.951  12.436  16.794  0.00  0.00     0.123 C 
HETATM   18  C   UNK N   1      35.071  13.345  18.014  0.00  0.00     0.062 C 
HETATM   19  C   UNK N   1      35.117  12.423  19.220  0.00  0.00     0.130 C 
HETATM   20  C   UNK N   1      35.745  11.115  18.765  0.00  0.00     0.068 C 
HETATM   21  C   UNK N   1      35.553  11.161  17.287  0.00  0.00    -0.057 C 
HETATM   22  C   UNK N   1      35.743  10.094  16.505  0.00  0.00     0.017 C 
BRANCH  19  23
HETATM   23  O   UNK N   1      35.859  12.991  20.255  0.00  0.00    -0.395 OA
HETATM   24  H   UNK N   1      36.668  13.526  20.251  0.00  0.00     0.210 HD
ENDBRANCH  19  23
BRANCH  20  25
HETATM   25  C   UNK N   1      34.960   9.962  19.391  0.00  0.00     0.175 C 
BRANCH  25  26
HETATM   26  O   UNK N   1      34.366  10.365  20.589  0.00  0.00    -0.400 OA
HETATM   27  H   UNK N   1      33.513  10.006  20.879  0.00  0.00     0.209 HD
ENDBRANCH  25  26
ENDBRANCH  20  25
ENDBRANCH   2  17
TORSDOF 4
ENDMDL
MODEL 2
REMARK VINA RESULT:      -6.4      8.864     11.350
REMARK  4 active torsions:
REMARK  status: ('A' for Active; 'I' for Inactive)
REMARK    1  A    between atoms: C_13  and  O_1 
REMARK    2  A    between atoms: O_2  and  C_16 
REMARK    3  A    between atoms: C_11  and  N_4 
REMARK       I    between atoms: N_10  and  C_22 
REMARK    4  A    between atoms: C_12  and  C_16 
ROOT
HETATM    1  O   UNK N   1      27.603  18.809   4.461  0.00  0.00    -0.265 OA
HETATM    2  N   UNK N   1      31.284  16.880   6.105  0.00  0.00    -0.318 N 
HETATM    3  N   UNK N   1      29.577  17.565   7.695  0.00  0.00    -0.174 N 
HETATM    4  N   UNK N   1      30.205  17.586   4.257  0.00  0.00    -0.345 N 
ATOM      5  HN  UNK N   1      29.982  17.792   3.284  1.00  0.00     0.167 HD
HETATM    6  N   UNK N   1      27.664  18.573   6.705  0.00  0.00    -0.154 N 
ATOM      7  HN  UNK N   1      26.742  18.999   6.809  1.00  0.00     0.187 HD
HETATM    8  N   UNK N   1      27.756  18.274   9.092  0.00  0.00    -0.234 N 
HETATM    9  C   UNK N   1      30.114  17.444   6.455  0.00  0.00     0.157 A 
HETATM   10  C   UNK N   1      31.317  16.970   4.749  0.00  0.00     0.186 A 
HETATM   11  C   UNK N   1      29.467  17.859   5.348  0.00  0.00     0.147 A 
HETATM   12  C   UNK N   1      28.212  18.441   5.449  0.00  0.00     0.290 A 
HETATM   13  C   UNK N   1      28.341  18.139   7.819  0.00  0.00     0.680 A 
HETATM   14  H   UNK N   1      30.066  17.248   8.488  0.00  0.00     0.186 HD
HETATM   15  H   UNK N   1      28.294  18.115   9.900  0.00  0.00     0.174 HD
HETATM   16  H   UNK N   1      26.807  18.527   9.173  0.00  0.00     0.174 HD
ENDROOT
BRANCH   2  17
HETATM   17  C   UNK N   1      32.292  16.204   6.946  0.00  0.00     0.123 C 
HETATM   18  C   UNK N   1      31.658  15.263   7.966  0.00  0.00     0.062 C 
HETATM   19  C   UNK N   1      32.575  15.277   9.177  0.00  0.00     0.130 C 
HETATM   20  C   UNK N   1      33.249  16.640   9.216  0.00  0.00     0.068 C 
HETATM   21  C   UNK N   1      33.095  17.119   7.813  0.00  0.00    -0.057 C 
HETATM   22  C   UNK N   1      33.758  18.178   7.339  0.00  0.00     0.017 C 
BRANCH  19  23
HETATM   23  O   UNK N   1      31.858  15.049  10.350  0.00  0.00    -0.395 OA
HETATM   24  H   UNK N   1      30.909  15.098  10.546  0.00  0.00     0.210 HD
ENDBRANCH  19  23
BRANCH  20  25
HETATM   25  C   UNK N   1      34.721  16.437   9.575  0.00  0.00     0.175 C 
BRANCH  25  26
HETATM   26  O   UNK N   1      35.024  17.069  10.783  0.00  0.00    -0.400 OA
HETATM   27  H   UNK N   1      35.754  16.765  11.346  0.00  0.00     0.209 HD
ENDBRANCH  25  26
ENDBRANCH  20  25
ENDBRANCH   2  17
TORSDOF 4
ENDMDL
MODEL 3
REMARK VINA RESULT:      -6.1      8.449     10.947
REMARK  4 active torsions:
REMARK  status: ('A' for Active; 'I' for Inactive)
REMARK    1  A    between atoms: C_13  and  O_1 
REMARK    2  A    between atoms: O_2  and  C_16 
REMARK    3  A    between atoms: C_11  and  N_4 
REMARK       I    between atoms: N_10  and  C_22 
REMARK    4  A    between atoms: C_12  and  C_16 
ROOT
HETATM    1  O   UNK N   1      27.217  19.881   7.049  0.00  0.00    -0.265 OA
HETATM    2  N   UNK N   1      30.540  17.118   8.191  0.00  0.00    -0.318 N 
HETATM    3  N   UNK N   1      29.902  17.188   5.846  0.00  0.00    -0.174 N 
HETATM    4  N   UNK N   1      29.025  18.623   8.909  0.00  0.00    -0.345 N 
ATOM      5  HN  UNK N   1      28.477  19.235   9.514  1.00  0.00     0.167 HD
HETATM    6  N   UNK N   1      28.129  18.697   5.357  0.00  0.00    -0.154 N 
ATOM      7  HN  UNK N   1      27.506  19.128   4.674  1.00  0.00     0.187 HD
HETATM    8  N   UNK N   1      29.151  17.438   3.578  0.00  0.00    -0.234 N 
HETATM    9  C   UNK N   1      29.793  17.535   7.152  0.00  0.00     0.157 A 
HETATM   10  C   UNK N   1      30.057  17.805   9.260  0.00  0.00     0.186 A 
HETATM   11  C   UNK N   1      28.892  18.440   7.584  0.00  0.00     0.147 A 
HETATM   12  C   UNK N   1      28.029  19.049   6.685  0.00  0.00     0.290 A 
HETATM   13  C   UNK N   1      29.058  17.774   4.941  0.00  0.00     0.680 A 
HETATM   14  H   UNK N   1      30.573  16.530   5.554  0.00  0.00     0.186 HD
HETATM   15  H   UNK N   1      29.697  16.669   3.296  0.00  0.00     0.174 HD
HETATM   16  H   UNK N   1      28.669  17.973   2.905  0.00  0.00     0.174 HD
ENDROOT
BRANCH   2  17
HETATM   17  C   UNK N   1      31.702  16.207   8.209  0.00  0.00     0.123 C 
HETATM   18  C   UNK N   1      31.718  15.316   9.447  0.00  0.00     0.062 C 
HETATM   19  C   UNK N   1      33.182  15.067   9.766  0.00  0.00     0.130 C 
HETATM   20  C   UNK N   1      33.961  16.280   9.282  0.00  0.00     0.068 C 
HETATM   21  C   UNK N   1      33.028  16.891   8.292  0.00  0.00    -0.057 C 
HETATM   22  C   UNK N   1      33.409  17.849   7.443  0.00  0.00     0.017 C 
BRANCH  19  23
HETATM   23  O   UNK N   1      33.370  14.876  11.134  0.00  0.00    -0.395 OA
HETATM   24  H   UNK N   1      32.790  14.512  11.821  0.00  0.00     0.210 HD
ENDBRANCH  19  23
BRANCH  20  25
HETATM   25  C   UNK N   1      35.242  15.790   8.607  0.00  0.00     0.175 C 
BRANCH  25  26
HETATM   26  O   UNK N   1      35.656  14.575   9.160  0.00  0.00    -0.400 OA
HETATM   27  H   UNK N   1      35.033  13.847   9.309  0.00  0.00     0.209 HD
ENDBRANCH  25  26
ENDBRANCH  20  25
ENDBRANCH   2  17
TORSDOF 4
ENDMDL
MODEL 4
REMARK VINA RESULT:      -6.0      6.554      9.082
REMARK  4 active torsions:
REMARK  status: ('A' for Active; 'I' for Inactive)
REMARK    1  A    between atoms: C_13  and  O_1 
REMARK    2  A    between atoms: O_2  and  C_16 
REMARK    3  A    between atoms: C_11  and  N_4 
REMARK       I    between atoms: N_10  and  C_22 
REMARK    4  A    between atoms: C_12  and  C_16 
ROOT
HETATM    1  O   UNK N   1      31.429  17.576   4.085  0.00  0.00    -0.265 OA
HETATM    2  N   UNK N   1      33.442  16.502   7.929  0.00  0.00    -0.318 N 
HETATM    3  N   UNK N   1      31.033  16.830   7.983  0.00  0.00    -0.174 N 
HETATM    4  N   UNK N   1      33.705  16.935   5.733  0.00  0.00    -0.345 N 
ATOM      5  HN  UNK N   1      34.130  17.075   4.817  1.00  0.00     0.167 HD
HETATM    6  N   UNK N   1      30.073  17.391   5.880  0.00  0.00    -0.154 N 
ATOM      7  HN  UNK N   1      29.248  17.611   5.322  1.00  0.00     0.187 HD
HETATM    8  N   UNK N   1      28.659  17.153   7.814  0.00  0.00    -0.234 N 
HETATM    9  C   UNK N   1      32.250  16.808   7.384  0.00  0.00     0.157 A 
HETATM   10  C   UNK N   1      34.323  16.578   6.895  0.00  0.00     0.186 A 
HETATM   11  C   UNK N   1      32.410  17.060   6.069  0.00  0.00     0.147 A 
HETATM   12  C   UNK N   1      31.312  17.361   5.278  0.00  0.00     0.290 A 
HETATM   13  C   UNK N   1      29.936  17.128   7.221  0.00  0.00     0.680 A 
HETATM   14  H   UNK N   1      30.942  16.635   8.944  0.00  0.00     0.186 HD
HETATM   15  H   UNK N   1      28.570  17.124   8.793  0.00  0.00     0.174 HD
HETATM   16  H   UNK N   1      27.855  17.198   7.247  0.00  0.00     0.174 HD
ENDROOT
BRANCH   2  17
HETATM   17  C   UNK N   1      33.766  16.070   9.303  0.00  0.00     0.123 C 
HETATM   18  C   UNK N   1      34.997  16.781   9.857  0.00  0.00     0.062 C 
HETATM   19  C   UNK N   1      35.667  15.791  10.795  0.00  0.00     0.130 C 
HETATM   20  C   UNK N   1      35.349  14.396  10.279  0.00  0.00     0.068 C 
HETATM   21  C   UNK N   1      34.147  14.630   9.430  0.00  0.00    -0.057 C 
HETATM   22  C   UNK N   1      33.387  13.632   8.971  0.00  0.00     0.017 C 
BRANCH  19  23
HETATM   23  O   UNK N   1      37.045  15.998  10.838  0.00  0.00    -0.395 OA
HETATM   24  H   UNK N   1      37.777  15.416  11.095  0.00  0.00     0.210 HD
ENDBRANCH  19  23
BRANCH  20  25
HETATM   25  C   UNK N   1      35.017  13.506  11.477  0.00  0.00     0.175 C 
BRANCH  25  26
HETATM   26  O   UNK N   1      34.930  14.266  12.646  0.00  0.00    -0.400 OA
HETATM   27  H   UNK N   1      35.203  15.197  12.668  0.00  0.00     0.209 HD
ENDBRANCH  25  26
ENDBRANCH  20  25
ENDBRANCH   2  17
TORSDOF 4
ENDMDL
MODEL 5
REMARK VINA RESULT:      -6.0      4.429      6.119
REMARK  4 active torsions:
REMARK  status: ('A' for Active; 'I' for Inactive)
REMARK    1  A    between atoms: C_13  and  O_1 
REMARK    2  A    between atoms: O_2  and  C_16 
REMARK    3  A    between atoms: C_11  and  N_4 
REMARK       I    between atoms: N_10  and  C_22 
REMARK    4  A    between atoms: C_12  and  C_16 
ROOT
HETATM    1  O   UNK N   1      33.708  18.344   8.171  0.00  0.00    -0.265 OA
HETATM    2  N   UNK N   1      34.948  15.075  10.956  0.00  0.00    -0.318 N 
HETATM    3  N   UNK N   1      33.448  14.483   9.137  0.00  0.00    -0.174 N 
HETATM    4  N   UNK N   1      35.105  17.266  10.450  0.00  0.00    -0.345 N 
ATOM      5  HN  UNK N   1      35.363  18.252  10.480  1.00  0.00     0.167 HD
HETATM    6  N   UNK N   1      32.863  16.301   7.718  0.00  0.00    -0.154 N 
ATOM      7  HN  UNK N   1      32.360  16.651   6.902  1.00  0.00     0.187 HD
HETATM    8  N   UNK N   1      32.009  14.098   7.253  0.00  0.00    -0.234 N 
HETATM    9  C   UNK N   1      34.185  15.345   9.881  0.00  0.00     0.157 A 
HETATM   10  C   UNK N   1      35.511  16.269  11.286  0.00  0.00     0.186 A 
HETATM   11  C   UNK N   1      34.287  16.654   9.576  0.00  0.00     0.147 A 
HETATM   12  C   UNK N   1      33.619  17.168   8.474  0.00  0.00     0.290 A 
HETATM   13  C   UNK N   1      32.778  14.970   8.047  0.00  0.00     0.680 A 
HETATM   14  H   UNK N   1      33.395  13.530   9.376  0.00  0.00     0.186 HD
HETATM   15  H   UNK N   1      31.814  13.187   7.568  0.00  0.00     0.174 HD
HETATM   16  H   UNK N   1      31.665  14.402   6.380  0.00  0.00     0.174 HD
ENDROOT
BRANCH   2  17
HETATM   17  C   UNK N   1      35.233  13.782  11.609  0.00  0.00     0.123 C 
HETATM   18  C   UNK N   1      35.535  13.939  13.096  0.00  0.00     0.062 C 
HETATM   19  C   UNK N   1      36.520  12.836  13.443  0.00  0.00     0.130 C 
HETATM   20  C   UNK N   1      37.327  12.542  12.188  0.00  0.00     0.068 C 
HETATM   21  C   UNK N   1      36.457  13.088  11.107  0.00  0.00    -0.057 C 
HETATM   22  C   UNK N   1      36.669  12.826   9.815  0.00  0.00     0.017 C 
BRANCH  19  23
HETATM   23  O   UNK N   1      37.358  13.225  14.487  0.00  0.00    -0.395 OA
HETATM   24  H   UNK N   1      37.455  14.068  14.957  0.00  0.00     0.210 HD
ENDBRANCH  19  23
BRANCH  20  25
HETATM   25  C   UNK N   1      37.484  11.027  12.062  0.00  0.00     0.175 C 
BRANCH  25  26
HETATM   26  O   UNK N   1      37.656  10.444  13.320  0.00  0.00    -0.400 OA
HETATM   27  H   UNK N   1      38.505  10.487  13.788  0.00  0.00     0.209 HD
ENDBRANCH  25  26
ENDBRANCH  20  25
ENDBRANCH   2  17
TORSDOF 4
ENDMDL
MODEL 6
REMARK VINA RESULT:      -5.9     25.833     27.276
REMARK  4 active torsions:
REMARK  status: ('A' for Active; 'I' for Inactive)
REMARK    1  A    between atoms: C_13  and  O_1 
REMARK    2  A    between atoms: O_2  and  C_16 
REMARK    3  A    between atoms: C_11  and  N_4 
REMARK       I    between atoms: N_10  and  C_22 
REMARK    4  A    between atoms: C_12  and  C_16 
ROOT
HETATM    1  O   UNK N   1      27.266  20.939  -9.432  0.00  0.00    -0.265 OA
HETATM    2  N   UNK N   1      26.435  24.724  -7.203  0.00  0.00    -0.318 N 
HETATM    3  N   UNK N   1      24.978  22.827  -6.766  0.00  0.00    -0.174 N 
HETATM    4  N   UNK N   1      27.739  23.693  -8.726  0.00  0.00    -0.345 N 
ATOM      5  HN  UNK N   1      28.467  23.515  -9.417  1.00  0.00     0.167 HD
HETATM    6  N   UNK N   1      25.519  20.869  -8.004  0.00  0.00    -0.154 N 
ATOM      7  HN  UNK N   1      25.329  19.892  -8.230  1.00  0.00     0.187 HD
HETATM    8  N   UNK N   1      23.684  20.829  -6.447  0.00  0.00    -0.234 N 
HETATM    9  C   UNK N   1      26.000  23.464  -7.390  0.00  0.00     0.157 A 
HETATM   10  C   UNK N   1      27.510  24.842  -8.029  0.00  0.00     0.186 A 
HETATM   11  C   UNK N   1      26.786  22.848  -8.296  0.00  0.00     0.147 A 
HETATM   12  C   UNK N   1      26.560  21.521  -8.628  0.00  0.00     0.290 A 
HETATM   13  C   UNK N   1      24.734  21.518  -7.081  0.00  0.00     0.680 A 
HETATM   14  H   UNK N   1      24.423  23.297  -6.103  0.00  0.00     0.186 HD
HETATM   15  H   UNK N   1      23.023  21.324  -5.910  0.00  0.00     0.174 HD
HETATM   16  H   UNK N   1      23.609  19.851  -6.540  0.00  0.00     0.174 HD
ENDROOT
BRANCH   2  17
HETATM   17  C   UNK N   1      25.963  25.752  -6.256  0.00  0.00     0.123 C 
HETATM   18  C   UNK N   1      26.248  27.168  -6.750  0.00  0.00     0.062 C 
HETATM   19  C   UNK N   1      26.480  28.008  -5.506  0.00  0.00     0.130 C 
HETATM   20  C   UNK N   1      27.052  27.086  -4.440  0.00  0.00     0.068 C 
HETATM   21  C   UNK N   1      26.646  25.736  -4.927  0.00  0.00    -0.057 C 
HETATM   22  C   UNK N   1      26.734  24.642  -4.165  0.00  0.00     0.017 C 
BRANCH  19  23
HETATM   23  O   UNK N   1      27.358  29.058  -5.769  0.00  0.00    -0.395 OA
HETATM   24  H   UNK N   1      27.549  29.877  -5.285  0.00  0.00     0.210 HD
ENDBRANCH  19  23
BRANCH  20  25
HETATM   25  C   UNK N   1      26.381  27.419  -3.107  0.00  0.00     0.175 C 
BRANCH  25  26
HETATM   26  O   UNK N   1      25.435  28.433  -3.273  0.00  0.00    -0.400 OA
HETATM   27  H   UNK N   1      24.716  28.565  -2.636  0.00  0.00     0.209 HD
ENDBRANCH  25  26
ENDBRANCH  20  25
ENDBRANCH   2  17
TORSDOF 4
ENDMDL
MODEL 7
REMARK VINA RESULT:      -5.9      5.895     10.312
REMARK  4 active torsions:
REMARK  status: ('A' for Active; 'I' for Inactive)
REMARK    1  A    between atoms: C_13  and  O_1 
REMARK    2  A    between atoms: O_2  and  C_16 
REMARK    3  A    between atoms: C_11  and  N_4 
REMARK       I    between atoms: N_10  and  C_22 
REMARK    4  A    between atoms: C_12  and  C_16 
ROOT
HETATM    1  O   UNK N   1      34.593  13.901  12.711  0.00  0.00    -0.265 OA
HETATM    2  N   UNK N   1      34.304  15.440   8.525  0.00  0.00    -0.318 N 
HETATM    3  N   UNK N   1      36.491  14.709   9.298  0.00  0.00    -0.174 N 
HETATM    4  N   UNK N   1      33.203  15.011  10.444  0.00  0.00    -0.345 N 
ATOM      5  HN  UNK N   1      32.462  14.933  11.139  1.00  0.00     0.167 HD
HETATM    6  N   UNK N   1      36.521  13.906  11.537  0.00  0.00    -0.154 N 
ATOM      7  HN  UNK N   1      37.040  13.509  12.320  1.00  0.00     0.187 HD
HETATM    8  N   UNK N   1      38.547  13.899  10.238  0.00  0.00    -0.234 N 
HETATM    9  C   UNK N   1      35.166  14.963   9.442  0.00  0.00     0.157 A 
HETATM   10  C   UNK N   1      33.101  15.454   9.158  0.00  0.00     0.186 A 
HETATM   11  C   UNK N   1      34.503  14.701  10.586  0.00  0.00     0.147 A 
HETATM   12  C   UNK N   1      35.174  14.160  11.673  0.00  0.00     0.290 A 
HETATM   13  C   UNK N   1      37.173  14.178  10.359  0.00  0.00     0.680 A 
HETATM   14  H   UNK N   1      36.951  14.903   8.449  0.00  0.00     0.186 HD
HETATM   15  H   UNK N   1      39.052  14.236   9.463  0.00  0.00     0.174 HD
HETATM   16  H   UNK N   1      39.004  13.366  10.929  0.00  0.00     0.174 HD
ENDROOT
BRANCH   2  17
HETATM   17  C   UNK N   1      34.533  15.784   7.107  0.00  0.00     0.123 C 
HETATM   18  C   UNK N   1      33.841  17.085   6.710  0.00  0.00     0.062 C 
HETATM   19  C   UNK N   1      33.463  16.929   5.247  0.00  0.00     0.130 C 
HETATM   20  C   UNK N   1      33.231  15.446   4.997  0.00  0.00     0.068 C 
HETATM   21  C   UNK N   1      33.961  14.808   6.130  0.00  0.00    -0.057 C 
HETATM   22  C   UNK N   1      34.222  13.499   6.168  0.00  0.00     0.017 C 
BRANCH  19  23
HETATM   23  O   UNK N   1      32.317  17.663   4.946  0.00  0.00    -0.395 OA
HETATM   24  H   UNK N   1      32.006  18.529   5.253  0.00  0.00     0.210 HD
ENDBRANCH  19  23
BRANCH  20  25
HETATM   25  C   UNK N   1      33.863  15.082   3.654  0.00  0.00     0.175 C 
BRANCH  25  26
HETATM   26  O   UNK N   1      33.389  15.920   2.643  0.00  0.00    -0.400 OA
HETATM   27  H   UNK N   1      33.938  16.154   1.878  0.00  0.00     0.209 HD
ENDBRANCH  25  26
ENDBRANCH  20  25
ENDBRANCH   2  17
TORSDOF 4
ENDMDL
MODEL 8
REMARK VINA RESULT:      -5.8     10.855     12.312
REMARK  4 active torsions:
REMARK  status: ('A' for Active; 'I' for Inactive)
REMARK    1  A    between atoms: C_13  and  O_1 
REMARK    2  A    between atoms: O_2  and  C_16 
REMARK    3  A    between atoms: C_11  and  N_4 
REMARK       I    between atoms: N_10  and  C_22 
REMARK    4  A    between atoms: C_12  and  C_16 
ROOT
HETATM    1  O   UNK N   1      33.769  15.088   2.378  0.00  0.00    -0.265 OA
HETATM    2  N   UNK N   1      30.593  16.648   5.110  0.00  0.00    -0.318 N 
HETATM    3  N   UNK N   1      31.033  14.257   5.159  0.00  0.00    -0.174 N 
HETATM    4  N   UNK N   1      32.117  17.152   3.528  0.00  0.00    -0.345 N 
ATOM      5  HN  UNK N   1      32.689  17.672   2.864  1.00  0.00     0.167 HD
HETATM    6  N   UNK N   1      32.746  13.545   3.669  0.00  0.00    -0.154 N 
ATOM      7  HN  UNK N   1      33.318  12.793   3.285  1.00  0.00     0.187 HD
HETATM    8  N   UNK N   1      31.651  11.937   5.087  0.00  0.00    -0.234 N 
HETATM    9  C   UNK N   1      31.210  15.523   4.705  0.00  0.00     0.157 A 
HETATM   10  C   UNK N   1      31.170  17.639   4.379  0.00  0.00     0.186 A 
HETATM   11  C   UNK N   1      32.126  15.828   3.764  0.00  0.00     0.147 A 
HETATM   12  C   UNK N   1      32.924  14.834   3.218  0.00  0.00     0.290 A 
HETATM   13  C   UNK N   1      31.808  13.259   4.632  0.00  0.00     0.680 A 
HETATM   14  H   UNK N   1      30.362  14.061   5.852  0.00  0.00     0.186 HD
HETATM   15  H   UNK N   1      30.881  11.699   5.652  0.00  0.00     0.174 HD
HETATM   16  H   UNK N   1      32.312  11.250   4.840  0.00  0.00     0.174 HD
ENDROOT
BRANCH   2  17
HETATM   17  C   UNK N   1      29.588  16.839   6.174  0.00  0.00     0.123 C 
HETATM   18  C   UNK N   1      28.540  17.884   5.799  0.00  0.00     0.062 C 
HETATM   19  C   UNK N   1      28.122  18.545   7.101  0.00  0.00     0.130 C 
HETATM   20  C   UNK N   1      29.315  18.481   8.042  0.00  0.00     0.068 C 
HETATM   21  C   UNK N   1      30.134  17.382   7.455  0.00  0.00    -0.057 C 
HETATM   22  C   UNK N   1      31.159  16.826   8.105  0.00  0.00     0.017 C 
BRANCH  19  23
HETATM   23  O   UNK N   1      27.733  19.866   6.888  0.00  0.00    -0.395 OA
HETATM   24  H   UNK N   1      27.220  20.282   6.177  0.00  0.00     0.210 HD
ENDBRANCH  19  23
BRANCH  20  25
HETATM   25  C   UNK N   1      28.807  18.111   9.436  0.00  0.00     0.175 C 
BRANCH  25  26
HETATM   26  O   UNK N   1      27.412  18.163   9.481  0.00  0.00    -0.400 OA
HETATM   27  H   UNK N   1      26.865  17.729   8.807  0.00  0.00     0.209 HD
ENDBRANCH  25  26
ENDBRANCH  20  25
ENDBRANCH   2  17
TORSDOF 4
ENDMDL
MODEL 9
REMARK VINA RESULT:      -5.5      3.021      4.595
REMARK  4 active torsions:
REMARK  status: ('A' for Active; 'I' for Inactive)
REMARK    1  A    between atoms: C_13  and  O_1 
REMARK    2  A    between atoms: O_2  and  C_16 
REMARK    3  A    between atoms: C_11  and  N_4 
REMARK       I    between atoms: N_10  and  C_22 
REMARK    4  A    between atoms: C_12  and  C_16 
ROOT
HETATM    1  O   UNK N   1      34.664  13.269   7.289  0.00  0.00    -0.265 OA
HETATM    2  N   UNK N   1      35.075  13.268  11.740  0.00  0.00    -0.318 N 
HETATM    3  N   UNK N   1      34.353  15.337  10.686  0.00  0.00    -0.174 N 
HETATM    4  N   UNK N   1      35.278  12.074   9.840  0.00  0.00    -0.345 N 
ATOM      5  HN  UNK N   1      35.460  11.311   9.189  1.00  0.00     0.167 HD
HETATM    6  N   UNK N   1      34.165  15.216   8.317  0.00  0.00    -0.154 N 
ATOM      7  HN  UNK N   1      33.937  15.665   7.430  1.00  0.00     0.187 HD
HETATM    8  N   UNK N   1      33.612  17.263   9.457  0.00  0.00    -0.234 N 
HETATM    9  C   UNK N   1      34.770  14.046  10.685  0.00  0.00     0.157 A 
HETATM   10  C   UNK N   1      35.378  12.058  11.199  0.00  0.00     0.186 A 
HETATM   11  C   UNK N   1      34.886  13.327   9.550  0.00  0.00     0.147 A 
HETATM   12  C   UNK N   1      34.582  13.903   8.326  0.00  0.00     0.290 A 
HETATM   13  C   UNK N   1      34.052  15.926   9.487  0.00  0.00     0.680 A 
HETATM   14  H   UNK N   1      34.270  15.838  11.529  0.00  0.00     0.186 HD
HETATM   15  H   UNK N   1      33.681  17.823  10.263  0.00  0.00     0.174 HD
HETATM   16  H   UNK N   1      33.235  17.638   8.627  0.00  0.00     0.174 HD
ENDROOT
BRANCH   2  17
HETATM   17  C   UNK N   1      35.011  13.572  13.183  0.00  0.00     0.123 C 
HETATM   18  C   UNK N   1      36.211  14.386  13.657  0.00  0.00     0.062 C 
HETATM   19  C   UNK N   1      36.461  13.968  15.095  0.00  0.00     0.130 C 
HETATM   20  C   UNK N   1      35.994  12.527  15.233  0.00  0.00     0.068 C 
HETATM   21  C   UNK N   1      35.068  12.374  14.075  0.00  0.00    -0.057 C 
HETATM   22  C   UNK N   1      34.242  11.331  13.949  0.00  0.00     0.017 C 
BRANCH  19  23
HETATM   23  O   UNK N   1      37.812  14.080  15.421  0.00  0.00    -0.395 OA
HETATM   24  H   UNK N   1      38.574  14.402  14.914  0.00  0.00     0.210 HD
ENDBRANCH  19  23
BRANCH  20  25
HETATM   25  C   UNK N   1      35.249  12.389  16.561  0.00  0.00     0.175 C 
BRANCH  25  26
HETATM   26  O   UNK N   1      35.169  13.623  17.211  0.00  0.00    -0.400 OA
HETATM   27  H   UNK N   1      35.853  14.301  17.099  0.00  0.00     0.209 HD
ENDBRANCH  25  26
ENDBRANCH  20  25
ENDBRANCH   2  17
TORSDOF 4
ENDMDL
