MODEL 1
REMARK VINA RESULT:      -8.5      0.000      0.000
REMARK  4 active torsions:
REMARK  status: ('A' for Active; 'I' for Inactive)
REMARK    1  A    between atoms: C_15  and  O_3 
REMARK    2  A    between atoms: O_5  and  C_26 
REMARK    3  A    between atoms: C_11  and  C_21 
REMARK    4  A    between atoms: C_21  and  C_26 
ROOT
HETATM    1  F   UNK N   1      29.767  21.250  -3.453  0.00  0.00    -0.238 F 
HETATM    2  O   UNK N   1      25.982  23.900  -3.734  0.00  0.00    -0.381 OA
HETATM    3  O   UNK N   1      34.687  19.029  -4.102  0.00  0.00    -0.289 OA
HETATM    4  C   UNK N   1      28.259  24.471  -4.242  0.00  0.00     0.001 C 
HETATM    5  C   UNK N   1      28.287  23.228  -5.139  0.00  0.00     0.005 C 
HETATM    6  C   UNK N   1      29.729  22.734  -5.347  0.00  0.00     0.035 C 
HETATM    7  C   UNK N   1      30.396  22.378  -3.969  0.00  0.00     0.147 C 
HETATM    8  C   UNK N   1      26.769  24.875  -4.362  0.00  0.00     0.131 C 
HETATM    9  C   UNK N   1      27.517  23.671  -6.382  0.00  0.00     0.013 C 
HETATM   10  C   UNK N   1      28.756  24.069  -2.852  0.00  0.00     0.048 C 
HETATM   11  C   UNK N   1      26.525  24.751  -5.893  0.00  0.00     0.025 C 
HETATM   12  C   UNK N   1      30.205  23.550  -2.948  0.00  0.00     0.160 C 
HETATM   13  C   UNK N   1      31.919  22.075  -4.226  0.00  0.00     0.036 C 
HETATM   14  C   UNK N   1      29.797  21.521  -6.280  0.00  0.00     0.013 C 
HETATM   15  C   UNK N   1      29.168  25.596  -4.789  0.00  0.00     0.019 C 
HETATM   16  C   UNK N   1      31.257  21.211  -6.609  0.00  0.00     0.036 C 
HETATM   17  C   UNK N   1      32.055  21.035  -5.349  0.00  0.00    -0.061 C 
HETATM   18  C   UNK N   1      26.828  26.028  -6.672  0.00  0.00     0.013 C 
HETATM   19  C   UNK N   1      32.609  23.348  -4.709  0.00  0.00     0.028 C 
HETATM   20  C   UNK N   1      32.654  21.675  -2.954  0.00  0.00    -0.006 C 
HETATM   21  C   UNK N   1      32.933  20.023  -5.282  0.00  0.00     0.058 C 
HETATM   22  C   UNK N   1      33.522  20.655  -2.900  0.00  0.00     0.052 C 
HETATM   23  C   UNK N   1      33.776  19.843  -4.094  0.00  0.00     0.172 C 
HETATM   24  H   UNK N   1      25.375  23.240  -3.365  0.00  0.00     0.211 HD
ENDROOT
BRANCH   8  25
HETATM   25  C   UNK N   1      26.353  26.220  -3.778  0.00  0.00     0.185 C 
HETATM   26  O   UNK N   1      26.391  26.382  -2.568  0.00  0.00    -0.292 OA
BRANCH  25  27
HETATM   27  C   UNK N   1      25.908  27.361  -4.642  0.00  0.00     0.245 C 
BRANCH  27  28
HETATM   28  O   UNK N   1      25.185  28.280  -3.883  0.00  0.00    -0.393 OA
HETATM   29  H   UNK N   1      25.184  28.345  -2.915  0.00  0.00     0.209 HD
ENDBRANCH  27  28
ENDBRANCH  25  27
ENDBRANCH   8  25
BRANCH  12  30
HETATM   30  O   UNK N   1      30.641  23.190  -1.673  0.00  0.00    -0.392 OA
HETATM   31  H   UNK N   1      30.255  22.474  -1.145  0.00  0.00     0.210 HD
ENDBRANCH  12  30
TORSDOF 4
ENDMDL
MODEL 2
REMARK VINA RESULT:      -8.4     18.444     21.569
REMARK  4 active torsions:
REMARK  status: ('A' for Active; 'I' for Inactive)
REMARK    1  A    between atoms: C_15  and  O_3 
REMARK    2  A    between atoms: O_5  and  C_26 
REMARK    3  A    between atoms: C_11  and  C_21 
REMARK    4  A    between atoms: C_21  and  C_26 
ROOT
HETATM    1  F   UNK N   1      34.288  11.857  14.589  0.00  0.00    -0.238 F 
HETATM    2  O   UNK N   1      33.560  14.950  11.223  0.00  0.00    -0.381 OA
HETATM    3  O   UNK N   1      36.144   7.773  17.662  0.00  0.00    -0.289 OA
HETATM    4  C   UNK N   1      35.572  13.751  11.753  0.00  0.00     0.001 C 
HETATM    5  C   UNK N   1      34.729  12.470  11.695  0.00  0.00     0.005 C 
HETATM    6  C   UNK N   1      35.386  11.343  12.510  0.00  0.00     0.035 C 
HETATM    7  C   UNK N   1      35.551  11.771  14.013  0.00  0.00     0.147 C 
HETATM    8  C   UNK N   1      34.827  14.628  10.718  0.00  0.00     0.131 C 
HETATM    9  C   UNK N   1      34.550  12.233  10.196  0.00  0.00     0.013 C 
HETATM   10  C   UNK N   1      35.586  14.249  13.200  0.00  0.00     0.048 C 
HETATM   11  C   UNK N   1      34.617  13.631   9.543  0.00  0.00     0.025 C 
HETATM   12  C   UNK N   1      36.225  13.181  14.111  0.00  0.00     0.160 C 
HETATM   13  C   UNK N   1      36.404  10.669  14.746  0.00  0.00     0.036 C 
HETATM   14  C   UNK N   1      34.594  10.034  12.432  0.00  0.00     0.013 C 
HETATM   15  C   UNK N   1      37.028  13.500  11.300  0.00  0.00     0.019 C 
HETATM   16  C   UNK N   1      35.399   8.910  13.084  0.00  0.00     0.036 C 
HETATM   17  C   UNK N   1      35.789   9.285  14.485  0.00  0.00    -0.061 C 
HETATM   18  C   UNK N   1      35.769  13.607   8.541  0.00  0.00     0.013 C 
HETATM   19  C   UNK N   1      37.812  10.652  14.158  0.00  0.00     0.028 C 
HETATM   20  C   UNK N   1      36.588  10.967  16.227  0.00  0.00    -0.006 C 
HETATM   21  C   UNK N   1      35.673   8.362  15.451  0.00  0.00     0.058 C 
HETATM   22  C   UNK N   1      36.460  10.036  17.182  0.00  0.00     0.052 C 
HETATM   23  C   UNK N   1      36.093   8.662  16.825  0.00  0.00     0.172 C 
HETATM   24  H   UNK N   1      32.653  15.167  11.487  0.00  0.00     0.211 HD
ENDROOT
BRANCH   8  25
HETATM   25  C   UNK N   1      35.483  15.941  10.304  0.00  0.00     0.185 C 
HETATM   26  O   UNK N   1      36.535  16.272  10.829  0.00  0.00    -0.292 OA
BRANCH  25  27
HETATM   27  C   UNK N   1      34.885  16.838   9.263  0.00  0.00     0.245 C 
BRANCH  27  28
HETATM   28  O   UNK N   1      33.541  17.074   9.552  0.00  0.00    -0.393 OA
HETATM   29  H   UNK N   1      33.117  17.943   9.618  0.00  0.00     0.209 HD
ENDBRANCH  27  28
ENDBRANCH  25  27
ENDBRANCH   8  25
BRANCH  12  30
HETATM   30  O   UNK N   1      36.231  13.653  15.424  0.00  0.00    -0.392 OA
HETATM   31  H   UNK N   1      35.663  14.369  15.749  0.00  0.00     0.210 HD
ENDBRANCH  12  30
TORSDOF 4
ENDMDL
MODEL 3
REMARK VINA RESULT:      -8.2     13.015     16.890
REMARK  4 active torsions:
REMARK  status: ('A' for Active; 'I' for Inactive)
REMARK    1  A    between atoms: C_15  and  O_3 
REMARK    2  A    between atoms: O_5  and  C_26 
REMARK    3  A    between atoms: C_11  and  C_21 
REMARK    4  A    between atoms: C_21  and  C_26 
ROOT
HETATM    1  F   UNK N   1      34.623  17.215   7.001  0.00  0.00    -0.238 F 
HETATM    2  O   UNK N   1      36.766  16.059  10.937  0.00  0.00    -0.381 OA
HETATM    3  O   UNK N   1      31.865  17.188   2.315  0.00  0.00    -0.289 OA
HETATM    4  C   UNK N   1      34.989  14.913   9.800  0.00  0.00     0.001 C 
HETATM    5  C   UNK N   1      35.863  14.972   8.542  0.00  0.00     0.005 C 
HETATM    6  C   UNK N   1      35.005  14.854   7.271  0.00  0.00     0.035 C 
HETATM    7  C   UNK N   1      33.948  16.017   7.207  0.00  0.00     0.147 C 
HETATM    8  C   UNK N   1      36.077  14.840  10.899  0.00  0.00     0.131 C 
HETATM    9  C   UNK N   1      36.904  13.879   8.782  0.00  0.00     0.013 C 
HETATM   10  C   UNK N   1      34.078  16.142   9.809  0.00  0.00     0.048 C 
HETATM   11  C   UNK N   1      37.051  13.776  10.317  0.00  0.00     0.025 C 
HETATM   12  C   UNK N   1      33.171  16.125   8.562  0.00  0.00     0.160 C 
HETATM   13  C   UNK N   1      32.977  15.731   6.002  0.00  0.00     0.036 C 
HETATM   14  C   UNK N   1      35.853  14.861   5.995  0.00  0.00     0.013 C 
HETATM   15  C   UNK N   1      34.108  13.642   9.828  0.00  0.00     0.019 C 
HETATM   16  C   UNK N   1      34.969  14.535   4.792  0.00  0.00     0.036 C 
HETATM   17  C   UNK N   1      33.797  15.472   4.730  0.00  0.00    -0.061 C 
HETATM   18  C   UNK N   1      36.705  12.342  10.709  0.00  0.00     0.013 C 
HETATM   19  C   UNK N   1      32.183  14.458   6.289  0.00  0.00     0.028 C 
HETATM   20  C   UNK N   1      31.934  16.826   5.824  0.00  0.00    -0.006 C 
HETATM   21  C   UNK N   1      33.449  15.984   3.539  0.00  0.00     0.058 C 
HETATM   22  C   UNK N   1      31.603  17.333   4.630  0.00  0.00     0.052 C 
HETATM   23  C   UNK N   1      32.278  16.861   3.417  0.00  0.00     0.172 C 
HETATM   24  H   UNK N   1      37.318  16.855  10.984  0.00  0.00     0.211 HD
ENDROOT
BRANCH   8  25
HETATM   25  C   UNK N   1      35.622  14.545  12.324  0.00  0.00     0.185 C 
HETATM   26  O   UNK N   1      34.562  13.964  12.503  0.00  0.00    -0.292 OA
BRANCH  25  27
HETATM   27  C   UNK N   1      36.438  14.938  13.519  0.00  0.00     0.245 C 
BRANCH  27  28
HETATM   28  O   UNK N   1      37.150  13.836  13.992  0.00  0.00    -0.393 OA
HETATM   29  H   UNK N   1      36.951  12.905  13.806  0.00  0.00     0.209 HD
ENDBRANCH  27  28
ENDBRANCH  25  27
ENDBRANCH   8  25
BRANCH  12  30
HETATM   30  O   UNK N   1      32.348  17.252   8.588  0.00  0.00    -0.392 OA
HETATM   31  H   UNK N   1      32.640  18.147   8.356  0.00  0.00     0.210 HD
ENDBRANCH  12  30
TORSDOF 4
ENDMDL
MODEL 4
REMARK VINA RESULT:      -8.1     13.698     16.703
REMARK  4 active torsions:
REMARK  status: ('A' for Active; 'I' for Inactive)
REMARK    1  A    between atoms: C_15  and  O_3 
REMARK    2  A    between atoms: O_5  and  C_26 
REMARK    3  A    between atoms: C_11  and  C_21 
REMARK    4  A    between atoms: C_21  and  C_26 
ROOT
HETATM    1  F   UNK N   1      33.294  14.915  10.844  0.00  0.00    -0.238 F 
HETATM    2  O   UNK N   1      31.483  16.440   6.866  0.00  0.00    -0.381 OA
HETATM    3  O   UNK N   1      36.350  12.518  14.649  0.00  0.00    -0.289 OA
HETATM    4  C   UNK N   1      33.747  15.792   7.337  0.00  0.00     0.001 C 
HETATM    5  C   UNK N   1      33.173  14.481   7.887  0.00  0.00     0.005 C 
HETATM    6  C   UNK N   1      34.152  13.826   8.877  0.00  0.00     0.035 C 
HETATM    7  C   UNK N   1      34.450  14.791  10.081  0.00  0.00     0.147 C 
HETATM    8  C   UNK N   1      32.699  16.125   6.246  0.00  0.00     0.131 C 
HETATM    9  C   UNK N   1      32.824  13.690   6.627  0.00  0.00     0.013 C 
HETATM   10  C   UNK N   1      33.877  16.782   8.496  0.00  0.00     0.048 C 
HETATM   11  C   UNK N   1      32.519  14.749   5.544  0.00  0.00     0.025 C 
HETATM   12  C   UNK N   1      34.841  16.214   9.558  0.00  0.00     0.160 C 
HETATM   13  C   UNK N   1      35.601  14.155  10.946  0.00  0.00     0.036 C 
HETATM   14  C   UNK N   1      33.629  12.487   9.409  0.00  0.00     0.013 C 
HETATM   15  C   UNK N   1      35.141  15.586   6.700  0.00  0.00     0.019 C 
HETATM   16  C   UNK N   1      34.727  11.795  10.217  0.00  0.00     0.036 C 
HETATM   17  C   UNK N   1      35.239  12.704  11.297  0.00  0.00    -0.061 C 
HETATM   18  C   UNK N   1      33.491  14.512   4.392  0.00  0.00     0.013 C 
HETATM   19  C   UNK N   1      36.883  14.108  10.118  0.00  0.00     0.028 C 
HETATM   20  C   UNK N   1      35.940  14.995  12.169  0.00  0.00    -0.006 C 
HETATM   21  C   UNK N   1      35.450  12.191  12.519  0.00  0.00     0.058 C 
HETATM   22  C   UNK N   1      36.140  14.469  13.385  0.00  0.00     0.052 C 
HETATM   23  C   UNK N   1      36.001  13.025  13.593  0.00  0.00     0.172 C 
HETATM   24  H   UNK N   1      30.600  16.618   7.225  0.00  0.00     0.211 HD
ENDROOT
BRANCH   8  25
HETATM   25  C   UNK N   1      33.016  17.269   5.290  0.00  0.00     0.185 C 
HETATM   26  O   UNK N   1      33.947  18.019   5.545  0.00  0.00    -0.292 OA
BRANCH  25  27
HETATM   27  C   UNK N   1      32.230  17.501   4.036  0.00  0.00     0.245 C 
BRANCH  27  28
HETATM   28  O   UNK N   1      30.935  17.909   4.353  0.00  0.00    -0.393 OA
HETATM   29  H   UNK N   1      30.149  17.796   3.797  0.00  0.00     0.209 HD
ENDBRANCH  27  28
ENDBRANCH  25  27
ENDBRANCH   8  25
BRANCH  12  30
HETATM   30  O   UNK N   1      34.948  17.130  10.605  0.00  0.00    -0.392 OA
HETATM   31  H   UNK N   1      34.870  18.091  10.500  0.00  0.00     0.210 HD
ENDBRANCH  12  30
TORSDOF 4
ENDMDL
MODEL 5
REMARK VINA RESULT:      -8.0     19.135     22.724
REMARK  4 active torsions:
REMARK  status: ('A' for Active; 'I' for Inactive)
REMARK    1  A    between atoms: C_15  and  O_3 
REMARK    2  A    between atoms: O_5  and  C_26 
REMARK    3  A    between atoms: C_11  and  C_21 
REMARK    4  A    between atoms: C_21  and  C_26 
ROOT
HETATM    1  F   UNK N   1      37.654  11.635  15.055  0.00  0.00    -0.238 F 
HETATM    2  O   UNK N   1      38.404  13.617  10.940  0.00  0.00    -0.381 OA
HETATM    3  O   UNK N   1      35.439   9.653  19.608  0.00  0.00    -0.289 OA
HETATM    4  C   UNK N   1      36.399  12.590  11.771  0.00  0.00     0.001 C 
HETATM    5  C   UNK N   1      36.538  13.498  12.999  0.00  0.00     0.005 C 
HETATM    6  C   UNK N   1      35.794  12.905  14.207  0.00  0.00     0.035 C 
HETATM    7  C   UNK N   1      36.362  11.483  14.563  0.00  0.00     0.147 C 
HETATM    8  C   UNK N   1      37.033  13.488  10.681  0.00  0.00     0.131 C 
HETATM    9  C   UNK N   1      36.064  14.858  12.489  0.00  0.00     0.013 C 
HETATM   10  C   UNK N   1      37.103  11.266  12.073  0.00  0.00     0.048 C 
HETATM   11  C   UNK N   1      36.374  14.865  10.975  0.00  0.00     0.025 C 
HETATM   12  C   UNK N   1      36.433  10.585  13.283  0.00  0.00     0.160 C 
HETATM   13  C   UNK N   1      35.437  10.847  15.667  0.00  0.00     0.036 C 
HETATM   14  C   UNK N   1      35.872  13.812  15.440  0.00  0.00     0.013 C 
HETATM   15  C   UNK N   1      34.917  12.300  11.436  0.00  0.00     0.019 C 
HETATM   16  C   UNK N   1      34.948  13.272  16.531  0.00  0.00     0.036 C 
HETATM   17  C   UNK N   1      35.271  11.836  16.831  0.00  0.00    -0.061 C 
HETATM   18  C   UNK N   1      35.053  15.086  10.244  0.00  0.00     0.013 C 
HETATM   19  C   UNK N   1      34.048  10.609  15.081  0.00  0.00     0.028 C 
HETATM   20  C   UNK N   1      35.926   9.478  16.117  0.00  0.00    -0.006 C 
HETATM   21  C   UNK N   1      35.312  11.444  18.114  0.00  0.00     0.058 C 
HETATM   22  C   UNK N   1      35.971   9.103  17.403  0.00  0.00     0.052 C 
HETATM   23  C   UNK N   1      35.568  10.040  18.456  0.00  0.00     0.172 C 
HETATM   24  H   UNK N   1      39.346  13.792  11.087  0.00  0.00     0.211 HD
ENDROOT
BRANCH   8  25
HETATM   25  C   UNK N   1      36.899  13.037   9.230  0.00  0.00     0.185 C 
HETATM   26  O   UNK N   1      36.276  12.017   8.979  0.00  0.00    -0.292 OA
BRANCH  25  27
HETATM   27  C   UNK N   1      37.498  13.812   8.096  0.00  0.00     0.245 C 
BRANCH  27  28
HETATM   28  O   UNK N   1      38.889  13.810   8.200  0.00  0.00    -0.393 OA
HETATM   29  H   UNK N   1      39.509  13.445   7.550  0.00  0.00     0.209 HD
ENDBRANCH  27  28
ENDBRANCH  25  27
ENDBRANCH   8  25
BRANCH  12  30
HETATM   30  O   UNK N   1      37.086   9.379  13.541  0.00  0.00    -0.392 OA
HETATM   31  H   UNK N   1      38.049   9.264  13.518  0.00  0.00     0.210 HD
ENDBRANCH  12  30
TORSDOF 4
ENDMDL
MODEL 6
REMARK VINA RESULT:      -7.8      1.822      7.106
REMARK  4 active torsions:
REMARK  status: ('A' for Active; 'I' for Inactive)
REMARK    1  A    between atoms: C_15  and  O_3 
REMARK    2  A    between atoms: O_5  and  C_26 
REMARK    3  A    between atoms: C_11  and  C_21 
REMARK    4  A    between atoms: C_21  and  C_26 
ROOT
HETATM    1  F   UNK N   1      29.410  25.339  -5.849  0.00  0.00    -0.238 F 
HETATM    2  O   UNK N   1      33.113  22.574  -5.590  0.00  0.00    -0.381 OA
HETATM    3  O   UNK N   1      24.417  27.474  -5.580  0.00  0.00    -0.289 OA
HETATM    4  C   UNK N   1      31.116  22.541  -4.257  0.00  0.00     0.001 C 
HETATM    5  C   UNK N   1      30.332  22.507  -5.576  0.00  0.00     0.005 C 
HETATM    6  C   UNK N   1      28.901  23.034  -5.377  0.00  0.00     0.035 C 
HETATM    7  C   UNK N   1      28.925  24.512  -4.841  0.00  0.00     0.147 C 
HETATM    8  C   UNK N   1      32.403  21.788  -4.673  0.00  0.00     0.131 C 
HETATM    9  C   UNK N   1      30.483  21.059  -6.040  0.00  0.00     0.013 C 
HETATM   10  C   UNK N   1      31.275  24.002  -3.833  0.00  0.00     0.048 C 
HETATM   11  C   UNK N   1      31.827  20.573  -5.454  0.00  0.00     0.025 C 
HETATM   12  C   UNK N   1      29.886  24.633  -3.611  0.00  0.00     0.160 C 
HETATM   13  C   UNK N   1      27.452  24.923  -4.469  0.00  0.00     0.036 C 
HETATM   14  C   UNK N   1      28.075  22.969  -6.666  0.00  0.00     0.013 C 
HETATM   15  C   UNK N   1      30.381  21.774  -3.134  0.00  0.00     0.019 C 
HETATM   16  C   UNK N   1      26.617  23.308  -6.356  0.00  0.00     0.036 C 
HETATM   17  C   UNK N   1      26.521  24.634  -5.657  0.00  0.00    -0.061 C 
HETATM   18  C   UNK N   1      31.525  19.362  -4.575  0.00  0.00     0.013 C 
HETATM   19  C   UNK N   1      26.970  24.062  -3.304  0.00  0.00     0.028 C 
HETATM   20  C   UNK N   1      27.356  26.360  -3.977  0.00  0.00    -0.006 C 
HETATM   21  C   UNK N   1      25.560  25.490  -6.037  0.00  0.00     0.058 C 
HETATM   22  C   UNK N   1      26.395  27.206  -4.371  0.00  0.00     0.052 C 
HETATM   23  C   UNK N   1      25.391  26.774  -5.348  0.00  0.00     0.172 C 
HETATM   24  H   UNK N   1      33.629  23.041  -6.265  0.00  0.00     0.211 HD
ENDROOT
BRANCH   8  25
HETATM   25  C   UNK N   1      33.382  21.404  -3.569  0.00  0.00     0.185 C 
HETATM   26  O   UNK N   1      32.993  21.369  -2.412  0.00  0.00    -0.292 OA
BRANCH  25  27
HETATM   27  C   UNK N   1      34.812  21.057  -3.857  0.00  0.00     0.245 C 
BRANCH  27  28
HETATM   28  O   UNK N   1      34.945  19.677  -4.015  0.00  0.00    -0.393 OA
HETATM   29  H   UNK N   1      35.443  19.229  -4.716  0.00  0.00     0.209 HD
ENDBRANCH  27  28
ENDBRANCH  25  27
ENDBRANCH   8  25
BRANCH  12  30
HETATM   30  O   UNK N   1      30.051  25.963  -3.222  0.00  0.00    -0.392 OA
HETATM   31  H   UNK N   1      30.240  26.247  -2.314  0.00  0.00     0.210 HD
ENDBRANCH  12  30
TORSDOF 4
ENDMDL
MODEL 7
REMARK VINA RESULT:      -7.7     11.416     13.621
REMARK  4 active torsions:
REMARK  status: ('A' for Active; 'I' for Inactive)
REMARK    1  A    between atoms: C_15  and  O_3 
REMARK    2  A    between atoms: O_5  and  C_26 
REMARK    3  A    between atoms: C_11  and  C_21 
REMARK    4  A    between atoms: C_21  and  C_26 
ROOT
HETATM    1  F   UNK N   1      31.634  15.318   8.753  0.00  0.00    -0.238 F 
HETATM    2  O   UNK N   1      27.736  15.750   6.295  0.00  0.00    -0.381 OA
HETATM    3  O   UNK N   1      36.812  15.084  10.396  0.00  0.00    -0.289 OA
HETATM    4  C   UNK N   1      29.896  16.707   5.867  0.00  0.00     0.001 C 
HETATM    5  C   UNK N   1      30.463  15.287   6.001  0.00  0.00     0.005 C 
HETATM    6  C   UNK N   1      31.956  15.325   6.367  0.00  0.00     0.035 C 
HETATM    7  C   UNK N   1      32.173  16.086   7.726  0.00  0.00     0.147 C 
HETATM    8  C   UNK N   1      28.487  16.398   5.305  0.00  0.00     0.131 C 
HETATM    9  C   UNK N   1      30.088  14.630   4.673  0.00  0.00     0.013 C 
HETATM   10  C   UNK N   1      29.962  17.379   7.240  0.00  0.00     0.048 C 
HETATM   11  C   UNK N   1      28.804  15.348   4.203  0.00  0.00     0.025 C 
HETATM   12  C   UNK N   1      31.429  17.463   7.708  0.00  0.00     0.160 C 
HETATM   13  C   UNK N   1      33.722  16.267   7.944  0.00  0.00     0.036 C 
HETATM   14  C   UNK N   1      32.566  13.922   6.461  0.00  0.00     0.013 C 
HETATM   15  C   UNK N   1      30.705  17.555   4.859  0.00  0.00     0.019 C 
HETATM   16  C   UNK N   1      34.082  14.034   6.621  0.00  0.00     0.036 C 
HETATM   17  C   UNK N   1      34.425  14.909   7.793  0.00  0.00    -0.061 C 
HETATM   18  C   UNK N   1      29.102  15.960   2.836  0.00  0.00     0.013 C 
HETATM   19  C   UNK N   1      34.278  17.183   6.857  0.00  0.00     0.028 C 
HETATM   20  C   UNK N   1      34.046  16.959   9.261  0.00  0.00    -0.006 C 
HETATM   21  C   UNK N   1      35.404  14.516   8.621  0.00  0.00     0.058 C 
HETATM   22  C   UNK N   1      35.021  16.549  10.082  0.00  0.00     0.052 C 
HETATM   23  C   UNK N   1      35.814  15.362   9.748  0.00  0.00     0.172 C 
HETATM   24  H   UNK N   1      27.177  15.253   6.912  0.00  0.00     0.211 HD
ENDROOT
BRANCH   8  25
HETATM   25  C   UNK N   1      27.650  17.574   4.816  0.00  0.00     0.185 C 
HETATM   26  O   UNK N   1      28.171  18.675   4.715  0.00  0.00    -0.292 OA
BRANCH  25  27
HETATM   27  C   UNK N   1      26.206  17.425   4.442  0.00  0.00     0.245 C 
BRANCH  27  28
HETATM   28  O   UNK N   1      25.424  17.319   5.592  0.00  0.00    -0.393 OA
HETATM   29  H   UNK N   1      24.649  17.861   5.805  0.00  0.00     0.209 HD
ENDBRANCH  27  28
ENDBRANCH  25  27
ENDBRANCH   8  25
BRANCH  12  30
HETATM   30  O   UNK N   1      31.469  18.080   8.959  0.00  0.00    -0.392 OA
HETATM   31  H   UNK N   1      30.746  18.052   9.605  0.00  0.00     0.210 HD
ENDBRANCH  12  30
TORSDOF 4
ENDMDL
MODEL 8
REMARK VINA RESULT:      -7.7     11.008     12.642
REMARK  4 active torsions:
REMARK  status: ('A' for Active; 'I' for Inactive)
REMARK    1  A    between atoms: C_15  and  O_3 
REMARK    2  A    between atoms: O_5  and  C_26 
REMARK    3  A    between atoms: C_11  and  C_21 
REMARK    4  A    between atoms: C_21  and  C_26 
ROOT
HETATM    1  F   UNK N   1      30.096  18.206   4.966  0.00  0.00    -0.238 F 
HETATM    2  O   UNK N   1      25.956  17.075   3.230  0.00  0.00    -0.381 OA
HETATM    3  O   UNK N   1      34.754  18.367   7.765  0.00  0.00    -0.289 OA
HETATM    4  C   UNK N   1      27.611  15.647   4.225  0.00  0.00     0.001 C 
HETATM    5  C   UNK N   1      27.608  16.610   5.419  0.00  0.00     0.005 C 
HETATM    6  C   UNK N   1      28.924  16.509   6.208  0.00  0.00     0.035 C 
HETATM    7  C   UNK N   1      30.150  16.853   5.285  0.00  0.00     0.147 C 
HETATM    8  C   UNK N   1      26.145  15.786   3.745  0.00  0.00     0.131 C 
HETATM    9  C   UNK N   1      26.322  16.247   6.162  0.00  0.00     0.013 C 
HETATM   10  C   UNK N   1      28.703  16.095   3.252  0.00  0.00     0.048 C 
HETATM   11  C   UNK N   1      25.359  15.702   5.084  0.00  0.00     0.025 C 
HETATM   12  C   UNK N   1      30.076  16.037   3.951  0.00  0.00     0.160 C 
HETATM   13  C   UNK N   1      31.469  16.540   6.084  0.00  0.00     0.036 C 
HETATM   14  C   UNK N   1      28.935  17.424   7.438  0.00  0.00     0.013 C 
HETATM   15  C   UNK N   1      27.900  14.192   4.661  0.00  0.00     0.019 C 
HETATM   16  C   UNK N   1      30.173  17.127   8.284  0.00  0.00     0.036 C 
HETATM   17  C   UNK N   1      31.419  17.236   7.453  0.00  0.00    -0.061 C 
HETATM   18  C   UNK N   1      24.983  14.280   5.492  0.00  0.00     0.013 C 
HETATM   19  C   UNK N   1      31.551  15.039   6.348  0.00  0.00     0.028 C 
HETATM   20  C   UNK N   1      32.723  16.881   5.292  0.00  0.00    -0.006 C 
HETATM   21  C   UNK N   1      32.484  17.863   7.975  0.00  0.00     0.058 C 
HETATM   22  C   UNK N   1      33.776  17.516   5.824  0.00  0.00     0.052 C 
HETATM   23  C   UNK N   1      33.742  17.948   7.225  0.00  0.00     0.172 C 
HETATM   24  H   UNK N   1      25.741  17.964   2.908  0.00  0.00     0.211 HD
ENDROOT
BRANCH   8  25
HETATM   25  C   UNK N   1      25.657  14.810   2.681  0.00  0.00     0.185 C 
HETATM   26  O   UNK N   1      26.429  13.971   2.242  0.00  0.00    -0.292 OA
BRANCH  25  27
HETATM   27  C   UNK N   1      24.252  14.836   2.159  0.00  0.00     0.245 C 
BRANCH  27  28
HETATM   28  O   UNK N   1      24.228  14.413   0.831  0.00  0.00    -0.393 OA
HETATM   29  H   UNK N   1      24.404  14.966   0.053  0.00  0.00     0.209 HD
ENDBRANCH  27  28
ENDBRANCH  25  27
ENDBRANCH   8  25
BRANCH  12  30
HETATM   30  O   UNK N   1      31.059  16.447   3.048  0.00  0.00    -0.392 OA
HETATM   31  H   UNK N   1      31.375  17.360   2.963  0.00  0.00     0.210 HD
ENDBRANCH  12  30
TORSDOF 4
ENDMDL
MODEL 9
REMARK VINA RESULT:      -7.7     10.589     13.946
REMARK  4 active torsions:
REMARK  status: ('A' for Active; 'I' for Inactive)
REMARK    1  A    between atoms: C_15  and  O_3 
REMARK    2  A    between atoms: O_5  and  C_26 
REMARK    3  A    between atoms: C_11  and  C_21 
REMARK    4  A    between atoms: C_21  and  C_26 
ROOT
HETATM    1  F   UNK N   1      29.799  18.315   5.216  0.00  0.00    -0.238 F 
HETATM    2  O   UNK N   1      34.188  17.946   6.639  0.00  0.00    -0.381 OA
HETATM    3  O   UNK N   1      24.783  17.362   3.347  0.00  0.00    -0.289 OA
HETATM    4  C   UNK N   1      32.468  16.271   6.620  0.00  0.00     0.001 C 
HETATM    5  C   UNK N   1      32.259  16.616   5.140  0.00  0.00     0.005 C 
HETATM    6  C   UNK N   1      30.848  16.216   4.678  0.00  0.00     0.035 C 
HETATM    7  C   UNK N   1      29.755  16.961   5.529  0.00  0.00     0.147 C 
HETATM    8  C   UNK N   1      33.980  16.567   6.770  0.00  0.00     0.131 C 
HETATM    9  C   UNK N   1      33.438  15.932   4.448  0.00  0.00     0.013 C 
HETATM   10  C   UNK N   1      31.510  17.127   7.451  0.00  0.00     0.048 C 
HETATM   11  C   UNK N   1      34.568  15.887   5.501  0.00  0.00     0.025 C 
HETATM   12  C   UNK N   1      30.054  16.807   7.058  0.00  0.00     0.160 C 
HETATM   13  C   UNK N   1      28.348  16.365   5.150  0.00  0.00     0.036 C 
HETATM   14  C   UNK N   1      30.622  16.503   3.189  0.00  0.00     0.013 C 
HETATM   15  C   UNK N   1      32.179  14.780   6.909  0.00  0.00     0.019 C 
HETATM   16  C   UNK N   1      29.289  15.899   2.749  0.00  0.00     0.036 C 
HETATM   17  C   UNK N   1      28.172  16.393   3.624  0.00  0.00    -0.061 C 
HETATM   18  C   UNK N   1      34.939  14.420   5.702  0.00  0.00     0.013 C 
HETATM   19  C   UNK N   1      28.290  14.902   5.581  0.00  0.00     0.028 C 
HETATM   20  C   UNK N   1      27.209  17.050   5.891  0.00  0.00    -0.006 C 
HETATM   21  C   UNK N   1      27.018  16.757   3.044  0.00  0.00     0.058 C 
HETATM   22  C   UNK N   1      26.065  17.417   5.297  0.00  0.00     0.052 C 
HETATM   23  C   UNK N   1      25.879  17.194   3.860  0.00  0.00     0.172 C 
HETATM   24  H   UNK N   1      34.411  18.880   6.506  0.00  0.00     0.211 HD
ENDROOT
BRANCH   8  25
HETATM   25  C   UNK N   1      34.657  16.140   8.068  0.00  0.00     0.185 C 
HETATM   26  O   UNK N   1      35.408  15.176   8.060  0.00  0.00    -0.292 OA
BRANCH  25  27
HETATM   27  C   UNK N   1      34.441  16.872   9.357  0.00  0.00     0.245 C 
BRANCH  27  28
HETATM   28  O   UNK N   1      35.255  18.004   9.406  0.00  0.00    -0.393 OA
HETATM   29  H   UNK N   1      35.611  18.415  10.209  0.00  0.00     0.209 HD
ENDBRANCH  27  28
ENDBRANCH  25  27
ENDBRANCH   8  25
BRANCH  12  30
HETATM   30  O   UNK N   1      29.196  17.595   7.826  0.00  0.00    -0.392 OA
HETATM   31  H   UNK N   1      29.185  18.564   7.811  0.00  0.00     0.210 HD
ENDBRANCH  12  30
TORSDOF 4
ENDMDL
