REMARK  4 active torsions:
REMARK  status: ('A' for Active; 'I' for Inactive)
REMARK    1  A    between atoms: C_15  and  O_3 
REMARK    2  A    between atoms: O_5  and  C_26 
REMARK    3  A    between atoms: C_11  and  C_21 
REMARK    4  A    between atoms: C_21  and  C_26 
ROOT
HETATM    1  F   UNK N   1       4.079  -0.995  -1.734  0.00  0.00    -0.238 F 
HETATM    2  O   UNK N   1       8.361   0.763  -1.768  0.00  0.00    -0.381 OA
HETATM    3  O   UNK N   1      -0.571  -3.480  -0.406  0.00  0.00    -0.289 OA
HETATM    4  C   UNK N   1       6.946   0.287   0.113  0.00  0.00     0.001 C 
HETATM    5  C   UNK N   1       6.785  -1.124  -0.467  0.00  0.00     0.005 C 
HETATM    6  C   UNK N   1       5.494  -1.784   0.046  0.00  0.00     0.035 C 
HETATM    7  C   UNK N   1       4.238  -0.927  -0.354  0.00  0.00     0.147 C 
HETATM    8  C   UNK N   1       8.375   0.632  -0.373  0.00  0.00     0.131 C 
HETATM    9  C   UNK N   1       8.105  -1.806  -0.109  0.00  0.00     0.013 C 
HETATM   10  C   UNK N   1       5.805   1.156  -0.420  0.00  0.00     0.048 C 
HETATM   11  C   UNK N   1       9.152  -0.672  -0.038  0.00  0.00     0.025 C 
HETATM   12  C   UNK N   1       4.452   0.574   0.036  0.00  0.00     0.160 C 
HETATM   13  C   UNK N   1       2.978  -1.539   0.364  0.00  0.00     0.036 C 
HETATM   14  C   UNK N   1       5.327  -3.215  -0.476  0.00  0.00     0.013 C 
HETATM   15  C   UNK N   1       6.888   0.283   1.658  0.00  0.00     0.019 C 
HETATM   16  C   UNK N   1       4.145  -3.881   0.228  0.00  0.00     0.036 C 
HETATM   17  C   UNK N   1       2.905  -3.047   0.079  0.00  0.00    -0.061 C 
HETATM   18  C   UNK N   1       9.746  -0.693   1.368  0.00  0.00     0.013 C 
HETATM   19  C   UNK N   1       3.133  -1.376   1.874  0.00  0.00     0.028 C 
HETATM   20  C   UNK N   1       1.693  -0.805   0.008  0.00  0.00    -0.006 C 
HETATM   21  C   UNK N   1       1.749  -3.664  -0.210  0.00  0.00     0.058 C 
HETATM   22  C   UNK N   1       0.548  -1.435  -0.287  0.00  0.00     0.052 C 
HETATM   23  C   UNK N   1       0.500  -2.900  -0.311  0.00  0.00     0.172 C 
HETATM   24  H   UNK N   1       8.435   0.817  -2.733  0.00  0.00     0.211 HD
ENDROOT
BRANCH   8  25
HETATM   25  C   UNK N   1       9.022   1.896   0.182  0.00  0.00     0.185 C 
HETATM   26  O   UNK N   1      10.169   2.169  -0.139  0.00  0.00    -0.292 OA
BRANCH  25  27
HETATM   27  C   UNK N   1       8.293   2.826   1.104  0.00  0.00     0.245 C 
BRANCH  27  28
HETATM   28  O   UNK N   1       8.181   4.087   0.519  0.00  0.00    -0.393 OA
HETATM   29  H   UNK N   1       8.902   4.593   0.113  0.00  0.00     0.209 HD
ENDBRANCH  27  28
ENDBRANCH  25  27
ENDBRANCH   8  25
BRANCH  12  30
HETATM   30  O   UNK N   1       3.425   1.380  -0.457  0.00  0.00    -0.392 OA
HETATM   31  H   UNK N   1       3.553   2.278  -0.800  0.00  0.00     0.210 HD
ENDBRANCH  12  30
TORSDOF 4
