MODEL 1
REMARK VINA RESULT:      -8.0      0.000      0.000
REMARK  11 active torsions:
REMARK  status: ('A' for Active; 'I' for Inactive)
REMARK    1  A    between atoms: C_13  and  O_1 
REMARK    2  A    between atoms: C_19  and  O_1 
REMARK    3  A    between atoms: C_14  and  O_3 
REMARK    4  A    between atoms: C_22  and  O_4 
REMARK    5  A    between atoms: O_5  and  C_24 
REMARK    6  A    between atoms: O_6  and  C_26 
REMARK    7  A    between atoms: O_8  and  C_30 
REMARK    8  A    between atoms: O_11  and  C_35 
REMARK    9  A    between atoms: C_21  and  N_12 
REMARK   10  A    between atoms: C_14  and  C_25 
REMARK   11  A    between atoms: C_25  and  C_30 
ROOT
HETATM    1  O   UNK N   1      31.259  16.441   9.491  0.00  0.00    -0.286 OA
HETATM    2  O   UNK N   1      33.695  16.601   4.760  0.00  0.00    -0.286 OA
HETATM    3  C   UNK N   1      35.456  13.369  10.141  0.00  0.00     0.164 C 
HETATM    4  C   UNK N   1      37.013  12.395   8.367  0.00  0.00     0.127 C 
HETATM    5  C   UNK N   1      35.851  12.128   9.339  0.00  0.00     0.083 C 
HETATM    6  C   UNK N   1      36.970  13.828   7.788  0.00  0.00     0.088 C 
HETATM    7  C   UNK N   1      34.914  14.354   9.120  0.00  0.00     0.014 A 
HETATM    8  C   UNK N   1      35.625  14.504   7.920  0.00  0.00    -0.009 A 
HETATM    9  C   UNK N   1      33.686  15.017   9.293  0.00  0.00     0.090 A 
HETATM   10  C   UNK N   1      35.076  15.230   6.854  0.00  0.00     0.088 A 
HETATM   11  C   UNK N   1      33.123  15.752   8.230  0.00  0.00     0.066 A 
HETATM   12  C   UNK N   1      33.798  15.828   6.991  0.00  0.00     0.066 A 
HETATM   13  C   UNK N   1      31.780  16.381   8.389  0.00  0.00     0.200 C 
HETATM   14  C   UNK N   1      33.124  16.492   5.833  0.00  0.00     0.197 C 
HETATM   15  C   UNK N   1      31.046  16.871   7.197  0.00  0.00     0.062 A 
HETATM   16  C   UNK N   1      31.707  16.921   5.953  0.00  0.00     0.032 A 
HETATM   17  C   UNK N   1      29.683  17.250   7.284  0.00  0.00     0.083 A 
HETATM   18  C   UNK N   1      31.012  17.348   4.814  0.00  0.00     0.017 A 
HETATM   19  C   UNK N   1      29.008  17.663   6.123  0.00  0.00     0.038 A 
HETATM   20  C   UNK N   1      29.669  17.711   4.898  0.00  0.00     0.004 A 
ENDROOT
BRANCH   3  21
HETATM   21  O   UNK N   1      34.449  12.933  11.011  0.00  0.00    -0.351 OA
BRANCH  21  22
HETATM   22  C   UNK N   1      35.046  12.558  12.215  0.00  0.00     0.263 C 
HETATM   23  O   UNK N   1      34.066  12.075  13.104  0.00  0.00    -0.354 OA
HETATM   24  C   UNK N   1      34.756  11.519  14.192  0.00  0.00     0.151 C 
HETATM   25  C   UNK N   1      35.349  12.662  15.026  0.00  0.00     0.169 C 
HETATM   26  C   UNK N   1      33.790  10.685  15.012  0.00  0.00     0.042 C 
HETATM   27  C   UNK N   1      36.334  13.466  14.163  0.00  0.00     0.110 C 
HETATM   28  C   UNK N   1      35.686  13.813  12.825  0.00  0.00     0.088 C 
BRANCH  25  29
HETATM   29  O   UNK N   1      35.990  12.176  16.169  0.00  0.00    -0.391 OA
HETATM   30  H   UNK N   1      36.336  11.299  16.395  0.00  0.00     0.210 HD
ENDBRANCH  25  29
BRANCH  27  31
HETATM   31  N   UNK N   1      37.552  12.705  13.922  0.00  0.00    -0.423 N 
HETATM   32  H   UNK N   1      38.244  11.959  13.848  0.00  0.00     0.150 HD
HETATM   33  H   UNK N   1      38.133  13.472  13.585  0.00  0.00     0.150 HD
ENDBRANCH  27  31
ENDBRANCH  21  22
ENDBRANCH   3  21
BRANCH   4  34
HETATM   34  O   UNK N   1      36.913  11.482   7.317  0.00  0.00    -0.382 OA
HETATM   35  H   UNK N   1      37.153  10.610   6.966  0.00  0.00     0.211 HD
ENDBRANCH   4  34
BRANCH   4  36
HETATM   36  C   UNK N   1      38.334  12.186   9.076  0.00  0.00     0.184 C 
HETATM   37  O   UNK N   1      38.860  11.079   9.095  0.00  0.00    -0.292 OA
BRANCH  36  38
HETATM   38  C   UNK N   1      39.013  13.341   9.755  0.00  0.00     0.245 C 
BRANCH  38  39
HETATM   39  O   UNK N   1      38.750  13.336  11.127  0.00  0.00    -0.393 OA
HETATM   40  H   UNK N   1      37.957  13.723  11.530  0.00  0.00     0.209 HD
ENDBRANCH  38  39
ENDBRANCH  36  38
ENDBRANCH   4  36
BRANCH   9  41
HETATM   41  O   UNK N   1      33.025  14.914  10.461  0.00  0.00    -0.359 OA
HETATM   42  H   UNK N   1      33.204  15.517  11.156  0.00  0.00     0.217 HD
ENDBRANCH   9  41
BRANCH  10  43
HETATM   43  O   UNK N   1      35.755  15.314   5.695  0.00  0.00    -0.359 OA
HETATM   44  H   UNK N   1      35.991  16.152   5.349  0.00  0.00     0.217 HD
ENDBRANCH  10  43
BRANCH  17  45
HETATM   45  O   UNK N   1      29.035  17.186   8.475  0.00  0.00    -0.355 OA
HETATM   46  C   UNK N   1      28.221  18.185   8.960  0.00  0.00     0.210 C 
ENDBRANCH  17  45
TORSDOF 11
ENDMDL
MODEL 2
REMARK VINA RESULT:      -7.4      3.900      7.668
REMARK  11 active torsions:
REMARK  status: ('A' for Active; 'I' for Inactive)
REMARK    1  A    between atoms: C_13  and  O_1 
REMARK    2  A    between atoms: C_19  and  O_1 
REMARK    3  A    between atoms: C_14  and  O_3 
REMARK    4  A    between atoms: C_22  and  O_4 
REMARK    5  A    between atoms: O_5  and  C_24 
REMARK    6  A    between atoms: O_6  and  C_26 
REMARK    7  A    between atoms: O_8  and  C_30 
REMARK    8  A    between atoms: O_11  and  C_35 
REMARK    9  A    between atoms: C_21  and  N_12 
REMARK   10  A    between atoms: C_14  and  C_25 
REMARK   11  A    between atoms: C_25  and  C_30 
ROOT
HETATM    1  O   UNK N   1      28.487  17.881   3.915  0.00  0.00    -0.286 OA
HETATM    2  O   UNK N   1      28.781  18.737   9.162  0.00  0.00    -0.286 OA
HETATM    3  C   UNK N   1      32.758  15.218   5.379  0.00  0.00     0.164 C 
HETATM    4  C   UNK N   1      34.049  15.354   7.577  0.00  0.00     0.127 C 
HETATM    5  C   UNK N   1      34.003  15.749   6.092  0.00  0.00     0.083 C 
HETATM    6  C   UNK N   1      32.640  15.303   8.210  0.00  0.00     0.088 C 
HETATM    7  C   UNK N   1      31.586  15.934   6.027  0.00  0.00     0.014 A 
HETATM    8  C   UNK N   1      31.586  16.049   7.425  0.00  0.00    -0.009 A 
HETATM    9  C   UNK N   1      30.584  16.571   5.273  0.00  0.00     0.090 A 
HETATM   10  C   UNK N   1      30.654  16.873   8.072  0.00  0.00     0.088 A 
HETATM   11  C   UNK N   1      29.640  17.402   5.911  0.00  0.00     0.066 A 
HETATM   12  C   UNK N   1      29.696  17.588   7.311  0.00  0.00     0.066 A 
HETATM   13  C   UNK N   1      28.633  18.144   5.098  0.00  0.00     0.200 C 
HETATM   14  C   UNK N   1      28.777  18.578   7.951  0.00  0.00     0.197 C 
HETATM   15  C   UNK N   1      27.858  19.251   5.711  0.00  0.00     0.062 A 
HETATM   16  C   UNK N   1      27.934  19.458   7.103  0.00  0.00     0.032 A 
HETATM   17  C   UNK N   1      27.077  20.123   4.912  0.00  0.00     0.083 A 
HETATM   18  C   UNK N   1      27.235  20.523   7.686  0.00  0.00     0.017 A 
HETATM   19  C   UNK N   1      26.396  21.189   5.522  0.00  0.00     0.038 A 
HETATM   20  C   UNK N   1      26.475  21.386   6.899  0.00  0.00     0.004 A 
ENDROOT
BRANCH   3  21
HETATM   21  O   UNK N   1      32.913  15.604   4.041  0.00  0.00    -0.351 OA
BRANCH  21  22
HETATM   22  C   UNK N   1      33.504  14.547   3.349  0.00  0.00     0.263 C 
HETATM   23  O   UNK N   1      34.078  15.021   2.153  0.00  0.00    -0.354 OA
HETATM   24  C   UNK N   1      34.833  13.961   1.627  0.00  0.00     0.151 C 
HETATM   25  C   UNK N   1      33.866  12.905   1.073  0.00  0.00     0.169 C 
HETATM   26  C   UNK N   1      35.741  14.498   0.539  0.00  0.00     0.042 C 
HETATM   27  C   UNK N   1      32.981  12.376   2.212  0.00  0.00     0.110 C 
HETATM   28  C   UNK N   1      32.394  13.546   2.998  0.00  0.00     0.088 C 
BRANCH  25  29
HETATM   29  O   UNK N   1      34.558  11.853   0.468  0.00  0.00    -0.391 OA
HETATM   30  H   UNK N   1      35.313  11.319   0.761  0.00  0.00     0.210 HD
ENDBRANCH  25  29
BRANCH  27  31
HETATM   31  N   UNK N   1      33.748  11.530   3.115  0.00  0.00    -0.423 N 
HETATM   32  H   UNK N   1      34.463  11.158   3.741  0.00  0.00     0.150 HD
HETATM   33  H   UNK N   1      33.112  10.733   3.137  0.00  0.00     0.150 HD
ENDBRANCH  27  31
ENDBRANCH  21  22
ENDBRANCH   3  21
BRANCH   4  34
HETATM   34  O   UNK N   1      34.812  16.308   8.251  0.00  0.00    -0.382 OA
HETATM   35  H   UNK N   1      35.695  16.657   8.450  0.00  0.00     0.211 HD
ENDBRANCH   4  34
BRANCH   4  36
HETATM   36  C   UNK N   1      34.710  14.000   7.728  0.00  0.00     0.184 C 
HETATM   37  O   UNK N   1      34.033  12.981   7.776  0.00  0.00    -0.292 OA
BRANCH  36  38
HETATM   38  C   UNK N   1      36.206  13.901   7.811  0.00  0.00     0.245 C 
BRANCH  38  39
HETATM   39  O   UNK N   1      36.658  14.246   9.087  0.00  0.00    -0.393 OA
HETATM   40  H   UNK N   1      36.478  15.098   9.515  0.00  0.00     0.209 HD
ENDBRANCH  38  39
ENDBRANCH  36  38
ENDBRANCH   4  36
BRANCH   9  41
HETATM   41  O   UNK N   1      30.553  16.424   3.936  0.00  0.00    -0.359 OA
HETATM   42  H   UNK N   1      29.759  16.163   3.511  0.00  0.00     0.217 HD
ENDBRANCH   9  41
BRANCH  10  43
HETATM   43  O   UNK N   1      30.710  17.007   9.409  0.00  0.00    -0.359 OA
HETATM   44  H   UNK N   1      30.728  17.861   9.795  0.00  0.00     0.217 HD
ENDBRANCH  10  43
BRANCH  17  45
HETATM   45  O   UNK N   1      27.014  19.942   3.568  0.00  0.00    -0.355 OA
HETATM   46  C   UNK N   1      25.976  20.386   2.782  0.00  0.00     0.210 C 
ENDBRANCH  17  45
TORSDOF 11
ENDMDL
MODEL 3
REMARK VINA RESULT:      -7.3      2.753      3.937
REMARK  11 active torsions:
REMARK  status: ('A' for Active; 'I' for Inactive)
REMARK    1  A    between atoms: C_13  and  O_1 
REMARK    2  A    between atoms: C_19  and  O_1 
REMARK    3  A    between atoms: C_14  and  O_3 
REMARK    4  A    between atoms: C_22  and  O_4 
REMARK    5  A    between atoms: O_5  and  C_24 
REMARK    6  A    between atoms: O_6  and  C_26 
REMARK    7  A    between atoms: O_8  and  C_30 
REMARK    8  A    between atoms: O_11  and  C_35 
REMARK    9  A    between atoms: C_21  and  N_12 
REMARK   10  A    between atoms: C_14  and  C_25 
REMARK   11  A    between atoms: C_25  and  C_30 
ROOT
HETATM    1  O   UNK N   1      31.544  13.782   6.628  0.00  0.00    -0.286 OA
HETATM    2  O   UNK N   1      34.456  18.166   7.430  0.00  0.00    -0.286 OA
HETATM    3  C   UNK N   1      34.582  12.535  10.713  0.00  0.00     0.164 C 
HETATM    4  C   UNK N   1      36.654  13.742  11.590  0.00  0.00     0.127 C 
HETATM    5  C   UNK N   1      36.110  12.546  10.791  0.00  0.00     0.083 C 
HETATM    6  C   UNK N   1      35.782  15.007  11.410  0.00  0.00     0.088 C 
HETATM    7  C   UNK N   1      34.211  13.766   9.905  0.00  0.00     0.014 A 
HETATM    8  C   UNK N   1      34.879  14.964  10.200  0.00  0.00    -0.009 A 
HETATM    9  C   UNK N   1      33.319  13.712   8.818  0.00  0.00     0.090 A 
HETATM   10  C   UNK N   1      34.742  16.080   9.362  0.00  0.00     0.088 A 
HETATM   11  C   UNK N   1      33.171  14.827   7.969  0.00  0.00     0.066 A 
HETATM   12  C   UNK N   1      33.914  16.004   8.215  0.00  0.00     0.066 A 
HETATM   13  C   UNK N   1      32.292  14.736   6.768  0.00  0.00     0.200 C 
HETATM   14  C   UNK N   1      33.850  17.125   7.228  0.00  0.00     0.197 C 
HETATM   15  C   UNK N   1      32.377  15.770   5.708  0.00  0.00     0.062 A 
HETATM   16  C   UNK N   1      33.140  16.932   5.938  0.00  0.00     0.032 A 
HETATM   17  C   UNK N   1      31.737  15.587   4.456  0.00  0.00     0.083 A 
HETATM   18  C   UNK N   1      33.257  17.898   4.930  0.00  0.00     0.017 A 
HETATM   19  C   UNK N   1      31.880  16.566   3.460  0.00  0.00     0.038 A 
HETATM   20  C   UNK N   1      32.635  17.713   3.696  0.00  0.00     0.004 A 
ENDROOT
BRANCH   3  21
HETATM   21  O   UNK N   1      34.263  11.358  10.023  0.00  0.00    -0.351 OA
BRANCH  21  22
HETATM   22  C   UNK N   1      34.876  10.290  10.677  0.00  0.00     0.263 C 
HETATM   23  O   UNK N   1      34.657   9.100   9.957  0.00  0.00    -0.354 OA
HETATM   24  C   UNK N   1      35.476   8.123  10.545  0.00  0.00     0.151 C 
HETATM   25  C   UNK N   1      34.875   7.740  11.904  0.00  0.00     0.169 C 
HETATM   26  C   UNK N   1      35.550   6.923   9.620  0.00  0.00     0.042 C 
HETATM   27  C   UNK N   1      34.837   8.979  12.812  0.00  0.00     0.110 C 
HETATM   28  C   UNK N   1      34.221  10.155  12.059  0.00  0.00     0.088 C 
BRANCH  25  29
HETATM   29  O   UNK N   1      35.605   6.716  12.510  0.00  0.00    -0.391 OA
HETATM   30  H   UNK N   1      35.728   6.468  13.440  0.00  0.00     0.210 HD
ENDBRANCH  25  29
BRANCH  27  31
HETATM   31  N   UNK N   1      36.178   9.341  13.250  0.00  0.00    -0.423 N 
HETATM   32  H   UNK N   1      37.145   9.313  13.574  0.00  0.00     0.150 HD
HETATM   33  H   UNK N   1      36.077  10.354  13.192  0.00  0.00     0.150 HD
ENDBRANCH  27  31
ENDBRANCH  21  22
ENDBRANCH   3  21
BRANCH   4  34
HETATM   34  O   UNK N   1      37.943  14.014  11.131  0.00  0.00    -0.382 OA
HETATM   35  H   UNK N   1      38.764  13.669  10.747  0.00  0.00     0.211 HD
ENDBRANCH   4  34
BRANCH   4  36
HETATM   36  C   UNK N   1      36.720  13.390  13.061  0.00  0.00     0.184 C 
HETATM   37  O   UNK N   1      37.201  12.323  13.422  0.00  0.00    -0.292 OA
BRANCH  36  38
HETATM   38  C   UNK N   1      36.202  14.356  14.088  0.00  0.00     0.245 C 
BRANCH  38  39
HETATM   39  O   UNK N   1      37.240  15.135  14.606  0.00  0.00    -0.393 OA
HETATM   40  H   UNK N   1      37.422  15.235  15.554  0.00  0.00     0.209 HD
ENDBRANCH  38  39
ENDBRANCH  36  38
ENDBRANCH   4  36
BRANCH   9  41
HETATM   41  O   UNK N   1      32.641  12.579   8.561  0.00  0.00    -0.359 OA
HETATM   42  H   UNK N   1      32.395  12.010   9.264  0.00  0.00     0.217 HD
ENDBRANCH   9  41
BRANCH  10  43
HETATM   43  O   UNK N   1      35.436  17.199   9.638  0.00  0.00    -0.359 OA
HETATM   44  H   UNK N   1      35.008  17.928  10.043  0.00  0.00     0.217 HD
ENDBRANCH  10  43
BRANCH  17  45
HETATM   45  O   UNK N   1      31.016  14.461   4.220  0.00  0.00    -0.355 OA
HETATM   46  C   UNK N   1      31.120  13.711   3.071  0.00  0.00     0.210 C 
ENDBRANCH  17  45
TORSDOF 11
ENDMDL
MODEL 4
REMARK VINA RESULT:      -7.2      7.512     11.174
REMARK  11 active torsions:
REMARK  status: ('A' for Active; 'I' for Inactive)
REMARK    1  A    between atoms: C_13  and  O_1 
REMARK    2  A    between atoms: C_19  and  O_1 
REMARK    3  A    between atoms: C_14  and  O_3 
REMARK    4  A    between atoms: C_22  and  O_4 
REMARK    5  A    between atoms: O_5  and  C_24 
REMARK    6  A    between atoms: O_6  and  C_26 
REMARK    7  A    between atoms: O_8  and  C_30 
REMARK    8  A    between atoms: O_11  and  C_35 
REMARK    9  A    between atoms: C_21  and  N_12 
REMARK   10  A    between atoms: C_14  and  C_25 
REMARK   11  A    between atoms: C_25  and  C_30 
ROOT
HETATM    1  O   UNK N   1      22.258  17.101   5.418  0.00  0.00    -0.286 OA
HETATM    2  O   UNK N   1      24.381  21.071   2.578  0.00  0.00    -0.286 OA
HETATM    3  C   UNK N   1      27.413  16.174   5.631  0.00  0.00     0.164 C 
HETATM    4  C   UNK N   1      29.279  17.196   4.221  0.00  0.00     0.127 C 
HETATM    5  C   UNK N   1      28.385  15.970   4.467  0.00  0.00     0.083 C 
HETATM    6  C   UNK N   1      28.544  18.523   4.518  0.00  0.00     0.088 C 
HETATM    7  C   UNK N   1      26.473  17.279   5.184  0.00  0.00     0.014 A 
HETATM    8  C   UNK N   1      27.039  18.397   4.552  0.00  0.00    -0.009 A 
HETATM    9  C   UNK N   1      25.075  17.163   5.281  0.00  0.00     0.090 A 
HETATM   10  C   UNK N   1      26.221  19.351   3.928  0.00  0.00     0.088 A 
HETATM   11  C   UNK N   1      24.242  18.116   4.660  0.00  0.00     0.066 A 
HETATM   12  C   UNK N   1      24.813  19.193   3.945  0.00  0.00     0.066 A 
HETATM   13  C   UNK N   1      22.761  17.941   4.690  0.00  0.00     0.200 C 
HETATM   14  C   UNK N   1      23.919  20.114   3.178  0.00  0.00     0.197 C 
HETATM   15  C   UNK N   1      21.902  18.742   3.783  0.00  0.00     0.062 A 
HETATM   16  C   UNK N   1      22.474  19.799   3.047  0.00  0.00     0.032 A 
HETATM   17  C   UNK N   1      20.529  18.433   3.618  0.00  0.00     0.083 A 
HETATM   18  C   UNK N   1      21.679  20.537   2.161  0.00  0.00     0.017 A 
HETATM   19  C   UNK N   1      19.759  19.183   2.713  0.00  0.00     0.038 A 
HETATM   20  C   UNK N   1      20.332  20.227   1.991  0.00  0.00     0.004 A 
ENDROOT
BRANCH   3  21
HETATM   21  O   UNK N   1      26.738  14.953   5.758  0.00  0.00    -0.351 OA
BRANCH  21  22
HETATM   22  C   UNK N   1      26.920  14.230   4.579  0.00  0.00     0.263 C 
HETATM   23  O   UNK N   1      25.728  14.232   3.829  0.00  0.00    -0.354 OA
HETATM   24  C   UNK N   1      26.046  13.685   2.576  0.00  0.00     0.151 C 
HETATM   25  C   UNK N   1      26.264  12.176   2.746  0.00  0.00     0.169 C 
HETATM   26  C   UNK N   1      24.909  13.970   1.613  0.00  0.00     0.042 C 
HETATM   27  C   UNK N   1      27.435  11.936   3.712  0.00  0.00     0.110 C 
HETATM   28  C   UNK N   1      27.252  12.783   4.969  0.00  0.00     0.088 C 
BRANCH  25  29
HETATM   29  O   UNK N   1      26.514  11.558   1.518  0.00  0.00    -0.391 OA
HETATM   30  H   UNK N   1      27.037  10.778   1.279  0.00  0.00     0.210 HD
ENDBRANCH  25  29
BRANCH  27  31
HETATM   31  N   UNK N   1      28.703  12.280   3.084  0.00  0.00    -0.423 N 
HETATM   32  H   UNK N   1      29.444  12.748   2.562  0.00  0.00     0.150 HD
HETATM   33  H   UNK N   1      29.234  11.460   3.380  0.00  0.00     0.150 HD
ENDBRANCH  27  31
ENDBRANCH  21  22
ENDBRANCH   3  21
BRANCH   4  34
HETATM   34  O   UNK N   1      29.663  17.184   2.879  0.00  0.00    -0.382 OA
HETATM   35  H   UNK N   1      29.551  17.562   1.993  0.00  0.00     0.211 HD
ENDBRANCH   4  34
BRANCH   4  36
HETATM   36  C   UNK N   1      30.518  17.110   5.087  0.00  0.00     0.184 C 
HETATM   37  O   UNK N   1      30.433  17.224   6.304  0.00  0.00    -0.292 OA
BRANCH  36  38
HETATM   38  C   UNK N   1      31.860  16.875   4.456  0.00  0.00     0.245 C 
BRANCH  38  39
HETATM   39  O   UNK N   1      32.207  17.935   3.615  0.00  0.00    -0.393 OA
HETATM   40  H   UNK N   1      32.988  17.938   3.039  0.00  0.00     0.209 HD
ENDBRANCH  38  39
ENDBRANCH  36  38
ENDBRANCH   4  36
BRANCH   9  41
HETATM   41  O   UNK N   1      24.531  16.117   5.928  0.00  0.00    -0.359 OA
HETATM   42  H   UNK N   1      25.043  15.627   6.542  0.00  0.00     0.217 HD
ENDBRANCH   9  41
BRANCH  10  43
HETATM   43  O   UNK N   1      26.791  20.385   3.283  0.00  0.00    -0.359 OA
HETATM   44  H   UNK N   1      27.185  20.253   2.442  0.00  0.00     0.217 HD
ENDBRANCH  10  43
BRANCH  17  45
HETATM   45  O   UNK N   1      19.975  17.403   4.309  0.00  0.00    -0.355 OA
HETATM   46  C   UNK N   1      19.561  16.226   3.728  0.00  0.00     0.210 C 
ENDBRANCH  17  45
TORSDOF 11
ENDMDL
MODEL 5
REMARK VINA RESULT:      -7.1      5.822     11.979
REMARK  11 active torsions:
REMARK  status: ('A' for Active; 'I' for Inactive)
REMARK    1  A    between atoms: C_13  and  O_1 
REMARK    2  A    between atoms: C_19  and  O_1 
REMARK    3  A    between atoms: C_14  and  O_3 
REMARK    4  A    between atoms: C_22  and  O_4 
REMARK    5  A    between atoms: O_5  and  C_24 
REMARK    6  A    between atoms: O_6  and  C_26 
REMARK    7  A    between atoms: O_8  and  C_30 
REMARK    8  A    between atoms: O_11  and  C_35 
REMARK    9  A    between atoms: C_21  and  N_12 
REMARK   10  A    between atoms: C_14  and  C_25 
REMARK   11  A    between atoms: C_25  and  C_30 
ROOT
HETATM    1  O   UNK N   1      30.515  15.560   4.172  0.00  0.00    -0.286 OA
HETATM    2  O   UNK N   1      29.300  18.596   8.373  0.00  0.00    -0.286 OA
HETATM    3  C   UNK N   1      25.752  17.427   3.031  0.00  0.00     0.164 C 
HETATM    4  C   UNK N   1      24.080  18.587   4.571  0.00  0.00     0.127 C 
HETATM    5  C   UNK N   1      24.463  17.289   3.843  0.00  0.00     0.083 C 
HETATM    6  C   UNK N   1      25.321  19.383   5.037  0.00  0.00     0.088 C 
HETATM    7  C   UNK N   1      26.850  17.661   4.052  0.00  0.00     0.014 A 
HETATM    8  C   UNK N   1      26.590  18.565   5.093  0.00  0.00    -0.009 A 
HETATM    9  C   UNK N   1      28.050  16.927   4.047  0.00  0.00     0.090 A 
HETATM   10  C   UNK N   1      27.469  18.670   6.180  0.00  0.00     0.088 A 
HETATM   11  C   UNK N   1      28.943  17.025   5.134  0.00  0.00     0.066 A 
HETATM   12  C   UNK N   1      28.636  17.868   6.225  0.00  0.00     0.066 A 
HETATM   13  C   UNK N   1      30.171  16.179   5.166  0.00  0.00     0.200 C 
HETATM   14  C   UNK N   1      29.523  17.855   7.429  0.00  0.00     0.197 C 
HETATM   15  C   UNK N   1      30.938  16.035   6.428  0.00  0.00     0.062 A 
HETATM   16  C   UNK N   1      30.615  16.854   7.528  0.00  0.00     0.032 A 
HETATM   17  C   UNK N   1      31.960  15.060   6.554  0.00  0.00     0.083 A 
HETATM   18  C   UNK N   1      31.309  16.700   8.736  0.00  0.00     0.017 A 
HETATM   19  C   UNK N   1      32.630  14.920   7.779  0.00  0.00     0.038 A 
HETATM   20  C   UNK N   1      32.306  15.735   8.862  0.00  0.00     0.004 A 
ENDROOT
BRANCH   3  21
HETATM   21  O   UNK N   1      25.909  16.193   2.387  0.00  0.00    -0.351 OA
BRANCH  21  22
HETATM   22  C   UNK N   1      25.042  15.277   2.983  0.00  0.00     0.263 C 
HETATM   23  O   UNK N   1      25.781  14.325   3.712  0.00  0.00    -0.354 OA
HETATM   24  C   UNK N   1      24.850  13.582   4.454  0.00  0.00     0.151 C 
HETATM   25  C   UNK N   1      24.085  12.663   3.491  0.00  0.00     0.169 C 
HETATM   26  C   UNK N   1      25.589  12.779   5.507  0.00  0.00     0.042 C 
HETATM   27  C   UNK N   1      23.338  13.518   2.456  0.00  0.00     0.110 C 
HETATM   28  C   UNK N   1      24.286  14.556   1.860  0.00  0.00     0.088 C 
BRANCH  25  29
HETATM   29  O   UNK N   1      23.190  11.841   4.179  0.00  0.00    -0.391 OA
HETATM   30  H   UNK N   1      22.227  11.738   4.122  0.00  0.00     0.210 HD
ENDBRANCH  25  29
BRANCH  27  31
HETATM   31  N   UNK N   1      22.205  14.199   3.067  0.00  0.00    -0.423 N 
HETATM   32  H   UNK N   1      21.508  14.544   3.727  0.00  0.00     0.150 HD
HETATM   33  H   UNK N   1      21.860  14.675   2.234  0.00  0.00     0.150 HD
ENDBRANCH  27  31
ENDBRANCH  21  22
ENDBRANCH   3  21
BRANCH   4  34
HETATM   34  O   UNK N   1      23.319  18.244   5.690  0.00  0.00    -0.382 OA
HETATM   35  H   UNK N   1      23.310  17.986   6.624  0.00  0.00     0.211 HD
ENDBRANCH   4  34
BRANCH   4  36
HETATM   36  C   UNK N   1      23.244  19.460   3.659  0.00  0.00     0.184 C 
HETATM   37  O   UNK N   1      23.749  20.415   3.080  0.00  0.00    -0.292 OA
BRANCH  36  38
HETATM   38  C   UNK N   1      21.789  19.152   3.451  0.00  0.00     0.245 C 
BRANCH  38  39
HETATM   39  O   UNK N   1      21.006  19.762   4.433  0.00  0.00    -0.393 OA
HETATM   40  H   UNK N   1      20.647  19.299   5.206  0.00  0.00     0.209 HD
ENDBRANCH  38  39
ENDBRANCH  36  38
ENDBRANCH   4  36
BRANCH   9  41
HETATM   41  O   UNK N   1      28.326  16.095   3.026  0.00  0.00    -0.359 OA
HETATM   42  H   UNK N   1      29.083  15.544   3.062  0.00  0.00     0.217 HD
ENDBRANCH   9  41
BRANCH  10  43
HETATM   43  O   UNK N   1      27.167  19.506   7.191  0.00  0.00    -0.359 OA
HETATM   44  H   UNK N   1      27.368  20.419   7.121  0.00  0.00     0.217 HD
ENDBRANCH  10  43
BRANCH  17  45
HETATM   45  O   UNK N   1      32.263  14.254   5.504  0.00  0.00    -0.355 OA
HETATM   46  C   UNK N   1      32.670  12.946   5.635  0.00  0.00     0.210 C 
ENDBRANCH  17  45
TORSDOF 11
ENDMDL
MODEL 6
REMARK VINA RESULT:      -7.1      3.386      9.405
REMARK  11 active torsions:
REMARK  status: ('A' for Active; 'I' for Inactive)
REMARK    1  A    between atoms: C_13  and  O_1 
REMARK    2  A    between atoms: C_19  and  O_1 
REMARK    3  A    between atoms: C_14  and  O_3 
REMARK    4  A    between atoms: C_22  and  O_4 
REMARK    5  A    between atoms: O_5  and  C_24 
REMARK    6  A    between atoms: O_6  and  C_26 
REMARK    7  A    between atoms: O_8  and  C_30 
REMARK    8  A    between atoms: O_11  and  C_35 
REMARK    9  A    between atoms: C_21  and  N_12 
REMARK   10  A    between atoms: C_14  and  C_25 
REMARK   11  A    between atoms: C_25  and  C_30 
ROOT
HETATM    1  O   UNK N   1      38.481   9.266  12.735  0.00  0.00    -0.286 OA
HETATM    2  O   UNK N   1      36.162  12.157  16.557  0.00  0.00    -0.286 OA
HETATM    3  C   UNK N   1      36.501  13.382  10.163  0.00  0.00     0.164 C 
HETATM    4  C   UNK N   1      34.803  15.106  10.975  0.00  0.00     0.127 C 
HETATM    5  C   UNK N   1      35.047  13.855  10.115  0.00  0.00     0.083 C 
HETATM    6  C   UNK N   1      35.682  15.119  12.247  0.00  0.00     0.088 C 
HETATM    7  C   UNK N   1      36.736  12.942  11.596  0.00  0.00     0.014 A 
HETATM    8  C   UNK N   1      36.245  13.768  12.619  0.00  0.00    -0.009 A 
HETATM    9  C   UNK N   1      37.318  11.702  11.918  0.00  0.00     0.090 A 
HETATM   10  C   UNK N   1      36.238  13.325  13.950  0.00  0.00     0.088 A 
HETATM   11  C   UNK N   1      37.319  11.246  13.252  0.00  0.00     0.066 A 
HETATM   12  C   UNK N   1      36.742  12.040  14.269  0.00  0.00     0.066 A 
HETATM   13  C   UNK N   1      37.857   9.893  13.575  0.00  0.00     0.200 C 
HETATM   14  C   UNK N   1      36.627  11.482  15.651  0.00  0.00     0.197 C 
HETATM   15  C   UNK N   1      37.575   9.280  14.896  0.00  0.00     0.062 A 
HETATM   16  C   UNK N   1      36.973  10.061  15.904  0.00  0.00     0.032 A 
HETATM   17  C   UNK N   1      37.864   7.915  15.144  0.00  0.00     0.083 A 
HETATM   18  C   UNK N   1      36.669   9.480  17.142  0.00  0.00     0.017 A 
HETATM   19  C   UNK N   1      37.538   7.357  16.391  0.00  0.00     0.038 A 
HETATM   20  C   UNK N   1      36.944   8.136  17.382  0.00  0.00     0.004 A 
ENDROOT
BRANCH   3  21
HETATM   21  O   UNK N   1      36.557  12.294   9.281  0.00  0.00    -0.351 OA
BRANCH  21  22
HETATM   22  C   UNK N   1      35.251  11.917   8.971  0.00  0.00     0.263 C 
HETATM   23  O   UNK N   1      34.924  10.725   9.645  0.00  0.00    -0.354 OA
HETATM   24  C   UNK N   1      33.546  10.530   9.464  0.00  0.00     0.151 C 
HETATM   25  C   UNK N   1      33.303  10.103   8.010  0.00  0.00     0.169 C 
HETATM   26  C   UNK N   1      33.068   9.468  10.434  0.00  0.00     0.042 C 
HETATM   27  C   UNK N   1      33.783  11.216   7.064  0.00  0.00     0.110 C 
HETATM   28  C   UNK N   1      35.190  11.659   7.459  0.00  0.00     0.088 C 
BRANCH  25  29
HETATM   29  O   UNK N   1      31.954   9.823   7.783  0.00  0.00    -0.391 OA
HETATM   30  H   UNK N   1      31.478   8.988   7.649  0.00  0.00     0.210 HD
ENDBRANCH  25  29
BRANCH  27  31
HETATM   31  N   UNK N   1      32.888  12.362   7.117  0.00  0.00    -0.423 N 
HETATM   32  H   UNK N   1      32.485  13.297   7.043  0.00  0.00     0.150 HD
HETATM   33  H   UNK N   1      32.077  11.890   7.516  0.00  0.00     0.150 HD
ENDBRANCH  27  31
ENDBRANCH  21  22
ENDBRANCH   3  21
BRANCH   4  34
HETATM   34  O   UNK N   1      33.460  15.111  11.354  0.00  0.00    -0.382 OA
HETATM   35  H   UNK N   1      32.660  14.595  11.535  0.00  0.00     0.211 HD
ENDBRANCH   4  34
BRANCH   4  36
HETATM   36  C   UNK N   1      35.089  16.351  10.162  0.00  0.00     0.184 C 
HETATM   37  O   UNK N   1      35.948  17.146  10.525  0.00  0.00    -0.292 OA
BRANCH  36  38
HETATM   38  C   UNK N   1      34.323  16.614   8.897  0.00  0.00     0.245 C 
BRANCH  38  39
HETATM   39  O   UNK N   1      33.049  17.111   9.181  0.00  0.00    -0.393 OA
HETATM   40  H   UNK N   1      32.460  17.507   8.518  0.00  0.00     0.209 HD
ENDBRANCH  38  39
ENDBRANCH  36  38
ENDBRANCH   4  36
BRANCH   9  41
HETATM   41  O   UNK N   1      37.833  10.929  10.945  0.00  0.00    -0.359 OA
HETATM   42  H   UNK N   1      38.571  10.379  11.124  0.00  0.00     0.217 HD
ENDBRANCH   9  41
BRANCH  10  43
HETATM   43  O   UNK N   1      35.712  14.115  14.903  0.00  0.00    -0.359 OA
HETATM   44  H   UNK N   1      35.066  13.774  15.491  0.00  0.00     0.217 HD
ENDBRANCH  10  43
BRANCH  17  45
HETATM   45  O   UNK N   1      38.426   7.152  14.171  0.00  0.00    -0.355 OA
HETATM   46  C   UNK N   1      39.471   6.283  14.386  0.00  0.00     0.210 C 
ENDBRANCH  17  45
TORSDOF 11
ENDMDL
MODEL 7
REMARK VINA RESULT:      -7.0      7.808     13.955
REMARK  11 active torsions:
REMARK  status: ('A' for Active; 'I' for Inactive)
REMARK    1  A    between atoms: C_13  and  O_1 
REMARK    2  A    between atoms: C_19  and  O_1 
REMARK    3  A    between atoms: C_14  and  O_3 
REMARK    4  A    between atoms: C_22  and  O_4 
REMARK    5  A    between atoms: O_5  and  C_24 
REMARK    6  A    between atoms: O_6  and  C_26 
REMARK    7  A    between atoms: O_8  and  C_30 
REMARK    8  A    between atoms: O_11  and  C_35 
REMARK    9  A    between atoms: C_21  and  N_12 
REMARK   10  A    between atoms: C_14  and  C_25 
REMARK   11  A    between atoms: C_25  and  C_30 
ROOT
HETATM    1  O   UNK N   1      28.057  14.442   3.953  0.00  0.00    -0.286 OA
HETATM    2  O   UNK N   1      27.992  19.206   6.329  0.00  0.00    -0.286 OA
HETATM    3  C   UNK N   1      23.102  16.053   3.388  0.00  0.00     0.164 C 
HETATM    4  C   UNK N   1      21.902  17.973   4.569  0.00  0.00     0.127 C 
HETATM    5  C   UNK N   1      22.108  16.452   4.481  0.00  0.00     0.083 C 
HETATM    6  C   UNK N   1      23.194  18.756   4.240  0.00  0.00     0.088 C 
HETATM    7  C   UNK N   1      24.438  16.620   3.832  0.00  0.00     0.014 A 
HETATM    8  C   UNK N   1      24.455  17.929   4.337  0.00  0.00    -0.009 A 
HETATM    9  C   UNK N   1      25.612  15.846   3.857  0.00  0.00     0.090 A 
HETATM   10  C   UNK N   1      25.605  18.438   4.957  0.00  0.00     0.088 A 
HETATM   11  C   UNK N   1      26.776  16.346   4.476  0.00  0.00     0.066 A 
HETATM   12  C   UNK N   1      26.765  17.631   5.065  0.00  0.00     0.066 A 
HETATM   13  C   UNK N   1      27.992  15.489   4.578  0.00  0.00     0.200 C 
HETATM   14  C   UNK N   1      27.960  18.089   5.836  0.00  0.00     0.197 C 
HETATM   15  C   UNK N   1      29.094  15.872   5.493  0.00  0.00     0.062 A 
HETATM   16  C   UNK N   1      29.072  17.142   6.105  0.00  0.00     0.032 A 
HETATM   17  C   UNK N   1      30.144  14.968   5.791  0.00  0.00     0.083 A 
HETATM   18  C   UNK N   1      30.089  17.500   7.000  0.00  0.00     0.017 A 
HETATM   19  C   UNK N   1      31.145  15.349   6.700  0.00  0.00     0.038 A 
HETATM   20  C   UNK N   1      31.116  16.606   7.299  0.00  0.00     0.004 A 
ENDROOT
BRANCH   3  21
HETATM   21  O   UNK N   1      23.113  14.652   3.402  0.00  0.00    -0.351 OA
BRANCH  21  22
HETATM   22  C   UNK N   1      21.930  14.202   2.815  0.00  0.00     0.263 C 
HETATM   23  O   UNK N   1      22.045  12.833   2.501  0.00  0.00    -0.354 OA
HETATM   24  C   UNK N   1      20.762  12.403   2.126  0.00  0.00     0.151 C 
HETATM   25  C   UNK N   1      20.442  12.982   0.741  0.00  0.00     0.169 C 
HETATM   26  C   UNK N   1      20.739  10.887   2.106  0.00  0.00     0.042 C 
HETATM   27  C   UNK N   1      20.457  14.517   0.813  0.00  0.00     0.110 C 
HETATM   28  C   UNK N   1      21.729  14.990   1.514  0.00  0.00     0.088 C 
BRANCH  25  29
HETATM   29  O   UNK N   1      19.205  12.530   0.277  0.00  0.00    -0.391 OA
HETATM   30  H   UNK N   1      18.913  12.214  -0.592  0.00  0.00     0.210 HD
ENDBRANCH  25  29
BRANCH  27  31
HETATM   31  N   UNK N   1      19.297  15.013   1.540  0.00  0.00    -0.423 N 
HETATM   32  H   UNK N   1      18.446  15.084   2.096  0.00  0.00     0.150 HD
HETATM   33  H   UNK N   1      19.438  16.008   1.367  0.00  0.00     0.150 HD
ENDBRANCH  27  31
ENDBRANCH  21  22
ENDBRANCH   3  21
BRANCH   4  34
HETATM   34  O   UNK N   1      21.509  18.278   5.872  0.00  0.00    -0.382 OA
HETATM   35  H   UNK N   1      20.857  18.704   6.451  0.00  0.00     0.211 HD
ENDBRANCH   4  34
BRANCH   4  36
HETATM   36  C   UNK N   1      20.808  18.399   3.613  0.00  0.00     0.184 C 
HETATM   37  O   UNK N   1      19.915  17.619   3.305  0.00  0.00    -0.292 OA
BRANCH  36  38
HETATM   38  C   UNK N   1      20.807  19.788   3.044  0.00  0.00     0.245 C 
BRANCH  38  39
HETATM   39  O   UNK N   1      20.299  20.704   3.969  0.00  0.00    -0.393 OA
HETATM   40  H   UNK N   1      19.397  21.061   3.941  0.00  0.00     0.209 HD
ENDBRANCH  38  39
ENDBRANCH  36  38
ENDBRANCH   4  36
BRANCH   9  41
HETATM   41  O   UNK N   1      25.613  14.608   3.330  0.00  0.00    -0.359 OA
HETATM   42  H   UNK N   1      26.399  14.255   2.962  0.00  0.00     0.217 HD
ENDBRANCH   9  41
BRANCH  10  43
HETATM   43  O   UNK N   1      25.577  19.677   5.481  0.00  0.00    -0.359 OA
HETATM   44  H   UNK N   1      26.198  20.319   5.199  0.00  0.00     0.217 HD
ENDBRANCH  10  43
BRANCH  17  45
HETATM   45  O   UNK N   1      30.162  13.736   5.220  0.00  0.00    -0.355 OA
HETATM   46  C   UNK N   1      31.294  13.145   4.707  0.00  0.00     0.210 C 
ENDBRANCH  17  45
TORSDOF 11
ENDMDL
MODEL 8
REMARK VINA RESULT:      -7.0      2.784      8.590
REMARK  11 active torsions:
REMARK  status: ('A' for Active; 'I' for Inactive)
REMARK    1  A    between atoms: C_13  and  O_1 
REMARK    2  A    between atoms: C_19  and  O_1 
REMARK    3  A    between atoms: C_14  and  O_3 
REMARK    4  A    between atoms: C_22  and  O_4 
REMARK    5  A    between atoms: O_5  and  C_24 
REMARK    6  A    between atoms: O_6  and  C_26 
REMARK    7  A    between atoms: O_8  and  C_30 
REMARK    8  A    between atoms: O_11  and  C_35 
REMARK    9  A    between atoms: C_21  and  N_12 
REMARK   10  A    between atoms: C_14  and  C_25 
REMARK   11  A    between atoms: C_25  and  C_30 
ROOT
HETATM    1  O   UNK N   1      34.251  13.049  15.019  0.00  0.00    -0.286 OA
HETATM    2  O   UNK N   1      36.930   8.499  14.344  0.00  0.00    -0.286 OA
HETATM    3  C   UNK N   1      35.480  13.066   9.924  0.00  0.00     0.164 C 
HETATM    4  C   UNK N   1      37.152  11.592   8.679  0.00  0.00     0.127 C 
HETATM    5  C   UNK N   1      36.867  12.976   9.287  0.00  0.00     0.083 C 
HETATM    6  C   UNK N   1      36.490  10.453   9.489  0.00  0.00     0.088 C 
HETATM    7  C   UNK N   1      35.511  12.105  11.098  0.00  0.00     0.014 A 
HETATM    8  C   UNK N   1      36.097  10.846  10.894  0.00  0.00    -0.009 A 
HETATM    9  C   UNK N   1      35.083  12.475  12.386  0.00  0.00     0.090 A 
HETATM   10  C   UNK N   1      36.350   9.994  11.978  0.00  0.00     0.088 A 
HETATM   11  C   UNK N   1      35.330  11.627  13.485  0.00  0.00     0.066 A 
HETATM   12  C   UNK N   1      36.002  10.400  13.291  0.00  0.00     0.066 A 
HETATM   13  C   UNK N   1      34.953  12.064  14.861  0.00  0.00     0.200 C 
HETATM   14  C   UNK N   1      36.378   9.579  14.482  0.00  0.00     0.197 C 
HETATM   15  C   UNK N   1      35.489  11.341  16.039  0.00  0.00     0.062 A 
HETATM   16  C   UNK N   1      36.184  10.130  15.848  0.00  0.00     0.032 A 
HETATM   17  C   UNK N   1      35.346  11.869  17.347  0.00  0.00     0.083 A 
HETATM   18  C   UNK N   1      36.726   9.458  16.952  0.00  0.00     0.017 A 
HETATM   19  C   UNK N   1      35.909  11.180  18.433  0.00  0.00     0.038 A 
HETATM   20  C   UNK N   1      36.594   9.983  18.236  0.00  0.00     0.004 A 
ENDROOT
BRANCH   3  21
HETATM   21  O   UNK N   1      35.364  14.394  10.356  0.00  0.00    -0.351 OA
BRANCH  21  22
HETATM   22  C   UNK N   1      34.591  15.088   9.426  0.00  0.00     0.263 C 
HETATM   23  O   UNK N   1      34.862  16.468   9.515  0.00  0.00    -0.354 OA
HETATM   24  C   UNK N   1      34.225  17.070   8.419  0.00  0.00     0.151 C 
HETATM   25  C   UNK N   1      32.712  17.066   8.676  0.00  0.00     0.169 C 
HETATM   26  C   UNK N   1      34.751  18.483   8.261  0.00  0.00     0.042 C 
HETATM   27  C   UNK N   1      32.220  15.617   8.810  0.00  0.00     0.110 C 
HETATM   28  C   UNK N   1      33.116  14.854   9.783  0.00  0.00     0.088 C 
BRANCH  25  29
HETATM   29  O   UNK N   1      32.023  17.719   7.651  0.00  0.00    -0.391 OA
HETATM   30  H   UNK N   1      31.989  18.650   7.381  0.00  0.00     0.210 HD
ENDBRANCH  25  29
BRANCH  27  31
HETATM   31  N   UNK N   1      32.233  14.944   7.519  0.00  0.00    -0.423 N 
HETATM   32  H   UNK N   1      32.251  14.242   6.778  0.00  0.00     0.150 HD
HETATM   33  H   UNK N   1      32.203  15.773   6.926  0.00  0.00     0.150 HD
ENDBRANCH  27  31
ENDBRANCH  21  22
ENDBRANCH   3  21
BRANCH   4  34
HETATM   34  O   UNK N   1      38.534  11.400   8.677  0.00  0.00    -0.382 OA
HETATM   35  H   UNK N   1      39.394  11.647   9.051  0.00  0.00     0.211 HD
ENDBRANCH   4  34
BRANCH   4  36
HETATM   36  C   UNK N   1      36.648  11.544   7.253  0.00  0.00     0.184 C 
HETATM   37  O   UNK N   1      35.922  10.630   6.882  0.00  0.00    -0.292 OA
BRANCH  36  38
HETATM   38  C   UNK N   1      37.029  12.628   6.285  0.00  0.00     0.245 C 
BRANCH  38  39
HETATM   39  O   UNK N   1      38.408  12.631   6.061  0.00  0.00    -0.393 OA
HETATM   40  H   UNK N   1      38.825  12.955   5.246  0.00  0.00     0.209 HD
ENDBRANCH  38  39
ENDBRANCH  36  38
ENDBRANCH   4  36
BRANCH   9  41
HETATM   41  O   UNK N   1      34.477  13.662  12.577  0.00  0.00    -0.359 OA
HETATM   42  H   UNK N   1      34.030  13.835  13.383  0.00  0.00     0.217 HD
ENDBRANCH   9  41
BRANCH  10  43
HETATM   43  O   UNK N   1      36.962   8.816  11.761  0.00  0.00    -0.359 OA
HETATM   44  H   UNK N   1      37.894   8.782  11.669  0.00  0.00     0.217 HD
ENDBRANCH  10  43
BRANCH  17  45
HETATM   45  O   UNK N   1      34.694  13.045  17.537  0.00  0.00    -0.355 OA
HETATM   46  C   UNK N   1      35.289  14.178  18.043  0.00  0.00     0.210 C 
ENDBRANCH  17  45
TORSDOF 11
ENDMDL
MODEL 9
REMARK VINA RESULT:      -6.9      3.311      8.633
REMARK  11 active torsions:
REMARK  status: ('A' for Active; 'I' for Inactive)
REMARK    1  A    between atoms: C_13  and  O_1 
REMARK    2  A    between atoms: C_19  and  O_1 
REMARK    3  A    between atoms: C_14  and  O_3 
REMARK    4  A    between atoms: C_22  and  O_4 
REMARK    5  A    between atoms: O_5  and  C_24 
REMARK    6  A    between atoms: O_6  and  C_26 
REMARK    7  A    between atoms: O_8  and  C_30 
REMARK    8  A    between atoms: O_11  and  C_35 
REMARK    9  A    between atoms: C_21  and  N_12 
REMARK   10  A    between atoms: C_14  and  C_25 
REMARK   11  A    between atoms: C_25  and  C_30 
ROOT
HETATM    1  O   UNK N   1      35.075  10.554  11.210  0.00  0.00    -0.286 OA
HETATM    2  O   UNK N   1      36.316  15.111  13.667  0.00  0.00    -0.286 OA
HETATM    3  C   UNK N   1      33.541  14.255   7.830  0.00  0.00     0.164 C 
HETATM    4  C   UNK N   1      33.247  16.759   8.229  0.00  0.00     0.127 C 
HETATM    5  C   UNK N   1      32.552  15.397   8.066  0.00  0.00     0.083 C 
HETATM    6  C   UNK N   1      34.616  16.633   8.936  0.00  0.00     0.088 C 
HETATM    7  C   UNK N   1      34.348  14.149   9.111  0.00  0.00     0.014 A 
HETATM    8  C   UNK N   1      34.798  15.341   9.698  0.00  0.00    -0.009 A 
HETATM    9  C   UNK N   1      34.555  12.924   9.772  0.00  0.00     0.090 A 
HETATM   10  C   UNK N   1      35.362  15.334  10.982  0.00  0.00     0.088 A 
HETATM   11  C   UNK N   1      35.122  12.903  11.062  0.00  0.00     0.066 A 
HETATM   12  C   UNK N   1      35.491  14.114  11.690  0.00  0.00     0.066 A 
HETATM   13  C   UNK N   1      35.258  11.610  11.794  0.00  0.00     0.200 C 
HETATM   14  C   UNK N   1      35.960  14.085  13.109  0.00  0.00     0.197 C 
HETATM   15  C   UNK N   1      35.546  11.610  13.249  0.00  0.00     0.062 A 
HETATM   16  C   UNK N   1      35.886  12.821  13.884  0.00  0.00     0.032 A 
HETATM   17  C   UNK N   1      35.444  10.421  14.013  0.00  0.00     0.083 A 
HETATM   18  C   UNK N   1      36.124  12.838  15.265  0.00  0.00     0.017 A 
HETATM   19  C   UNK N   1      35.677  10.469  15.397  0.00  0.00     0.038 A 
HETATM   20  C   UNK N   1      36.015  11.670  16.017  0.00  0.00     0.004 A 
ENDROOT
BRANCH   3  21
HETATM   21  O   UNK N   1      32.744  13.119   7.635  0.00  0.00    -0.351 OA
BRANCH  21  22
HETATM   22  C   UNK N   1      32.617  12.907   6.263  0.00  0.00     0.263 C 
HETATM   23  O   UNK N   1      32.247  11.570   6.019  0.00  0.00    -0.354 OA
HETATM   24  C   UNK N   1      31.926  11.488   4.655  0.00  0.00     0.151 C 
HETATM   25  C   UNK N   1      33.227  11.569   3.845  0.00  0.00     0.169 C 
HETATM   26  C   UNK N   1      31.200  10.182   4.398  0.00  0.00     0.042 C 
HETATM   27  C   UNK N   1      33.916  12.915   4.120  0.00  0.00     0.110 C 
HETATM   28  C   UNK N   1      33.990  13.160   5.626  0.00  0.00     0.088 C 
BRANCH  25  29
HETATM   29  O   UNK N   1      32.982  11.421   2.478  0.00  0.00    -0.391 OA
HETATM   30  H   UNK N   1      32.203  11.117   1.987  0.00  0.00     0.210 HD
ENDBRANCH  25  29
BRANCH  27  31
HETATM   31  N   UNK N   1      33.189  14.008   3.492  0.00  0.00    -0.423 N 
HETATM   32  H   UNK N   1      32.941  14.864   2.996  0.00  0.00     0.150 HD
HETATM   33  H   UNK N   1      32.244  13.683   3.693  0.00  0.00     0.150 HD
ENDBRANCH  27  31
ENDBRANCH  21  22
ENDBRANCH   3  21
BRANCH   4  34
HETATM   34  O   UNK N   1      32.416  17.576   8.996  0.00  0.00    -0.382 OA
HETATM   35  H   UNK N   1      31.522  17.752   9.327  0.00  0.00     0.211 HD
ENDBRANCH   4  34
BRANCH   4  36
HETATM   36  C   UNK N   1      33.447  17.399   6.871  0.00  0.00     0.184 C 
HETATM   37  O   UNK N   1      34.411  18.127   6.664  0.00  0.00    -0.292 OA
BRANCH  36  38
HETATM   38  C   UNK N   1      32.466  17.135   5.765  0.00  0.00     0.245 C 
BRANCH  38  39
HETATM   39  O   UNK N   1      33.125  16.723   4.604  0.00  0.00    -0.393 OA
HETATM   40  H   UNK N   1      33.888  16.125   4.596  0.00  0.00     0.209 HD
ENDBRANCH  38  39
ENDBRANCH  36  38
ENDBRANCH   4  36
BRANCH   9  41
HETATM   41  O   UNK N   1      34.168  11.773   9.190  0.00  0.00    -0.359 OA
HETATM   42  H   UNK N   1      33.262  11.532   9.185  0.00  0.00     0.217 HD
ENDBRANCH   9  41
BRANCH  10  43
HETATM   43  O   UNK N   1      35.734  16.499  11.543  0.00  0.00    -0.359 OA
HETATM   44  H   UNK N   1      36.151  16.503  12.383  0.00  0.00     0.217 HD
ENDBRANCH  10  43
BRANCH  17  45
HETATM   45  O   UNK N   1      35.097   9.254  13.411  0.00  0.00    -0.355 OA
HETATM   46  C   UNK N   1      35.782   8.072  13.578  0.00  0.00     0.210 C 
ENDBRANCH  17  45
TORSDOF 11
ENDMDL
