MODEL 1
REMARK VINA RESULT:      -7.6      0.000      0.000
REMARK  6 active torsions:
REMARK  status: ('A' for Active; 'I' for Inactive)
REMARK    1  A    between atoms: S_1  and  C_12 
REMARK    2  A    between atoms: S_1  and  C_15 
REMARK    3  A    between atoms: O_5  and  C_18 
REMARK    4  A    between atoms: O_5  and  C_26 
REMARK    5  A    between atoms: C_12  and  C_13 
REMARK    6  A    between atoms: C_26  and  C_27 
ROOT
HETATM    1  N   UNK N   1      30.807  17.968   9.155  0.00  0.00    -0.368 N 
ATOM      2  HN  UNK N   1      31.539  17.880   9.859  1.00  0.00     0.165 HD
HETATM    3  C   UNK N   1      31.060  17.565   7.879  0.00  0.00     0.029 A 
HETATM    4  C   UNK N   1      30.063  17.683   6.896  0.00  0.00    -0.005 A 
HETATM    5  C   UNK N   1      28.808  18.196   7.248  0.00  0.00     0.078 A 
HETATM    6  C   UNK N   1      30.319  17.240   5.489  0.00  0.00     0.053 C 
HETATM    7  C   UNK N   1      28.578  18.598   8.572  0.00  0.00     0.054 A 
HETATM    8  C   UNK N   1      29.601  18.483   9.514  0.00  0.00     0.091 A 
ENDROOT
BRANCH   3   9
HETATM    9  C   UNK N   1      32.374  16.934   7.565  0.00  0.00     0.175 C 
BRANCH   9  10
HETATM   10  S   UNK N   1      33.665  18.093   8.110  0.00  0.00     0.090 S 
HETATM   11  O   UNK N   1      34.490  17.852   6.836  0.00  0.00    -0.249 OA
BRANCH  10  12
HETATM   12  C   UNK N   1      34.554  16.878   9.087  0.00  0.00     0.176 A 
HETATM   13  N   UNK N   1      34.767  16.995  10.425  0.00  0.00    -0.333 N 
HETATM   14  C   UNK N   1      35.384  15.854  10.749  0.00  0.00     0.061 A 
HETATM   15  H   UNK N   1      34.525  17.744  11.016  0.00  0.00     0.168 HD
HETATM   16  C   UNK N   1      35.530  15.075   9.643  0.00  0.00     0.061 A 
HETATM   17  C   UNK N   1      35.823  15.445  12.005  0.00  0.00     0.032 A 
HETATM   18  N   UNK N   1      35.008  15.705   8.578  0.00  0.00    -0.333 N 
HETATM   19  C   UNK N   1      36.128  13.821   9.692  0.00  0.00     0.032 A 
ATOM     20  HN  UNK N   1      34.964  15.378   7.613  1.00  0.00     0.168 HD
HETATM   21  C   UNK N   1      36.588  13.372  10.947  0.00  0.00     0.002 A 
HETATM   22  C   UNK N   1      36.435  14.181  12.099  0.00  0.00     0.002 A 
ENDBRANCH  10  12
ENDBRANCH   9  10
ENDBRANCH   3   9
BRANCH   5  23
HETATM   23  O   UNK N   1      27.842  18.278   6.304  0.00  0.00    -0.342 OA
BRANCH  23  24
HETATM   24  C   UNK N   1      26.957  19.326   6.179  0.00  0.00     0.293 C 
BRANCH  24  25
HETATM   25  C   UNK N   1      27.575  20.445   5.360  0.00  0.00     0.408 C 
HETATM   26  F   UNK N   1      28.581  19.947   4.549  0.00  0.00    -0.169 F 
HETATM   27  F   UNK N   1      28.098  21.404   6.206  0.00  0.00    -0.169 F 
HETATM   28  F   UNK N   1      26.599  21.017   4.568  0.00  0.00    -0.169 F 
ENDBRANCH  24  25
ENDBRANCH  23  24
ENDBRANCH   5  23
TORSDOF 6
ENDMDL
MODEL 2
REMARK VINA RESULT:      -7.0      6.352      9.895
REMARK  6 active torsions:
REMARK  status: ('A' for Active; 'I' for Inactive)
REMARK    1  A    between atoms: S_1  and  C_12 
REMARK    2  A    between atoms: S_1  and  C_15 
REMARK    3  A    between atoms: O_5  and  C_18 
REMARK    4  A    between atoms: O_5  and  C_26 
REMARK    5  A    between atoms: C_12  and  C_13 
REMARK    6  A    between atoms: C_26  and  C_27 
ROOT
HETATM    1  N   UNK N   1      34.572  12.518  11.799  0.00  0.00    -0.368 N 
ATOM      2  HN  UNK N   1      34.082  12.595  10.908  1.00  0.00     0.165 HD
HETATM    3  C   UNK N   1      35.136  13.630  12.346  0.00  0.00     0.029 A 
HETATM    4  C   UNK N   1      35.819  13.541  13.571  0.00  0.00    -0.005 A 
HETATM    5  C   UNK N   1      35.891  12.306  14.228  0.00  0.00     0.078 A 
HETATM    6  C   UNK N   1      36.441  14.753  14.191  0.00  0.00     0.053 C 
HETATM    7  C   UNK N   1      35.296  11.179  13.641  0.00  0.00     0.054 A 
HETATM    8  C   UNK N   1      34.645  11.307  12.413  0.00  0.00     0.091 A 
ENDROOT
BRANCH   3   9
HETATM    9  C   UNK N   1      34.954  14.945  11.665  0.00  0.00     0.175 C 
BRANCH   9  10
HETATM   10  S   UNK N   1      36.044  14.946  10.209  0.00  0.00     0.090 S 
HETATM   11  O   UNK N   1      36.665  16.292  10.613  0.00  0.00    -0.249 OA
BRANCH  10  12
HETATM   12  C   UNK N   1      34.825  15.676   9.112  0.00  0.00     0.176 A 
HETATM   13  N   UNK N   1      35.051  15.932   7.796  0.00  0.00    -0.333 N 
HETATM   14  C   UNK N   1      33.875  16.390   7.354  0.00  0.00     0.061 A 
HETATM   15  H   UNK N   1      35.885  15.809   7.287  0.00  0.00     0.168 HD
HETATM   16  C   UNK N   1      32.972  16.403   8.372  0.00  0.00     0.061 A 
HETATM   17  C   UNK N   1      33.544  16.794   6.065  0.00  0.00     0.032 A 
HETATM   18  N   UNK N   1      33.553  15.952   9.495  0.00  0.00    -0.333 N 
HETATM   19  C   UNK N   1      31.658  16.820   8.191  0.00  0.00     0.032 A 
ATOM     20  HN  UNK N   1      33.136  15.842  10.419  1.00  0.00     0.168 HD
HETATM   21  C   UNK N   1      31.283  17.239   6.898  0.00  0.00     0.002 A 
HETATM   22  C   UNK N   1      32.222  17.225   5.839  0.00  0.00     0.002 A 
ENDBRANCH  10  12
ENDBRANCH   9  10
ENDBRANCH   3   9
BRANCH   5  23
HETATM   23  O   UNK N   1      36.523  12.232  15.422  0.00  0.00    -0.342 OA
BRANCH  23  24
HETATM   24  C   UNK N   1      35.928  11.830  16.598  0.00  0.00     0.293 C 
BRANCH  24  25
HETATM   25  C   UNK N   1      35.218  12.998  17.259  0.00  0.00     0.408 C 
HETATM   26  F   UNK N   1      36.045  14.109  17.286  0.00  0.00    -0.169 F 
HETATM   27  F   UNK N   1      34.865  12.656  18.550  0.00  0.00    -0.169 F 
HETATM   28  F   UNK N   1      34.080  13.301  16.538  0.00  0.00    -0.169 F 
ENDBRANCH  24  25
ENDBRANCH  23  24
ENDBRANCH   5  23
TORSDOF 6
ENDMDL
MODEL 3
REMARK VINA RESULT:      -7.0     13.772     17.118
REMARK  6 active torsions:
REMARK  status: ('A' for Active; 'I' for Inactive)
REMARK    1  A    between atoms: S_1  and  C_12 
REMARK    2  A    between atoms: S_1  and  C_15 
REMARK    3  A    between atoms: O_5  and  C_18 
REMARK    4  A    between atoms: O_5  and  C_26 
REMARK    5  A    between atoms: C_12  and  C_13 
REMARK    6  A    between atoms: C_26  and  C_27 
ROOT
HETATM    1  N   UNK N   1      28.137  20.538  -8.178  0.00  0.00    -0.368 N 
ATOM      2  HN  UNK N   1      27.420  20.338  -8.875  1.00  0.00     0.165 HD
HETATM    3  C   UNK N   1      28.199  21.781  -7.627  0.00  0.00     0.029 A 
HETATM    4  C   UNK N   1      29.185  22.075  -6.669  0.00  0.00    -0.005 A 
HETATM    5  C   UNK N   1      30.081  21.072  -6.276  0.00  0.00     0.078 A 
HETATM    6  C   UNK N   1      29.267  23.434  -6.047  0.00  0.00     0.053 C 
HETATM    7  C   UNK N   1      29.987  19.800  -6.859  0.00  0.00     0.054 A 
HETATM    8  C   UNK N   1      29.007  19.555  -7.822  0.00  0.00     0.091 A 
ENDROOT
BRANCH   3   9
HETATM    9  C   UNK N   1      27.168  22.792  -7.999  0.00  0.00     0.175 C 
BRANCH   9  10
HETATM   10  S   UNK N   1      25.658  22.379  -7.074  0.00  0.00     0.090 S 
HETATM   11  O   UNK N   1      24.762  22.942  -8.187  0.00  0.00    -0.249 OA
BRANCH  10  12
HETATM   12  C   UNK N   1      25.656  23.894  -6.110  0.00  0.00     0.176 A 
HETATM   13  N   UNK N   1      26.186  23.995  -4.862  0.00  0.00    -0.333 N 
HETATM   14  C   UNK N   1      26.040  25.290  -4.559  0.00  0.00     0.061 A 
HETATM   15  H   UNK N   1      26.583  23.283  -4.311  0.00  0.00     0.168 HD
HETATM   16  C   UNK N   1      25.448  25.944  -5.595  0.00  0.00     0.061 A 
HETATM   17  C   UNK N   1      26.426  25.945  -3.394  0.00  0.00     0.032 A 
HETATM   18  N   UNK N   1      25.197  25.077  -6.590  0.00  0.00    -0.333 N 
HETATM   19  C   UNK N   1      25.188  27.309  -5.558  0.00  0.00     0.032 A 
ATOM     20  HN  UNK N   1      24.764  25.265  -7.494  1.00  0.00     0.168 HD
HETATM   21  C   UNK N   1      25.563  28.008  -4.393  0.00  0.00     0.002 A 
HETATM   22  C   UNK N   1      26.180  27.329  -3.316  0.00  0.00     0.002 A 
ENDBRANCH  10  12
ENDBRANCH   9  10
ENDBRANCH   3   9
BRANCH   5  23
HETATM   23  O   UNK N   1      31.007  21.352  -5.330  0.00  0.00    -0.342 OA
BRANCH  23  24
HETATM   24  C   UNK N   1      30.932  20.942  -4.016  0.00  0.00     0.293 C 
BRANCH  24  25
HETATM   25  C   UNK N   1      31.642  21.934  -3.112  0.00  0.00     0.408 C 
HETATM   26  F   UNK N   1      32.693  21.317  -2.454  0.00  0.00    -0.169 F 
HETATM   27  F   UNK N   1      30.750  22.436  -2.184  0.00  0.00    -0.169 F 
HETATM   28  F   UNK N   1      32.137  22.971  -3.879  0.00  0.00    -0.169 F 
ENDBRANCH  24  25
ENDBRANCH  23  24
ENDBRANCH   5  23
TORSDOF 6
ENDMDL
MODEL 4
REMARK VINA RESULT:      -6.9      3.900      5.011
REMARK  6 active torsions:
REMARK  status: ('A' for Active; 'I' for Inactive)
REMARK    1  A    between atoms: S_1  and  C_12 
REMARK    2  A    between atoms: S_1  and  C_15 
REMARK    3  A    between atoms: O_5  and  C_18 
REMARK    4  A    between atoms: O_5  and  C_26 
REMARK    5  A    between atoms: C_12  and  C_13 
REMARK    6  A    between atoms: C_26  and  C_27 
ROOT
HETATM    1  N   UNK N   1      34.383  17.481   9.034  0.00  0.00    -0.368 N 
ATOM      2  HN  UNK N   1      34.570  17.849   9.967  1.00  0.00     0.165 HD
HETATM    3  C   UNK N   1      34.409  16.135   8.833  0.00  0.00     0.029 A 
HETATM    4  C   UNK N   1      34.158  15.612   7.553  0.00  0.00    -0.005 A 
HETATM    5  C   UNK N   1      33.860  16.487   6.501  0.00  0.00     0.078 A 
HETATM    6  C   UNK N   1      34.177  14.135   7.312  0.00  0.00     0.053 C 
HETATM    7  C   UNK N   1      33.836  17.869   6.742  0.00  0.00     0.054 A 
HETATM    8  C   UNK N   1      34.111  18.349   8.023  0.00  0.00     0.091 A 
ENDROOT
BRANCH   3   9
HETATM    9  C   UNK N   1      34.634  15.232   9.999  0.00  0.00     0.175 C 
BRANCH   9  10
HETATM   10  S   UNK N   1      35.483  16.210  11.275  0.00  0.00     0.090 S 
HETATM   11  O   UNK N   1      36.847  15.997  10.603  0.00  0.00    -0.249 OA
BRANCH  10  12
HETATM   12  C   UNK N   1      35.670  14.837  12.416  0.00  0.00     0.176 A 
HETATM   13  N   UNK N   1      36.466  14.873  13.517  0.00  0.00    -0.333 N 
HETATM   14  C   UNK N   1      36.247  13.693  14.106  0.00  0.00     0.061 A 
HETATM   15  H   UNK N   1      37.065  15.596  13.810  0.00  0.00     0.168 HD
HETATM   16  C   UNK N   1      35.342  12.976  13.386  0.00  0.00     0.061 A 
HETATM   17  C   UNK N   1      36.804  13.209  15.286  0.00  0.00     0.032 A 
HETATM   18  N   UNK N   1      34.961  13.684  12.310  0.00  0.00    -0.333 N 
HETATM   19  C   UNK N   1      34.915  11.713  13.778  0.00  0.00     0.032 A 
ATOM     20  HN  UNK N   1      34.296  13.418  11.585  1.00  0.00     0.168 HD
HETATM   21  C   UNK N   1      35.459  11.186  14.968  0.00  0.00     0.002 A 
HETATM   22  C   UNK N   1      36.399  11.932  15.719  0.00  0.00     0.002 A 
ENDBRANCH  10  12
ENDBRANCH   9  10
ENDBRANCH   3   9
BRANCH   5  23
HETATM   23  O   UNK N   1      33.587  15.976   5.277  0.00  0.00    -0.342 OA
BRANCH  23  24
HETATM   24  C   UNK N   1      32.342  15.979   4.688  0.00  0.00     0.293 C 
BRANCH  24  25
HETATM   25  C   UNK N   1      32.341  16.870   3.459  0.00  0.00     0.408 C 
HETATM   26  F   UNK N   1      31.214  16.630   2.692  0.00  0.00    -0.169 F 
HETATM   27  F   UNK N   1      33.472  16.621   2.705  0.00  0.00    -0.169 F 
HETATM   28  F   UNK N   1      32.340  18.192   3.860  0.00  0.00    -0.169 F 
ENDBRANCH  24  25
ENDBRANCH  23  24
ENDBRANCH   5  23
TORSDOF 6
ENDMDL
MODEL 5
REMARK VINA RESULT:      -6.8      9.203     12.353
REMARK  6 active torsions:
REMARK  status: ('A' for Active; 'I' for Inactive)
REMARK    1  A    between atoms: S_1  and  C_12 
REMARK    2  A    between atoms: S_1  and  C_15 
REMARK    3  A    between atoms: O_5  and  C_18 
REMARK    4  A    between atoms: O_5  and  C_26 
REMARK    5  A    between atoms: C_12  and  C_13 
REMARK    6  A    between atoms: C_26  and  C_27 
ROOT
HETATM    1  N   UNK N   1      35.048  13.542  17.630  0.00  0.00    -0.368 N 
ATOM      2  HN  UNK N   1      34.959  14.497  17.286  1.00  0.00     0.165 HD
HETATM    3  C   UNK N   1      34.965  12.507  16.749  0.00  0.00     0.029 A 
HETATM    4  C   UNK N   1      35.082  11.184  17.208  0.00  0.00    -0.005 A 
HETATM    5  C   UNK N   1      35.305  10.947  18.570  0.00  0.00     0.078 A 
HETATM    6  C   UNK N   1      34.999  10.033  16.254  0.00  0.00     0.053 C 
HETATM    7  C   UNK N   1      35.391  12.035  19.452  0.00  0.00     0.054 A 
HETATM    8  C   UNK N   1      35.249  13.333  18.959  0.00  0.00     0.091 A 
ENDROOT
BRANCH   3   9
HETATM    9  C   UNK N   1      34.824  12.804  15.294  0.00  0.00     0.175 C 
BRANCH   9  10
HETATM   10  S   UNK N   1      36.503  13.023  14.630  0.00  0.00     0.090 S 
HETATM   11  O   UNK N   1      36.707  14.314  15.436  0.00  0.00    -0.249 OA
BRANCH  10  12
HETATM   12  C   UNK N   1      35.964  13.869  13.141  0.00  0.00     0.176 A 
HETATM   13  N   UNK N   1      35.083  13.342  12.250  0.00  0.00    -0.333 N 
HETATM   14  C   UNK N   1      34.910  14.322  11.357  0.00  0.00     0.061 A 
HETATM   15  H   UNK N   1      34.669  12.449  12.260  0.00  0.00     0.168 HD
HETATM   16  C   UNK N   1      35.658  15.403  11.704  0.00  0.00     0.061 A 
HETATM   17  C   UNK N   1      34.093  14.318  10.230  0.00  0.00     0.032 A 
HETATM   18  N   UNK N   1      36.334  15.139  12.835  0.00  0.00    -0.333 N 
HETATM   19  C   UNK N   1      35.659  16.576  10.958  0.00  0.00     0.032 A 
ATOM     20  HN  UNK N   1      36.973  15.748  13.343  1.00  0.00     0.168 HD
HETATM   21  C   UNK N   1      34.845  16.611   9.807  0.00  0.00     0.002 A 
HETATM   22  C   UNK N   1      34.065  15.487   9.445  0.00  0.00     0.002 A 
ENDBRANCH  10  12
ENDBRANCH   9  10
ENDBRANCH   3   9
BRANCH   5  23
HETATM   23  O   UNK N   1      35.448   9.672  19.002  0.00  0.00    -0.342 OA
BRANCH  23  24
HETATM   24  C   UNK N   1      35.065   9.219  20.245  0.00  0.00     0.293 C 
BRANCH  24  25
HETATM   25  C   UNK N   1      33.606   8.798  20.227  0.00  0.00     0.408 C 
HETATM   26  F   UNK N   1      33.450   7.578  20.863  0.00  0.00    -0.169 F 
HETATM   27  F   UNK N   1      33.170   8.694  18.920  0.00  0.00    -0.169 F 
HETATM   28  F   UNK N   1      32.853   9.749  20.887  0.00  0.00    -0.169 F 
ENDBRANCH  24  25
ENDBRANCH  23  24
ENDBRANCH   5  23
TORSDOF 6
ENDMDL
MODEL 6
REMARK VINA RESULT:      -6.7      2.953      4.217
REMARK  6 active torsions:
REMARK  status: ('A' for Active; 'I' for Inactive)
REMARK    1  A    between atoms: S_1  and  C_12 
REMARK    2  A    between atoms: S_1  and  C_15 
REMARK    3  A    between atoms: O_5  and  C_18 
REMARK    4  A    between atoms: O_5  and  C_26 
REMARK    5  A    between atoms: C_12  and  C_13 
REMARK    6  A    between atoms: C_26  and  C_27 
ROOT
HETATM    1  N   UNK N   1      34.740  17.302   8.728  0.00  0.00    -0.368 N 
ATOM      2  HN  UNK N   1      35.729  17.444   8.931  1.00  0.00     0.165 HD
HETATM    3  C   UNK N   1      34.136  16.152   9.135  0.00  0.00     0.029 A 
HETATM    4  C   UNK N   1      32.775  15.938   8.858  0.00  0.00    -0.005 A 
HETATM    5  C   UNK N   1      32.048  16.927   8.183  0.00  0.00     0.078 A 
HETATM    6  C   UNK N   1      32.091  14.683   9.303  0.00  0.00     0.053 C 
HETATM    7  C   UNK N   1      32.698  18.103   7.780  0.00  0.00     0.054 A 
HETATM    8  C   UNK N   1      34.056  18.268   8.056  0.00  0.00     0.091 A 
ENDROOT
BRANCH   3   9
HETATM    9  C   UNK N   1      34.918  15.167   9.936  0.00  0.00     0.175 C 
BRANCH   9  10
HETATM   10  S   UNK N   1      35.787  16.103  11.232  0.00  0.00     0.090 S 
HETATM   11  O   UNK N   1      37.157  15.770  10.623  0.00  0.00    -0.249 OA
BRANCH  10  12
HETATM   12  C   UNK N   1      35.816  14.743  12.403  0.00  0.00     0.176 A 
HETATM   13  N   UNK N   1      36.652  14.686  13.473  0.00  0.00    -0.333 N 
HETATM   14  C   UNK N   1      36.287  13.565  14.104  0.00  0.00     0.061 A 
HETATM   15  H   UNK N   1      37.362  15.321  13.724  0.00  0.00     0.168 HD
HETATM   16  C   UNK N   1      35.260  12.973  13.436  0.00  0.00     0.061 A 
HETATM   17  C   UNK N   1      36.814  13.031  15.276  0.00  0.00     0.032 A 
HETATM   18  N   UNK N   1      34.944  13.704  12.356  0.00  0.00    -0.333 N 
HETATM   19  C   UNK N   1      34.669  11.795  13.879  0.00  0.00     0.032 A 
ATOM     20  HN  UNK N   1      34.219  13.522  11.662  1.00  0.00     0.168 HD
HETATM   21  C   UNK N   1      35.177  11.221  15.063  0.00  0.00     0.002 A 
HETATM   22  C   UNK N   1      36.245  11.838  15.759  0.00  0.00     0.002 A 
ENDBRANCH  10  12
ENDBRANCH   9  10
ENDBRANCH   3   9
BRANCH   5  23
HETATM   23  O   UNK N   1      30.730  16.729   7.947  0.00  0.00    -0.342 OA
BRANCH  23  24
HETATM   24  C   UNK N   1      30.036  17.267   6.885  0.00  0.00     0.293 C 
BRANCH  24  25
HETATM   25  C   UNK N   1      28.828  18.041   7.381  0.00  0.00     0.408 C 
HETATM   26  F   UNK N   1      27.891  17.176   7.919  0.00  0.00    -0.169 F 
HETATM   27  F   UNK N   1      28.261  18.737   6.330  0.00  0.00    -0.169 F 
HETATM   28  F   UNK N   1      29.231  18.932   8.356  0.00  0.00    -0.169 F 
ENDBRANCH  24  25
ENDBRANCH  23  24
ENDBRANCH   5  23
TORSDOF 6
ENDMDL
MODEL 7
REMARK VINA RESULT:      -6.6      4.644      6.937
REMARK  6 active torsions:
REMARK  status: ('A' for Active; 'I' for Inactive)
REMARK    1  A    between atoms: S_1  and  C_12 
REMARK    2  A    between atoms: S_1  and  C_15 
REMARK    3  A    between atoms: O_5  and  C_18 
REMARK    4  A    between atoms: O_5  and  C_26 
REMARK    5  A    between atoms: C_12  and  C_13 
REMARK    6  A    between atoms: C_26  and  C_27 
ROOT
HETATM    1  N   UNK N   1      36.043  12.440   9.467  0.00  0.00    -0.368 N 
ATOM      2  HN  UNK N   1      36.640  11.710   9.857  1.00  0.00     0.165 HD
HETATM    3  C   UNK N   1      35.871  13.599  10.159  0.00  0.00     0.029 A 
HETATM    4  C   UNK N   1      35.048  14.611   9.637  0.00  0.00    -0.005 A 
HETATM    5  C   UNK N   1      34.432  14.423   8.394  0.00  0.00     0.078 A 
HETATM    6  C   UNK N   1      34.849  15.896  10.381  0.00  0.00     0.053 C 
HETATM    7  C   UNK N   1      34.634  13.219   7.703  0.00  0.00     0.054 A 
HETATM    8  C   UNK N   1      35.441  12.230   8.265  0.00  0.00     0.091 A 
ENDROOT
BRANCH   3   9
HETATM    9  C   UNK N   1      36.620  13.801  11.433  0.00  0.00     0.175 C 
BRANCH   9  10
HETATM   10  S   UNK N   1      36.572  12.224  12.337  0.00  0.00     0.090 S 
HETATM   11  O   UNK N   1      35.049  12.117  12.170  0.00  0.00    -0.249 OA
BRANCH  10  12
HETATM   12  C   UNK N   1      36.485  12.985  13.960  0.00  0.00     0.176 A 
HETATM   13  N   UNK N   1      37.187  14.095  14.312  0.00  0.00    -0.333 N 
HETATM   14  C   UNK N   1      36.768  14.354  15.555  0.00  0.00     0.061 A 
HETATM   15  H   UNK N   1      37.849  14.590  13.778  0.00  0.00     0.168 HD
HETATM   16  C   UNK N   1      35.840  13.434  15.933  0.00  0.00     0.061 A 
HETATM   17  C   UNK N   1      37.160  15.396  16.390  0.00  0.00     0.032 A 
HETATM   18  N   UNK N   1      35.644  12.557  14.935  0.00  0.00    -0.333 N 
HETATM   19  C   UNK N   1      35.222  13.472  17.178  0.00  0.00     0.032 A 
ATOM     20  HN  UNK N   1      35.011  11.758  14.915  1.00  0.00     0.168 HD
HETATM   21  C   UNK N   1      35.593  14.512  18.054  0.00  0.00     0.002 A 
HETATM   22  C   UNK N   1      36.558  15.471  17.661  0.00  0.00     0.002 A 
ENDBRANCH  10  12
ENDBRANCH   9  10
ENDBRANCH   3   9
BRANCH   5  23
HETATM   23  O   UNK N   1      33.666  15.414   7.881  0.00  0.00    -0.342 OA
BRANCH  23  24
HETATM   24  C   UNK N   1      33.814  15.943   6.618  0.00  0.00     0.293 C 
BRANCH  24  25
HETATM   25  C   UNK N   1      33.643  17.451   6.652  0.00  0.00     0.408 C 
HETATM   26  F   UNK N   1      32.424  17.783   7.219  0.00  0.00    -0.169 F 
HETATM   27  F   UNK N   1      33.704  17.954   5.366  0.00  0.00    -0.169 F 
HETATM   28  F   UNK N   1      34.657  18.004   7.409  0.00  0.00    -0.169 F 
ENDBRANCH  24  25
ENDBRANCH  23  24
ENDBRANCH   5  23
TORSDOF 6
ENDMDL
MODEL 8
REMARK VINA RESULT:      -6.6      5.295      7.344
REMARK  6 active torsions:
REMARK  status: ('A' for Active; 'I' for Inactive)
REMARK    1  A    between atoms: S_1  and  C_12 
REMARK    2  A    between atoms: S_1  and  C_15 
REMARK    3  A    between atoms: O_5  and  C_18 
REMARK    4  A    between atoms: O_5  and  C_26 
REMARK    5  A    between atoms: C_12  and  C_13 
REMARK    6  A    between atoms: C_26  and  C_27 
ROOT
HETATM    1  N   UNK N   1      24.447  17.249   5.337  0.00  0.00    -0.368 N 
ATOM      2  HN  UNK N   1      24.866  16.480   5.859  1.00  0.00     0.165 HD
HETATM    3  C   UNK N   1      25.246  18.246   4.867  0.00  0.00     0.029 A 
HETATM    4  C   UNK N   1      24.684  19.315   4.149  0.00  0.00    -0.005 A 
HETATM    5  C   UNK N   1      23.305  19.330   3.905  0.00  0.00     0.078 A 
HETATM    6  C   UNK N   1      25.546  20.419   3.618  0.00  0.00     0.053 C 
HETATM    7  C   UNK N   1      22.509  18.284   4.399  0.00  0.00     0.054 A 
HETATM    8  C   UNK N   1      23.103  17.252   5.125  0.00  0.00     0.091 A 
ENDROOT
BRANCH   3   9
HETATM    9  C   UNK N   1      26.722  18.146   5.062  0.00  0.00     0.175 C 
BRANCH   9  10
HETATM   10  S   UNK N   1      27.346  16.976   3.817  0.00  0.00     0.090 S 
HETATM   11  O   UNK N   1      26.962  15.769   4.687  0.00  0.00    -0.249 OA
BRANCH  10  12
HETATM   12  C   UNK N   1      29.044  17.035   4.396  0.00  0.00     0.176 A 
HETATM   13  N   UNK N   1      30.108  17.283   3.588  0.00  0.00    -0.333 N 
HETATM   14  C   UNK N   1      31.147  17.312   4.430  0.00  0.00     0.061 A 
HETATM   15  H   UNK N   1      30.114  17.410   2.612  0.00  0.00     0.168 HD
HETATM   16  C   UNK N   1      30.717  17.096   5.703  0.00  0.00     0.061 A 
HETATM   17  C   UNK N   1      32.486  17.542   4.130  0.00  0.00     0.032 A 
HETATM   18  N   UNK N   1      29.386  16.920   5.705  0.00  0.00    -0.333 N 
HETATM   19  C   UNK N   1      31.586  17.089   6.788  0.00  0.00     0.032 A 
ATOM     20  HN  UNK N   1      28.775  16.742   6.501  1.00  0.00     0.168 HD
HETATM   21  C   UNK N   1      32.952  17.315   6.525  0.00  0.00     0.002 A 
HETATM   22  C   UNK N   1      33.400  17.542   5.201  0.00  0.00     0.002 A 
ENDBRANCH  10  12
ENDBRANCH   9  10
ENDBRANCH   3   9
BRANCH   5  23
HETATM   23  O   UNK N   1      22.774  20.345   3.186  0.00  0.00    -0.342 OA
BRANCH  23  24
HETATM   24  C   UNK N   1      22.128  20.195   1.979  0.00  0.00     0.293 C 
BRANCH  24  25
HETATM   25  C   UNK N   1      20.645  20.487   2.132  0.00  0.00     0.408 C 
HETATM   26  F   UNK N   1      20.393  21.052   3.371  0.00  0.00    -0.169 F 
HETATM   27  F   UNK N   1      19.926  19.314   2.006  0.00  0.00    -0.169 F 
HETATM   28  F   UNK N   1      20.255  21.372   1.146  0.00  0.00    -0.169 F 
ENDBRANCH  24  25
ENDBRANCH  23  24
ENDBRANCH   5  23
TORSDOF 6
ENDMDL
MODEL 9
REMARK VINA RESULT:      -6.5      4.232      9.510
REMARK  6 active torsions:
REMARK  status: ('A' for Active; 'I' for Inactive)
REMARK    1  A    between atoms: S_1  and  C_12 
REMARK    2  A    between atoms: S_1  and  C_15 
REMARK    3  A    between atoms: O_5  and  C_18 
REMARK    4  A    between atoms: O_5  and  C_26 
REMARK    5  A    between atoms: C_12  and  C_13 
REMARK    6  A    between atoms: C_26  and  C_27 
ROOT
HETATM    1  N   UNK N   1      29.064  18.678   8.297  0.00  0.00    -0.368 N 
ATOM      2  HN  UNK N   1      28.349  19.370   8.521  1.00  0.00     0.165 HD
HETATM    3  C   UNK N   1      28.854  17.815   7.266  0.00  0.00     0.029 A 
HETATM    4  C   UNK N   1      29.827  16.852   6.948  0.00  0.00    -0.005 A 
HETATM    5  C   UNK N   1      31.016  16.808   7.686  0.00  0.00     0.078 A 
HETATM    6  C   UNK N   1      29.617  15.897   5.814  0.00  0.00     0.053 C 
HETATM    7  C   UNK N   1      31.205  17.714   8.740  0.00  0.00     0.054 A 
HETATM    8  C   UNK N   1      30.205  18.642   9.037  0.00  0.00     0.091 A 
ENDROOT
BRANCH   3   9
HETATM    9  C   UNK N   1      27.618  17.956   6.442  0.00  0.00     0.175 C 
BRANCH   9  10
HETATM   10  S   UNK N   1      27.900  19.336   5.292  0.00  0.00     0.090 S 
HETATM   11  O   UNK N   1      27.739  20.371   6.416  0.00  0.00    -0.249 OA
BRANCH  10  12
HETATM   12  C   UNK N   1      26.189  19.437   4.759  0.00  0.00     0.176 A 
HETATM   13  N   UNK N   1      25.737  20.326   3.836  0.00  0.00    -0.333 N 
HETATM   14  C   UNK N   1      24.448  20.003   3.687  0.00  0.00     0.061 A 
HETATM   15  H   UNK N   1      26.240  21.041   3.383  0.00  0.00     0.168 HD
HETATM   16  C   UNK N   1      24.139  18.950   4.491  0.00  0.00     0.061 A 
HETATM   17  C   UNK N   1      23.509  20.593   2.847  0.00  0.00     0.032 A 
HETATM   18  N   UNK N   1      25.230  18.573   5.178  0.00  0.00    -0.333 N 
HETATM   19  C   UNK N   1      22.866  18.393   4.528  0.00  0.00     0.032 A 
ATOM     20  HN  UNK N   1      25.317  17.816   5.856  1.00  0.00     0.168 HD
HETATM   21  C   UNK N   1      21.885  18.965   3.691  0.00  0.00     0.002 A 
HETATM   22  C   UNK N   1      22.206  20.060   2.854  0.00  0.00     0.002 A 
ENDBRANCH  10  12
ENDBRANCH   9  10
ENDBRANCH   3   9
BRANCH   5  23
HETATM   23  O   UNK N   1      31.963  15.899   7.355  0.00  0.00    -0.342 OA
BRANCH  23  24
HETATM   24  C   UNK N   1      33.310  16.172   7.261  0.00  0.00     0.293 C 
BRANCH  24  25
HETATM   25  C   UNK N   1      33.687  16.487   5.824  0.00  0.00     0.408 C 
HETATM   26  F   UNK N   1      32.797  15.884   4.951  0.00  0.00    -0.169 F 
HETATM   27  F   UNK N   1      34.965  16.027   5.569  0.00  0.00    -0.169 F 
HETATM   28  F   UNK N   1      33.646  17.854   5.636  0.00  0.00    -0.169 F 
ENDBRANCH  24  25
ENDBRANCH  23  24
ENDBRANCH   5  23
TORSDOF 6
ENDMDL
