MODEL 1
REMARK VINA RESULT:      -6.3      0.000      0.000
REMARK  10 active torsions:
REMARK  status: ('A' for Active; 'I' for Inactive)
REMARK    1  A    between atoms: O_1  and  C_14 
REMARK    2  A    between atoms: O_1  and  C_19 
REMARK    3  A    between atoms: O_2  and  C_18 
REMARK    4  A    between atoms: O_2  and  C_20 
REMARK    5  A    between atoms: O_3  and  C_10 
REMARK    6  A    between atoms: N_6  and  C_22 
REMARK    7  A    between atoms: C_7  and  C_14 
REMARK    8  A    between atoms: C_8  and  C_18 
REMARK    9  A    between atoms: C_9  and  C_10 
REMARK   10  A    between atoms: C_10  and  C_22 
ROOT
HETATM    1  C   UNK N   1      26.577  28.060  -4.354  0.00  0.00    -0.025 A 
HETATM    2  C   UNK N   1      26.900  25.677  -4.763  0.00  0.00     0.113 A 
HETATM    3  C   UNK N   1      25.754  25.658  -5.570  0.00  0.00     0.113 A 
HETATM    4  C   UNK N   1      27.309  26.879  -4.165  0.00  0.00     0.050 A 
HETATM    5  C   UNK N   1      25.425  28.031  -5.148  0.00  0.00     0.013 A 
HETATM    6  C   UNK N   1      25.020  26.842  -5.759  0.00  0.00     0.041 A 
ENDROOT
BRANCH   1   7
HETATM    7  C   UNK N   1      26.992  29.343  -3.687  0.00  0.00     0.168 C 
BRANCH   7   8
HETATM    8  O   UNK N   1      25.919  30.236  -3.578  0.00  0.00    -0.389 OA
HETATM    9  H   UNK N   1      25.345  30.407  -4.340  0.00  0.00     0.210 HD
ENDBRANCH   7   8
BRANCH   7  10
HETATM   10  C   UNK N   1      27.589  29.093  -2.307  0.00  0.00     0.149 C 
BRANCH  10  11
HETATM   11  N   UNK N   1      28.045  30.346  -1.722  0.00  0.00    -0.423 N 
HETATM   12  C   UNK N   1      28.957  30.018  -0.637  0.00  0.00     0.139 C 
HETATM   13  H   UNK N   1      27.773  31.284  -2.018  0.00  0.00     0.152 HD
ENDBRANCH  10  11
ENDBRANCH   7  10
ENDBRANCH   1   7
BRANCH   2  14
HETATM   14  O   UNK N   1      27.592  24.516  -4.601  0.00  0.00    -0.275 OA
BRANCH  14  15
HETATM   15  C   UNK N   1      27.983  23.937  -3.432  0.00  0.00     0.271 C 
HETATM   16  O   UNK N   1      27.192  23.783  -2.510  0.00  0.00    -0.264 OA
BRANCH  15  17
HETATM   17  C   UNK N   1      29.429  23.543  -3.268  0.00  0.00     0.037 C 
HETATM   18  C   UNK N   1      29.788  22.509  -4.319  0.00  0.00     0.025 C 
HETATM   19  C   UNK N   1      30.368  24.729  -3.425  0.00  0.00     0.025 C 
HETATM   20  C   UNK N   1      29.640  22.939  -1.894  0.00  0.00     0.025 C 
ENDBRANCH  15  17
ENDBRANCH  14  15
ENDBRANCH   2  14
BRANCH   3  21
HETATM   21  O   UNK N   1      25.397  24.483  -6.153  0.00  0.00    -0.275 OA
BRANCH  21  22
HETATM   22  C   UNK N   1      25.628  24.082  -7.434  0.00  0.00     0.271 C 
HETATM   23  O   UNK N   1      25.629  24.890  -8.354  0.00  0.00    -0.264 OA
BRANCH  22  24
HETATM   24  C   UNK N   1      25.940  22.632  -7.717  0.00  0.00     0.037 C 
HETATM   25  C   UNK N   1      24.912  21.709  -7.082  0.00  0.00     0.025 C 
HETATM   26  C   UNK N   1      25.944  22.386  -9.213  0.00  0.00     0.025 C 
HETATM   27  C   UNK N   1      27.305  22.283  -7.154  0.00  0.00     0.025 C 
ENDBRANCH  22  24
ENDBRANCH  21  22
ENDBRANCH   3  21
TORSDOF 10
ENDMDL
MODEL 2
REMARK VINA RESULT:      -6.2     13.279     16.428
REMARK  10 active torsions:
REMARK  status: ('A' for Active; 'I' for Inactive)
REMARK    1  A    between atoms: O_1  and  C_14 
REMARK    2  A    between atoms: O_1  and  C_19 
REMARK    3  A    between atoms: O_2  and  C_18 
REMARK    4  A    between atoms: O_2  and  C_20 
REMARK    5  A    between atoms: O_3  and  C_10 
REMARK    6  A    between atoms: N_6  and  C_22 
REMARK    7  A    between atoms: C_7  and  C_14 
REMARK    8  A    between atoms: C_8  and  C_18 
REMARK    9  A    between atoms: C_9  and  C_10 
REMARK   10  A    between atoms: C_10  and  C_22 
ROOT
HETATM    1  C   UNK N   1      29.491  17.806   7.994  0.00  0.00    -0.025 A 
HETATM    2  C   UNK N   1      31.324  16.450   7.127  0.00  0.00     0.113 A 
HETATM    3  C   UNK N   1      32.221  17.115   7.975  0.00  0.00     0.113 A 
HETATM    4  C   UNK N   1      29.964  16.795   7.146  0.00  0.00     0.050 A 
HETATM    5  C   UNK N   1      30.394  18.477   8.827  0.00  0.00     0.013 A 
HETATM    6  C   UNK N   1      31.747  18.129   8.826  0.00  0.00     0.041 A 
ENDROOT
BRANCH   1   7
HETATM    7  C   UNK N   1      28.040  18.203   7.992  0.00  0.00     0.168 C 
BRANCH   7   8
HETATM    8  O   UNK N   1      27.560  18.401   9.292  0.00  0.00    -0.389 OA
HETATM    9  H   UNK N   1      26.611  18.517   9.450  0.00  0.00     0.210 HD
ENDBRANCH   7   8
BRANCH   7  10
HETATM   10  C   UNK N   1      27.801  19.460   7.164  0.00  0.00     0.149 C 
BRANCH  10  11
HETATM   11  N   UNK N   1      26.746  20.264   7.764  0.00  0.00    -0.423 N 
HETATM   12  C   UNK N   1      26.474  21.374   6.864  0.00  0.00     0.139 C 
HETATM   13  H   UNK N   1      26.283  20.084   8.655  0.00  0.00     0.152 HD
ENDBRANCH  10  11
ENDBRANCH   7  10
ENDBRANCH   1   7
BRANCH   2  14
HETATM   14  O   UNK N   1      31.811  15.470   6.318  0.00  0.00    -0.275 OA
BRANCH  14  15
HETATM   15  C   UNK N   1      31.913  15.487   4.960  0.00  0.00     0.271 C 
HETATM   16  O   UNK N   1      31.032  15.011   4.256  0.00  0.00    -0.264 OA
BRANCH  15  17
HETATM   17  C   UNK N   1      33.165  16.051   4.336  0.00  0.00     0.037 C 
HETATM   18  C   UNK N   1      33.104  17.566   4.371  0.00  0.00     0.025 C 
HETATM   19  C   UNK N   1      34.421  15.606   5.070  0.00  0.00     0.025 C 
HETATM   20  C   UNK N   1      33.263  15.597   2.893  0.00  0.00     0.025 C 
ENDBRANCH  15  17
ENDBRANCH  14  15
ENDBRANCH   2  14
BRANCH   3  21
HETATM   21  O   UNK N   1      33.528  16.743   7.950  0.00  0.00    -0.275 OA
BRANCH  21  22
HETATM   22  C   UNK N   1      34.468  16.927   8.918  0.00  0.00     0.271 C 
HETATM   23  O   UNK N   1      34.981  18.024   9.093  0.00  0.00    -0.264 OA
BRANCH  22  24
HETATM   24  C   UNK N   1      34.842  15.778   9.823  0.00  0.00     0.037 C 
HETATM   25  C   UNK N   1      35.779  14.804   9.125  0.00  0.00     0.025 C 
HETATM   26  C   UNK N   1      35.538  16.301  11.065  0.00  0.00     0.025 C 
HETATM   27  C   UNK N   1      33.593  15.023  10.235  0.00  0.00     0.025 C 
ENDBRANCH  22  24
ENDBRANCH  21  22
ENDBRANCH   3  21
TORSDOF 10
ENDMDL
MODEL 3
REMARK VINA RESULT:      -6.1     10.643     13.411
REMARK  10 active torsions:
REMARK  status: ('A' for Active; 'I' for Inactive)
REMARK    1  A    between atoms: O_1  and  C_14 
REMARK    2  A    between atoms: O_1  and  C_19 
REMARK    3  A    between atoms: O_2  and  C_18 
REMARK    4  A    between atoms: O_2  and  C_20 
REMARK    5  A    between atoms: O_3  and  C_10 
REMARK    6  A    between atoms: N_6  and  C_22 
REMARK    7  A    between atoms: C_7  and  C_14 
REMARK    8  A    between atoms: C_8  and  C_18 
REMARK    9  A    between atoms: C_9  and  C_10 
REMARK   10  A    between atoms: C_10  and  C_22 
ROOT
HETATM    1  C   UNK N   1      22.247  20.045   2.791  0.00  0.00    -0.025 A 
HETATM    2  C   UNK N   1      23.112  18.687   4.623  0.00  0.00     0.113 A 
HETATM    3  C   UNK N   1      24.393  19.219   4.416  0.00  0.00     0.113 A 
HETATM    4  C   UNK N   1      22.046  19.107   3.814  0.00  0.00     0.050 A 
HETATM    5  C   UNK N   1      23.531  20.561   2.579  0.00  0.00     0.013 A 
HETATM    6  C   UNK N   1      24.594  20.159   3.391  0.00  0.00     0.041 A 
ENDROOT
BRANCH   1   7
HETATM    7  C   UNK N   1      21.114  20.473   1.899  0.00  0.00     0.168 C 
BRANCH   7   8
HETATM    8  O   UNK N   1      21.553  20.721   0.593  0.00  0.00    -0.389 OA
HETATM    9  H   UNK N   1      21.552  21.624   0.241  0.00  0.00     0.210 HD
ENDBRANCH   7   8
BRANCH   7  10
HETATM   10  C   UNK N   1      19.996  19.437   1.872  0.00  0.00     0.149 C 
BRANCH  10  11
HETATM   11  N   UNK N   1      20.196  18.510   0.767  0.00  0.00    -0.423 N 
HETATM   12  C   UNK N   1      20.028  17.163   1.287  0.00  0.00     0.139 C 
HETATM   13  H   UNK N   1      20.416  18.761  -0.198  0.00  0.00     0.152 HD
ENDBRANCH  10  11
ENDBRANCH   7  10
ENDBRANCH   1   7
BRANCH   2  14
HETATM   14  O   UNK N   1      22.947  17.781   5.626  0.00  0.00    -0.275 OA
BRANCH  14  15
HETATM   15  C   UNK N   1      21.834  17.574   6.384  0.00  0.00     0.271 C 
HETATM   16  O   UNK N   1      21.276  18.505   6.952  0.00  0.00    -0.264 OA
BRANCH  15  17
HETATM   17  C   UNK N   1      21.334  16.162   6.563  0.00  0.00     0.037 C 
HETATM   18  C   UNK N   1      20.825  15.987   7.981  0.00  0.00     0.025 C 
HETATM   19  C   UNK N   1      20.202  15.830   5.604  0.00  0.00     0.025 C 
HETATM   20  C   UNK N   1      22.470  15.187   6.326  0.00  0.00     0.025 C 
ENDBRANCH  15  17
ENDBRANCH  14  15
ENDBRANCH   2  14
BRANCH   3  21
HETATM   21  O   UNK N   1      25.400  18.808   5.231  0.00  0.00    -0.275 OA
BRANCH  21  22
HETATM   22  C   UNK N   1      26.556  18.180   4.880  0.00  0.00     0.271 C 
HETATM   23  O   UNK N   1      26.536  17.172   4.185  0.00  0.00    -0.264 OA
BRANCH  22  24
HETATM   24  C   UNK N   1      27.882  18.764   5.304  0.00  0.00     0.037 C 
HETATM   25  C   UNK N   1      29.045  17.911   4.823  0.00  0.00     0.025 C 
HETATM   26  C   UNK N   1      28.042  20.158   4.728  0.00  0.00     0.025 C 
HETATM   27  C   UNK N   1      27.945  18.844   6.818  0.00  0.00     0.025 C 
ENDBRANCH  22  24
ENDBRANCH  21  22
ENDBRANCH   3  21
TORSDOF 10
ENDMDL
MODEL 4
REMARK VINA RESULT:      -6.1      1.493      2.104
REMARK  10 active torsions:
REMARK  status: ('A' for Active; 'I' for Inactive)
REMARK    1  A    between atoms: O_1  and  C_14 
REMARK    2  A    between atoms: O_1  and  C_19 
REMARK    3  A    between atoms: O_2  and  C_18 
REMARK    4  A    between atoms: O_2  and  C_20 
REMARK    5  A    between atoms: O_3  and  C_10 
REMARK    6  A    between atoms: N_6  and  C_22 
REMARK    7  A    between atoms: C_7  and  C_14 
REMARK    8  A    between atoms: C_8  and  C_18 
REMARK    9  A    between atoms: C_9  and  C_10 
REMARK   10  A    between atoms: C_10  and  C_22 
ROOT
HETATM    1  C   UNK N   1      25.909  26.978  -4.808  0.00  0.00    -0.025 A 
HETATM    2  C   UNK N   1      26.882  24.829  -5.426  0.00  0.00     0.113 A 
HETATM    3  C   UNK N   1      26.355  24.959  -6.719  0.00  0.00     0.113 A 
HETATM    4  C   UNK N   1      26.661  25.842  -4.481  0.00  0.00     0.050 A 
HETATM    5  C   UNK N   1      25.373  27.095  -6.096  0.00  0.00     0.013 A 
HETATM    6  C   UNK N   1      25.601  26.099  -7.048  0.00  0.00     0.041 A 
ENDROOT
BRANCH   1   7
HETATM    7  C   UNK N   1      25.640  28.050  -3.788  0.00  0.00     0.168 C 
BRANCH   7   8
HETATM    8  O   UNK N   1      25.957  27.620  -2.494  0.00  0.00    -0.389 OA
HETATM    9  H   UNK N   1      25.938  26.676  -2.274  0.00  0.00     0.210 HD
ENDBRANCH   7   8
BRANCH   7  10
HETATM   10  C   UNK N   1      26.406  29.330  -4.101  0.00  0.00     0.149 C 
BRANCH  10  11
HETATM   11  N   UNK N   1      26.197  30.312  -3.047  0.00  0.00    -0.423 N 
HETATM   12  C   UNK N   1      27.495  30.868  -2.700  0.00  0.00     0.139 C 
HETATM   13  H   UNK N   1      25.301  30.564  -2.626  0.00  0.00     0.152 HD
ENDBRANCH  10  11
ENDBRANCH   7  10
ENDBRANCH   1   7
BRANCH   2  14
HETATM   14  O   UNK N   1      27.612  23.716  -5.139  0.00  0.00    -0.275 OA
BRANCH  14  15
HETATM   15  C   UNK N   1      28.966  23.614  -5.033  0.00  0.00     0.271 C 
HETATM   16  O   UNK N   1      29.685  23.725  -6.018  0.00  0.00    -0.264 OA
BRANCH  15  17
HETATM   17  C   UNK N   1      29.564  23.300  -3.685  0.00  0.00     0.037 C 
HETATM   18  C   UNK N   1      30.626  24.331  -3.355  0.00  0.00     0.025 C 
HETATM   19  C   UNK N   1      28.521  23.316  -2.578  0.00  0.00     0.025 C 
HETATM   20  C   UNK N   1      30.208  21.928  -3.721  0.00  0.00     0.025 C 
ENDBRANCH  15  17
ENDBRANCH  14  15
ENDBRANCH   2  14
BRANCH   3  21
HETATM   21  O   UNK N   1      26.606  23.971  -7.619  0.00  0.00    -0.275 OA
BRANCH  21  22
HETATM   22  C   UNK N   1      25.725  23.074  -8.142  0.00  0.00     0.271 C 
HETATM   23  O   UNK N   1      24.589  23.413  -8.445  0.00  0.00    -0.264 OA
BRANCH  22  24
HETATM   24  C   UNK N   1      26.172  21.655  -8.403  0.00  0.00     0.037 C 
HETATM   25  C   UNK N   1      26.143  21.329  -9.888  0.00  0.00     0.025 C 
HETATM   26  C   UNK N   1      27.589  21.458  -7.899  0.00  0.00     0.025 C 
HETATM   27  C   UNK N   1      25.251  20.687  -7.685  0.00  0.00     0.025 C 
ENDBRANCH  22  24
ENDBRANCH  21  22
ENDBRANCH   3  21
TORSDOF 10
ENDMDL
MODEL 5
REMARK VINA RESULT:      -6.0      2.712      6.587
REMARK  10 active torsions:
REMARK  status: ('A' for Active; 'I' for Inactive)
REMARK    1  A    between atoms: O_1  and  C_14 
REMARK    2  A    between atoms: O_1  and  C_19 
REMARK    3  A    between atoms: O_2  and  C_18 
REMARK    4  A    between atoms: O_2  and  C_20 
REMARK    5  A    between atoms: O_3  and  C_10 
REMARK    6  A    between atoms: N_6  and  C_22 
REMARK    7  A    between atoms: C_7  and  C_14 
REMARK    8  A    between atoms: C_8  and  C_18 
REMARK    9  A    between atoms: C_9  and  C_10 
REMARK   10  A    between atoms: C_10  and  C_22 
ROOT
HETATM    1  C   UNK N   1      30.040  24.247  -3.408  0.00  0.00    -0.025 A 
HETATM    2  C   UNK N   1      28.097  25.220  -4.516  0.00  0.00     0.113 A 
HETATM    3  C   UNK N   1      28.781  26.437  -4.654  0.00  0.00     0.113 A 
HETATM    4  C   UNK N   1      28.733  24.131  -3.901  0.00  0.00     0.050 A 
HETATM    5  C   UNK N   1      30.712  25.468  -3.535  0.00  0.00     0.013 A 
HETATM    6  C   UNK N   1      30.093  26.553  -4.160  0.00  0.00     0.041 A 
ENDROOT
BRANCH   1   7
HETATM    7  C   UNK N   1      30.713  23.093  -2.717  0.00  0.00     0.168 C 
BRANCH   7   8
HETATM    8  O   UNK N   1      30.397  23.055  -1.354  0.00  0.00    -0.389 OA
HETATM    9  H   UNK N   1      29.500  23.264  -1.054  0.00  0.00     0.210 HD
ENDBRANCH   7   8
BRANCH   7  10
HETATM   10  C   UNK N   1      30.349  21.760  -3.361  0.00  0.00     0.149 C 
BRANCH  10  11
HETATM   11  N   UNK N   1      31.475  20.842  -3.288  0.00  0.00    -0.423 N 
HETATM   12  C   UNK N   1      31.618  20.217  -4.593  0.00  0.00     0.139 C 
HETATM   13  H   UNK N   1      32.058  20.667  -2.469  0.00  0.00     0.152 HD
ENDBRANCH  10  11
ENDBRANCH   7  10
ENDBRANCH   1   7
BRANCH   2  14
HETATM   14  O   UNK N   1      26.830  25.136  -5.007  0.00  0.00    -0.275 OA
BRANCH  14  15
HETATM   15  C   UNK N   1      26.388  24.365  -6.039  0.00  0.00     0.271 C 
HETATM   16  O   UNK N   1      26.062  23.199  -5.860  0.00  0.00    -0.264 OA
BRANCH  15  17
HETATM   17  C   UNK N   1      26.365  24.958  -7.426  0.00  0.00     0.037 C 
HETATM   18  C   UNK N   1      25.482  24.109  -8.319  0.00  0.00     0.025 C 
HETATM   19  C   UNK N   1      25.825  26.380  -7.432  0.00  0.00     0.025 C 
HETATM   20  C   UNK N   1      27.770  24.973  -7.996  0.00  0.00     0.025 C 
ENDBRANCH  15  17
ENDBRANCH  14  15
ENDBRANCH   2  14
BRANCH   3  21
HETATM   21  O   UNK N   1      28.147  27.466  -5.275  0.00  0.00    -0.275 OA
BRANCH  21  22
HETATM   22  C   UNK N   1      28.099  28.772  -4.891  0.00  0.00     0.271 C 
HETATM   23  O   UNK N   1      28.856  29.598  -5.382  0.00  0.00    -0.264 OA
BRANCH  22  24
HETATM   24  C   UNK N   1      27.062  29.216  -3.887  0.00  0.00     0.037 C 
HETATM   25  C   UNK N   1      25.795  28.381  -3.992  0.00  0.00     0.025 C 
HETATM   26  C   UNK N   1      27.610  29.078  -2.480  0.00  0.00     0.025 C 
HETATM   27  C   UNK N   1      26.696  30.667  -4.137  0.00  0.00     0.025 C 
ENDBRANCH  22  24
ENDBRANCH  21  22
ENDBRANCH   3  21
TORSDOF 10
ENDMDL
MODEL 6
REMARK VINA RESULT:      -5.9      3.080      6.809
REMARK  10 active torsions:
REMARK  status: ('A' for Active; 'I' for Inactive)
REMARK    1  A    between atoms: O_1  and  C_14 
REMARK    2  A    between atoms: O_1  and  C_19 
REMARK    3  A    between atoms: O_2  and  C_18 
REMARK    4  A    between atoms: O_2  and  C_20 
REMARK    5  A    between atoms: O_3  and  C_10 
REMARK    6  A    between atoms: N_6  and  C_22 
REMARK    7  A    between atoms: C_7  and  C_14 
REMARK    8  A    between atoms: C_8  and  C_18 
REMARK    9  A    between atoms: C_9  and  C_10 
REMARK   10  A    between atoms: C_10  and  C_22 
ROOT
HETATM    1  C   UNK N   1      30.096  22.332  -4.446  0.00  0.00    -0.025 A 
HETATM    2  C   UNK N   1      28.448  23.767  -5.530  0.00  0.00     0.113 A 
HETATM    3  C   UNK N   1      28.753  24.801  -4.633  0.00  0.00     0.113 A 
HETATM    4  C   UNK N   1      29.125  22.542  -5.436  0.00  0.00     0.050 A 
HETATM    5  C   UNK N   1      30.385  23.362  -3.543  0.00  0.00     0.013 A 
HETATM    6  C   UNK N   1      29.727  24.590  -3.641  0.00  0.00     0.041 A 
ENDROOT
BRANCH   1   7
HETATM    7  C   UNK N   1      30.799  21.009  -4.319  0.00  0.00     0.168 C 
BRANCH   7   8
HETATM    8  O   UNK N   1      30.923  20.371  -5.559  0.00  0.00    -0.389 OA
HETATM    9  H   UNK N   1      30.153  19.957  -5.976  0.00  0.00     0.210 HD
ENDBRANCH   7   8
BRANCH   7  10
HETATM   10  C   UNK N   1      32.176  21.162  -3.684  0.00  0.00     0.149 C 
BRANCH  10  11
HETATM   11  N   UNK N   1      32.877  19.886  -3.689  0.00  0.00    -0.423 N 
HETATM   12  C   UNK N   1      34.267  20.149  -4.024  0.00  0.00     0.139 C 
HETATM   13  H   UNK N   1      32.466  18.972  -3.495  0.00  0.00     0.152 HD
ENDBRANCH  10  11
ENDBRANCH   7  10
ENDBRANCH   1   7
BRANCH   2  14
HETATM   14  O   UNK N   1      27.504  24.002  -6.483  0.00  0.00    -0.275 OA
BRANCH  14  15
HETATM   15  C   UNK N   1      26.287  23.405  -6.611  0.00  0.00     0.271 C 
HETATM   16  O   UNK N   1      25.488  23.395  -5.683  0.00  0.00    -0.264 OA
BRANCH  15  17
HETATM   17  C   UNK N   1      25.961  22.698  -7.904  0.00  0.00     0.037 C 
HETATM   18  C   UNK N   1      25.432  23.706  -8.906  0.00  0.00     0.025 C 
HETATM   19  C   UNK N   1      27.180  22.018  -8.507  0.00  0.00     0.025 C 
HETATM   20  C   UNK N   1      24.895  21.649  -7.655  0.00  0.00     0.025 C 
ENDBRANCH  15  17
ENDBRANCH  14  15
ENDBRANCH   2  14
BRANCH   3  21
HETATM   21  O   UNK N   1      28.096  25.983  -4.764  0.00  0.00    -0.275 OA
BRANCH  21  22
HETATM   22  C   UNK N   1      26.858  26.307  -4.300  0.00  0.00     0.271 C 
HETATM   23  O   UNK N   1      26.376  25.725  -3.338  0.00  0.00    -0.264 OA
BRANCH  22  24
HETATM   24  C   UNK N   1      26.091  27.437  -4.946  0.00  0.00     0.037 C 
HETATM   25  C   UNK N   1      25.732  28.514  -3.934  0.00  0.00     0.025 C 
HETATM   26  C   UNK N   1      26.928  28.071  -6.040  0.00  0.00     0.025 C 
HETATM   27  C   UNK N   1      24.806  26.904  -5.550  0.00  0.00     0.025 C 
ENDBRANCH  22  24
ENDBRANCH  21  22
ENDBRANCH   3  21
TORSDOF 10
ENDMDL
MODEL 7
REMARK VINA RESULT:      -5.9     12.730     15.290
REMARK  10 active torsions:
REMARK  status: ('A' for Active; 'I' for Inactive)
REMARK    1  A    between atoms: O_1  and  C_14 
REMARK    2  A    between atoms: O_1  and  C_19 
REMARK    3  A    between atoms: O_2  and  C_18 
REMARK    4  A    between atoms: O_2  and  C_20 
REMARK    5  A    between atoms: O_3  and  C_10 
REMARK    6  A    between atoms: N_6  and  C_22 
REMARK    7  A    between atoms: C_7  and  C_14 
REMARK    8  A    between atoms: C_8  and  C_18 
REMARK    9  A    between atoms: C_9  and  C_10 
REMARK   10  A    between atoms: C_10  and  C_22 
ROOT
HETATM    1  C   UNK N   1      32.696  17.564   7.779  0.00  0.00    -0.025 A 
HETATM    2  C   UNK N   1      30.670  16.895   6.597  0.00  0.00     0.113 A 
HETATM    3  C   UNK N   1      29.895  17.641   7.498  0.00  0.00     0.113 A 
HETATM    4  C   UNK N   1      32.066  16.867   6.740  0.00  0.00     0.050 A 
HETATM    5  C   UNK N   1      31.916  18.295   8.684  0.00  0.00     0.013 A 
HETATM    6  C   UNK N   1      30.527  18.341   8.540  0.00  0.00     0.041 A 
ENDROOT
BRANCH   1   7
HETATM    7  C   UNK N   1      34.189  17.509   7.957  0.00  0.00     0.168 C 
BRANCH   7   8
HETATM    8  O   UNK N   1      34.714  18.762   8.290  0.00  0.00    -0.389 OA
HETATM    9  H   UNK N   1      35.543  19.067   7.891  0.00  0.00     0.210 HD
ENDBRANCH   7   8
BRANCH   7  10
HETATM   10  C   UNK N   1      34.593  16.489   9.015  0.00  0.00     0.149 C 
BRANCH  10  11
HETATM   11  N   UNK N   1      34.885  17.159  10.273  0.00  0.00    -0.423 N 
HETATM   12  C   UNK N   1      35.676  16.246  11.084  0.00  0.00     0.139 C 
HETATM   13  H   UNK N   1      34.587  18.098  10.540  0.00  0.00     0.152 HD
ENDBRANCH  10  11
ENDBRANCH   7  10
ENDBRANCH   1   7
BRANCH   2  14
HETATM   14  O   UNK N   1      30.030  16.231   5.596  0.00  0.00    -0.275 OA
BRANCH  14  15
HETATM   15  C   UNK N   1      30.416  15.076   4.986  0.00  0.00     0.271 C 
HETATM   16  O   UNK N   1      30.497  14.028   5.614  0.00  0.00    -0.264 OA
BRANCH  15  17
HETATM   17  C   UNK N   1      30.802  15.122   3.529  0.00  0.00     0.037 C 
HETATM   18  C   UNK N   1      30.066  16.262   2.852  0.00  0.00     0.025 C 
HETATM   19  C   UNK N   1      32.295  15.336   3.338  0.00  0.00     0.025 C 
HETATM   20  C   UNK N   1      30.411  13.820   2.857  0.00  0.00     0.025 C 
ENDBRANCH  15  17
ENDBRANCH  14  15
ENDBRANCH   2  14
BRANCH   3  21
HETATM   21  O   UNK N   1      28.548  17.667   7.320  0.00  0.00    -0.275 OA
BRANCH  21  22
HETATM   22  C   UNK N   1      27.782  18.707   6.888  0.00  0.00     0.271 C 
HETATM   23  O   UNK N   1      27.551  19.662   7.618  0.00  0.00    -0.264 OA
BRANCH  22  24
HETATM   24  C   UNK N   1      27.257  18.709   5.472  0.00  0.00     0.037 C 
HETATM   25  C   UNK N   1      26.801  17.321   5.047  0.00  0.00     0.025 C 
HETATM   26  C   UNK N   1      26.077  19.654   5.358  0.00  0.00     0.025 C 
HETATM   27  C   UNK N   1      28.349  19.162   4.521  0.00  0.00     0.025 C 
ENDBRANCH  22  24
ENDBRANCH  21  22
ENDBRANCH   3  21
TORSDOF 10
ENDMDL
MODEL 8
REMARK VINA RESULT:      -5.8     22.670     26.558
REMARK  10 active torsions:
REMARK  status: ('A' for Active; 'I' for Inactive)
REMARK    1  A    between atoms: O_1  and  C_14 
REMARK    2  A    between atoms: O_1  and  C_19 
REMARK    3  A    between atoms: O_2  and  C_18 
REMARK    4  A    between atoms: O_2  and  C_20 
REMARK    5  A    between atoms: O_3  and  C_10 
REMARK    6  A    between atoms: N_6  and  C_22 
REMARK    7  A    between atoms: C_7  and  C_14 
REMARK    8  A    between atoms: C_8  and  C_18 
REMARK    9  A    between atoms: C_9  and  C_10 
REMARK   10  A    between atoms: C_10  and  C_22 
ROOT
HETATM    1  C   UNK N   1      35.566  11.711  18.395  0.00  0.00    -0.025 A 
HETATM    2  C   UNK N   1      35.556  11.357  15.982  0.00  0.00     0.113 A 
HETATM    3  C   UNK N   1      35.038  12.647  15.792  0.00  0.00     0.113 A 
HETATM    4  C   UNK N   1      35.823  10.900  17.281  0.00  0.00     0.050 A 
HETATM    5  C   UNK N   1      35.034  12.992  18.200  0.00  0.00     0.013 A 
HETATM    6  C   UNK N   1      34.780  13.460  16.909  0.00  0.00     0.041 A 
ENDROOT
BRANCH   1   7
HETATM    7  C   UNK N   1      35.818  11.213  19.792  0.00  0.00     0.168 C 
BRANCH   7   8
HETATM    8  O   UNK N   1      36.159  12.258  20.658  0.00  0.00    -0.389 OA
HETATM    9  H   UNK N   1      36.007  13.179  20.397  0.00  0.00     0.210 HD
ENDBRANCH   7   8
BRANCH   7  10
HETATM   10  C   UNK N   1      34.614  10.462  20.348  0.00  0.00     0.149 C 
BRANCH  10  11
HETATM   11  N   UNK N   1      34.038  11.193  21.467  0.00  0.00    -0.423 N 
HETATM   12  C   UNK N   1      32.930  10.406  21.983  0.00  0.00     0.139 C 
HETATM   13  H   UNK N   1      34.354  12.096  21.823  0.00  0.00     0.152 HD
ENDBRANCH  10  11
ENDBRANCH   7  10
ENDBRANCH   1   7
BRANCH   2  14
HETATM   14  O   UNK N   1      35.799  10.594  14.881  0.00  0.00    -0.275 OA
BRANCH  14  15
HETATM   15  C   UNK N   1      36.996  10.379  14.267  0.00  0.00     0.271 C 
HETATM   16  O   UNK N   1      37.944  11.129  14.454  0.00  0.00    -0.264 OA
BRANCH  15  17
HETATM   17  C   UNK N   1      37.113   9.228  13.299  0.00  0.00     0.037 C 
HETATM   18  C   UNK N   1      35.744   8.613  13.082  0.00  0.00     0.025 C 
HETATM   19  C   UNK N   1      37.658   9.669  11.949  0.00  0.00     0.025 C 
HETATM   20  C   UNK N   1      38.039   8.173  13.872  0.00  0.00     0.025 C 
ENDBRANCH  15  17
ENDBRANCH  14  15
ENDBRANCH   2  14
BRANCH   3  21
HETATM   21  O   UNK N   1      34.811  13.069  14.520  0.00  0.00    -0.275 OA
BRANCH  21  22
HETATM   22  C   UNK N   1      35.660  13.751  13.702  0.00  0.00     0.271 C 
HETATM   23  O   UNK N   1      36.488  14.526  14.163  0.00  0.00    -0.264 OA
BRANCH  22  24
HETATM   24  C   UNK N   1      35.618  13.507  12.213  0.00  0.00     0.037 C 
HETATM   25  C   UNK N   1      34.917  14.644  11.484  0.00  0.00     0.025 C 
HETATM   26  C   UNK N   1      37.028  13.387  11.668  0.00  0.00     0.025 C 
HETATM   27  C   UNK N   1      34.864  12.222  11.926  0.00  0.00     0.025 C 
ENDBRANCH  22  24
ENDBRANCH  21  22
ENDBRANCH   3  21
TORSDOF 10
ENDMDL
MODEL 9
REMARK VINA RESULT:      -5.7      3.001      6.700
REMARK  10 active torsions:
REMARK  status: ('A' for Active; 'I' for Inactive)
REMARK    1  A    between atoms: O_1  and  C_14 
REMARK    2  A    between atoms: O_1  and  C_19 
REMARK    3  A    between atoms: O_2  and  C_18 
REMARK    4  A    between atoms: O_2  and  C_20 
REMARK    5  A    between atoms: O_3  and  C_10 
REMARK    6  A    between atoms: N_6  and  C_22 
REMARK    7  A    between atoms: C_7  and  C_14 
REMARK    8  A    between atoms: C_8  and  C_18 
REMARK    9  A    between atoms: C_9  and  C_10 
REMARK   10  A    between atoms: C_10  and  C_22 
ROOT
HETATM    1  C   UNK N   1      26.634  23.239  -7.708  0.00  0.00    -0.025 A 
HETATM    2  C   UNK N   1      27.658  24.501  -5.889  0.00  0.00     0.113 A 
HETATM    3  C   UNK N   1      28.612  23.486  -5.718  0.00  0.00     0.113 A 
HETATM    4  C   UNK N   1      26.680  24.374  -6.886  0.00  0.00     0.050 A 
HETATM    5  C   UNK N   1      27.579  22.223  -7.522  0.00  0.00     0.013 A 
HETATM    6  C   UNK N   1      28.566  22.348  -6.542  0.00  0.00     0.041 A 
ENDROOT
BRANCH   1   7
HETATM    7  C   UNK N   1      25.566  23.083  -8.755  0.00  0.00     0.168 C 
BRANCH   7   8
HETATM    8  O   UNK N   1      24.381  22.574  -8.209  0.00  0.00    -0.389 OA
HETATM    9  H   UNK N   1      23.553  23.072  -8.287  0.00  0.00     0.210 HD
ENDBRANCH   7   8
BRANCH   7  10
HETATM   10  C   UNK N   1      25.276  24.401  -9.464  0.00  0.00     0.149 C 
BRANCH  10  11
HETATM   11  N   UNK N   1      25.846  24.387 -10.803  0.00  0.00    -0.423 N 
HETATM   12  C   UNK N   1      24.975  25.177 -11.659  0.00  0.00     0.139 C 
HETATM   13  H   UNK N   1      26.700  23.908 -11.090  0.00  0.00     0.152 HD
ENDBRANCH  10  11
ENDBRANCH   7  10
ENDBRANCH   1   7
BRANCH   2  14
HETATM   14  O   UNK N   1      27.730  25.592  -5.079  0.00  0.00    -0.275 OA
BRANCH  14  15
HETATM   15  C   UNK N   1      26.721  26.167  -4.367  0.00  0.00     0.271 C 
HETATM   16  O   UNK N   1      26.290  25.643  -3.348  0.00  0.00    -0.264 OA
BRANCH  15  17
HETATM   17  C   UNK N   1      26.099  27.437  -4.892  0.00  0.00     0.037 C 
HETATM   18  C   UNK N   1      25.838  28.383  -3.736  0.00  0.00     0.025 C 
HETATM   19  C   UNK N   1      26.999  28.144  -5.894  0.00  0.00     0.025 C 
HETATM   20  C   UNK N   1      24.782  27.116  -5.570  0.00  0.00     0.025 C 
ENDBRANCH  15  17
ENDBRANCH  14  15
ENDBRANCH   2  14
BRANCH   3  21
HETATM   21  O   UNK N   1      29.561  23.649  -4.759  0.00  0.00    -0.275 OA
BRANCH  21  22
HETATM   22  C   UNK N   1      29.997  22.732  -3.851  0.00  0.00     0.271 C 
HETATM   23  O   UNK N   1      29.338  22.474  -2.853  0.00  0.00    -0.264 OA
BRANCH  22  24
HETATM   24  C   UNK N   1      31.283  21.982  -4.107  0.00  0.00     0.037 C 
HETATM   25  C   UNK N   1      32.058  21.753  -2.819  0.00  0.00     0.025 C 
HETATM   26  C   UNK N   1      30.981  20.633  -4.729  0.00  0.00     0.025 C 
HETATM   27  C   UNK N   1      32.160  22.779  -5.054  0.00  0.00     0.025 C 
ENDBRANCH  22  24
ENDBRANCH  21  22
ENDBRANCH   3  21
TORSDOF 10
ENDMDL
