REMARK  6 active torsions:
REMARK  status: ('A' for Active; 'I' for Inactive)
REMARK    1  A    between atoms: N_4  and  C_11 
REMARK    2  A    between atoms: N_5  and  C_10 
REMARK    3  A    between atoms: C_11  and  C_13 
REMARK    4  A    between atoms: C_13  and  C_15 
REMARK    5  A    between atoms: C_15  and  C_19 
REMARK    6  A    between atoms: C_19  and  C_23 
ROOT
HETATM    1  N   UNK N   1       4.122   0.582   1.149  0.00  0.00     0.092 N 
HETATM    2  C   UNK N   1       5.048  -0.544   1.393  0.00  0.00     0.279 C 
HETATM    3  C   UNK N   1       5.084  -1.523   0.223  0.00  0.00     0.087 C 
HETATM    4  C   UNK N   1       2.933   0.319   0.312  0.00  0.00     0.301 C 
HETATM    5  C   UNK N   1       3.691  -2.018   0.013  0.00  0.00     0.021 C 
HETATM    6  C   UNK N   1       2.686  -1.134   0.063  0.00  0.00     0.029 C 
ENDROOT
BRANCH   1   7
HETATM    7  C   UNK N   1       4.846   1.730   0.615  0.00  0.00     0.273 C 
BRANCH   7   8
HETATM    8  C   UNK N   1       5.154   1.603  -0.882  0.00  0.00     0.038 C 
BRANCH   8   9
HETATM    9  C   UNK N   1       6.428   0.818  -1.179  0.00  0.00     0.085 C 
BRANCH   9  10
HETATM   10  C   UNK N   1       7.659   1.263  -0.429  0.00  0.00     0.159 C 
HETATM   11  O   UNK N   1       8.437   0.405  -0.038  0.00  0.00    -0.292 OA
BRANCH  10  12
HETATM   12  C   UNK N   1       7.988   2.697  -0.225  0.00  0.00     0.010 A 
HETATM   13  C   UNK N   1       7.044   3.701  -0.489  0.00  0.00     0.018 A 
HETATM   14  C   UNK N   1       7.353   5.044  -0.298  0.00  0.00     0.043 A 
HETATM   15  C   UNK N   1       8.626   5.405   0.139  0.00  0.00     0.116 A 
HETATM   16  F   UNK N   1       8.935   6.712   0.299  0.00  0.00    -0.206 F 
HETATM   17  C   UNK N   1       9.582   4.418   0.402  0.00  0.00     0.043 A 
HETATM   18  C   UNK N   1       9.261   3.068   0.232  0.00  0.00     0.018 A 
ENDBRANCH  10  12
ENDBRANCH   9  10
ENDBRANCH   8   9
ENDBRANCH   7   8
ENDBRANCH   1   7
BRANCH   5  19
HETATM   19  N   UNK N   1       3.410  -3.426  -0.113  0.00  0.00    -0.266 N 
HETATM   20  C   UNK N   1       2.198  -4.010  -0.069  0.00  0.00     0.070 A 
HETATM   21  C   UNK N   1       2.344  -5.363  -0.173  0.00  0.00     0.063 A 
HETATM   22  C   UNK N   1       0.946  -3.414   0.091  0.00  0.00     0.032 A 
HETATM   23  N   UNK N   1       3.648  -5.684  -0.299  0.00  0.00    -0.306 N 
HETATM   24  C   UNK N   1       1.253  -6.224  -0.121  0.00  0.00     0.032 A 
HETATM   25  C   UNK N   1       4.281  -4.473  -0.256  0.00  0.00     0.332 A 
HETATM   26  H   UNK N   1       4.049  -6.578  -0.397  0.00  0.00     0.171 HD
HETATM   27  O   UNK N   1       5.493  -4.350  -0.335  0.00  0.00    -0.246 OA
HETATM   28  C   UNK N   1      -0.025  -5.651   0.041  0.00  0.00     0.002 A 
HETATM   29  C   UNK N   1      -0.178  -4.250   0.145  0.00  0.00     0.002 A 
ENDBRANCH   5  19
TORSDOF 6
