MODEL 1
REMARK VINA RESULT:      -7.1      0.000      0.000
REMARK  6 active torsions:
REMARK  status: ('A' for Active; 'I' for Inactive)
REMARK    1  A    between atoms: N_4  and  C_11 
REMARK    2  A    between atoms: N_5  and  C_10 
REMARK    3  A    between atoms: C_11  and  C_13 
REMARK    4  A    between atoms: C_13  and  C_15 
REMARK    5  A    between atoms: C_15  and  C_19 
REMARK    6  A    between atoms: C_19  and  C_23 
ROOT
HETATM    1  N   UNK N   1      27.387  26.789  -3.644  0.00  0.00     0.092 N 
HETATM    2  C   UNK N   1      28.788  26.737  -4.111  0.00  0.00     0.279 C 
HETATM    3  C   UNK N   1      29.062  25.508  -4.972  0.00  0.00     0.087 C 
HETATM    4  C   UNK N   1      26.696  25.503  -3.414  0.00  0.00     0.301 C 
HETATM    5  C   UNK N   1      28.733  24.305  -4.150  0.00  0.00     0.021 C 
HETATM    6  C   UNK N   1      27.613  24.323  -3.416  0.00  0.00     0.029 C 
ENDROOT
BRANCH   1   7
HETATM    7  C   UNK N   1      26.583  27.618  -4.535  0.00  0.00     0.273 C 
BRANCH   7   8
HETATM    8  C   UNK N   1      25.341  26.896  -5.070  0.00  0.00     0.038 C 
BRANCH   8   9
HETATM    9  C   UNK N   1      25.231  26.916  -6.592  0.00  0.00     0.085 C 
BRANCH   9  10
HETATM   10  C   UNK N   1      26.249  26.084  -7.331  0.00  0.00     0.159 C 
HETATM   11  O   UNK N   1      27.279  26.629  -7.702  0.00  0.00    -0.292 OA
BRANCH  10  12
HETATM   12  C   UNK N   1      26.075  24.625  -7.547  0.00  0.00     0.010 A 
HETATM   13  C   UNK N   1      25.750  23.769  -6.483  0.00  0.00     0.018 A 
HETATM   14  C   UNK N   1      25.587  22.403  -6.687  0.00  0.00     0.043 A 
HETATM   15  C   UNK N   1      25.771  21.866  -7.960  0.00  0.00     0.116 A 
HETATM   16  F   UNK N   1      25.639  20.534  -8.152  0.00  0.00    -0.206 F 
HETATM   17  C   UNK N   1      26.100  22.703  -9.031  0.00  0.00     0.043 A 
HETATM   18  C   UNK N   1      26.240  24.080  -8.829  0.00  0.00     0.018 A 
ENDBRANCH  10  12
ENDBRANCH   9  10
ENDBRANCH   8   9
ENDBRANCH   7   8
ENDBRANCH   1   7
BRANCH   5  19
HETATM   19  N   UNK N   1      29.652  23.201  -4.041  0.00  0.00    -0.266 N 
HETATM   20  C   UNK N   1      29.855  22.231  -4.952  0.00  0.00     0.070 A 
HETATM   21  C   UNK N   1      30.764  21.337  -4.466  0.00  0.00     0.063 A 
HETATM   22  C   UNK N   1      29.252  22.065  -6.200  0.00  0.00     0.032 A 
HETATM   23  N   UNK N   1      31.179  21.712  -3.239  0.00  0.00    -0.306 N 
HETATM   24  C   UNK N   1      31.137  20.207  -5.186  0.00  0.00     0.032 A 
HETATM   25  C   UNK N   1      30.476  22.861  -3.001  0.00  0.00     0.332 A 
HETATM   26  H   UNK N   1      31.831  21.265  -2.652  0.00  0.00     0.171 HD
HETATM   27  O   UNK N   1      30.579  23.505  -1.969  0.00  0.00    -0.246 OA
HETATM   28  C   UNK N   1      30.545  20.012  -6.450  0.00  0.00     0.002 A 
HETATM   29  C   UNK N   1      29.606  20.939  -6.956  0.00  0.00     0.002 A 
ENDBRANCH   5  19
TORSDOF 6
ENDMDL
MODEL 2
REMARK VINA RESULT:      -6.9     14.593     15.998
REMARK  6 active torsions:
REMARK  status: ('A' for Active; 'I' for Inactive)
REMARK    1  A    between atoms: N_4  and  C_11 
REMARK    2  A    between atoms: N_5  and  C_10 
REMARK    3  A    between atoms: C_11  and  C_13 
REMARK    4  A    between atoms: C_13  and  C_15 
REMARK    5  A    between atoms: C_15  and  C_19 
REMARK    6  A    between atoms: C_19  and  C_23 
ROOT
HETATM    1  N   UNK N   1      21.082  15.962   5.031  0.00  0.00     0.092 N 
HETATM    2  C   UNK N   1      21.552  14.573   5.220  0.00  0.00     0.279 C 
HETATM    3  C   UNK N   1      20.745  13.832   6.281  0.00  0.00     0.087 C 
HETATM    4  C   UNK N   1      20.510  16.654   6.204  0.00  0.00     0.301 C 
HETATM    5  C   UNK N   1      20.860  14.608   7.552  0.00  0.00     0.021 C 
HETATM    6  C   UNK N   1      20.751  15.942   7.496  0.00  0.00     0.029 C 
ENDROOT
BRANCH   1   7
HETATM    7  C   UNK N   1      20.140  16.034   3.919  0.00  0.00     0.273 C 
BRANCH   7   8
HETATM    8  C   UNK N   1      19.646  17.459   3.641  0.00  0.00     0.038 C 
BRANCH   8   9
HETATM    9  C   UNK N   1      20.586  18.268   2.753  0.00  0.00     0.085 C 
BRANCH   9  10
HETATM   10  C   UNK N   1      21.317  19.398   3.435  0.00  0.00     0.159 C 
HETATM   11  O   UNK N   1      20.659  20.218   4.057  0.00  0.00    -0.292 OA
BRANCH  10  12
HETATM   12  C   UNK N   1      22.799  19.494   3.440  0.00  0.00     0.010 A 
HETATM   13  C   UNK N   1      23.457  20.562   2.811  0.00  0.00     0.018 A 
HETATM   14  C   UNK N   1      24.846  20.652   2.815  0.00  0.00     0.043 A 
HETATM   15  C   UNK N   1      25.601  19.656   3.430  0.00  0.00     0.116 A 
HETATM   16  F   UNK N   1      26.951  19.729   3.411  0.00  0.00    -0.206 F 
HETATM   17  C   UNK N   1      24.962  18.580   4.058  0.00  0.00     0.043 A 
HETATM   18  C   UNK N   1      23.566  18.505   4.073  0.00  0.00     0.018 A 
ENDBRANCH  10  12
ENDBRANCH   9  10
ENDBRANCH   8   9
ENDBRANCH   7   8
ENDBRANCH   1   7
BRANCH   5  19
HETATM   19  N   UNK N   1      21.208  13.962   8.792  0.00  0.00    -0.266 N 
HETATM   20  C   UNK N   1      22.412  13.465   9.129  0.00  0.00     0.070 A 
HETATM   21  C   UNK N   1      22.334  12.885  10.362  0.00  0.00     0.063 A 
HETATM   22  C   UNK N   1      23.595  13.463   8.387  0.00  0.00     0.032 A 
HETATM   23  N   UNK N   1      21.085  13.005  10.856  0.00  0.00    -0.306 N 
HETATM   24  C   UNK N   1      23.428  12.257  10.947  0.00  0.00     0.032 A 
HETATM   25  C   UNK N   1      20.413  13.669   9.868  0.00  0.00     0.332 A 
HETATM   26  H   UNK N   1      20.739  12.689  11.722  0.00  0.00     0.171 HD
HETATM   27  O   UNK N   1      19.230  13.962   9.946  0.00  0.00    -0.246 OA
HETATM   28  C   UNK N   1      24.637  12.238  10.222  0.00  0.00     0.002 A 
HETATM   29  C   UNK N   1      24.720  12.841   8.946  0.00  0.00     0.002 A 
ENDBRANCH   5  19
TORSDOF 6
ENDMDL
MODEL 3
REMARK VINA RESULT:      -6.9     14.516     16.530
REMARK  6 active torsions:
REMARK  status: ('A' for Active; 'I' for Inactive)
REMARK    1  A    between atoms: N_4  and  C_11 
REMARK    2  A    between atoms: N_5  and  C_10 
REMARK    3  A    between atoms: C_11  and  C_13 
REMARK    4  A    between atoms: C_13  and  C_15 
REMARK    5  A    between atoms: C_15  and  C_19 
REMARK    6  A    between atoms: C_19  and  C_23 
ROOT
HETATM    1  N   UNK N   1      21.504  15.463   5.561  0.00  0.00     0.092 N 
HETATM    2  C   UNK N   1      22.358  16.412   6.306  0.00  0.00     0.279 C 
HETATM    3  C   UNK N   1      22.125  17.857   5.875  0.00  0.00     0.087 C 
HETATM    4  C   UNK N   1      21.142  15.816   4.173  0.00  0.00     0.301 C 
HETATM    5  C   UNK N   1      22.401  17.934   4.409  0.00  0.00     0.021 C 
HETATM    6  C   UNK N   1      21.932  16.958   3.620  0.00  0.00     0.029 C 
ENDROOT
BRANCH   1   7
HETATM    7  C   UNK N   1      20.293  15.167   6.317  0.00  0.00     0.273 C 
BRANCH   7   8
HETATM    8  C   UNK N   1      20.564  14.365   7.596  0.00  0.00     0.038 C 
BRANCH   8   9
HETATM    9  C   UNK N   1      21.400  13.110   7.364  0.00  0.00     0.085 C 
BRANCH   9  10
HETATM   10  C   UNK N   1      22.728  13.069   8.079  0.00  0.00     0.159 C 
HETATM   11  O   UNK N   1      23.720  13.445   7.472  0.00  0.00    -0.292 OA
BRANCH  10  12
HETATM   12  C   UNK N   1      22.850  12.667   9.503  0.00  0.00     0.010 A 
HETATM   13  C   UNK N   1      21.714  12.517  10.313  0.00  0.00     0.018 A 
HETATM   14  C   UNK N   1      21.829  12.141  11.648  0.00  0.00     0.043 A 
HETATM   15  C   UNK N   1      23.091  11.932  12.201  0.00  0.00     0.116 A 
HETATM   16  F   UNK N   1      23.205  11.593  13.505  0.00  0.00    -0.206 F 
HETATM   17  C   UNK N   1      24.236  12.083  11.410  0.00  0.00     0.043 A 
HETATM   18  C   UNK N   1      24.115  12.437  10.063  0.00  0.00     0.018 A 
ENDBRANCH  10  12
ENDBRANCH   9  10
ENDBRANCH   8   9
ENDBRANCH   7   8
ENDBRANCH   1   7
BRANCH   5  19
HETATM   19  N   UNK N   1      23.256  18.958   3.863  0.00  0.00    -0.266 N 
HETATM   20  C   UNK N   1      24.600  18.997   3.921  0.00  0.00     0.070 A 
HETATM   21  C   UNK N   1      25.045  20.148   3.338  0.00  0.00     0.063 A 
HETATM   22  C   UNK N   1      25.477  18.075   4.495  0.00  0.00     0.032 A 
HETATM   23  N   UNK N   1      24.003  20.872   2.879  0.00  0.00    -0.306 N 
HETATM   24  C   UNK N   1      26.397  20.468   3.287  0.00  0.00     0.032 A 
HETATM   25  C   UNK N   1      22.915  20.117   3.219  0.00  0.00     0.332 A 
HETATM   26  H   UNK N   1      24.022  21.739   2.412  0.00  0.00     0.171 HD
HETATM   27  O   UNK N   1      21.767  20.452   2.971  0.00  0.00    -0.246 OA
HETATM   28  C   UNK N   1      27.307  19.557   3.860  0.00  0.00     0.002 A 
HETATM   29  C   UNK N   1      26.848  18.363   4.461  0.00  0.00     0.002 A 
ENDBRANCH   5  19
TORSDOF 6
ENDMDL
MODEL 4
REMARK VINA RESULT:      -6.9     14.852     18.041
REMARK  6 active torsions:
REMARK  status: ('A' for Active; 'I' for Inactive)
REMARK    1  A    between atoms: N_4  and  C_11 
REMARK    2  A    between atoms: N_5  and  C_10 
REMARK    3  A    between atoms: C_11  and  C_13 
REMARK    4  A    between atoms: C_13  and  C_15 
REMARK    5  A    between atoms: C_15  and  C_19 
REMARK    6  A    between atoms: C_19  and  C_23 
ROOT
HETATM    1  N   UNK N   1      34.126  13.597   6.393  0.00  0.00     0.092 N 
HETATM    2  C   UNK N   1      33.288  13.481   7.605  0.00  0.00     0.279 C 
HETATM    3  C   UNK N   1      33.458  14.676   8.538  0.00  0.00     0.087 C 
HETATM    4  C   UNK N   1      35.411  14.316   6.518  0.00  0.00     0.301 C 
HETATM    5  C   UNK N   1      34.904  14.757   8.900  0.00  0.00     0.021 C 
HETATM    6  C   UNK N   1      35.814  14.580   7.933  0.00  0.00     0.029 C 
ENDROOT
BRANCH   1   7
HETATM    7  C   UNK N   1      33.356  14.169   5.294  0.00  0.00     0.273 C 
BRANCH   7   8
HETATM    8  C   UNK N   1      34.081  15.322   4.589  0.00  0.00     0.038 C 
BRANCH   8   9
HETATM    9  C   UNK N   1      33.326  16.647   4.651  0.00  0.00     0.085 C 
BRANCH   9  10
HETATM   10  C   UNK N   1      33.295  17.318   6.001  0.00  0.00     0.159 C 
HETATM   11  O   UNK N   1      34.321  17.845   6.406  0.00  0.00    -0.292 OA
BRANCH  10  12
HETATM   12  C   UNK N   1      32.051  17.425   6.806  0.00  0.00     0.010 A 
HETATM   13  C   UNK N   1      32.067  17.982   8.093  0.00  0.00     0.018 A 
HETATM   14  C   UNK N   1      30.901  18.081   8.846  0.00  0.00     0.043 A 
HETATM   15  C   UNK N   1      29.701  17.599   8.328  0.00  0.00     0.116 A 
HETATM   16  F   UNK N   1      28.572  17.672   9.070  0.00  0.00    -0.206 F 
HETATM   17  C   UNK N   1      29.667  17.036   7.048  0.00  0.00     0.043 A 
HETATM   18  C   UNK N   1      30.835  16.959   6.284  0.00  0.00     0.018 A 
ENDBRANCH  10  12
ENDBRANCH   9  10
ENDBRANCH   8   9
ENDBRANCH   7   8
ENDBRANCH   1   7
BRANCH   5  19
HETATM   19  N   UNK N   1      35.324  14.894  10.272  0.00  0.00    -0.266 N 
HETATM   20  C   UNK N   1      35.369  13.920  11.199  0.00  0.00     0.070 A 
HETATM   21  C   UNK N   1      35.769  14.448  12.392  0.00  0.00     0.063 A 
HETATM   22  C   UNK N   1      35.042  12.569  11.064  0.00  0.00     0.032 A 
HETATM   23  N   UNK N   1      36.005  15.770  12.262  0.00  0.00    -0.306 N 
HETATM   24  C   UNK N   1      35.870  13.671  13.541  0.00  0.00     0.032 A 
HETATM   25  C   UNK N   1      35.720  16.018  10.948  0.00  0.00     0.332 A 
HETATM   26  H   UNK N   1      36.308  16.406  12.950  0.00  0.00     0.171 HD
HETATM   27  O   UNK N   1      35.810  17.125  10.442  0.00  0.00    -0.246 OA
HETATM   28  C   UNK N   1      35.546  12.303  13.436  0.00  0.00     0.002 A 
HETATM   29  C   UNK N   1      35.134  11.754  12.200  0.00  0.00     0.002 A 
ENDBRANCH   5  19
TORSDOF 6
ENDMDL
MODEL 5
REMARK VINA RESULT:      -6.8     20.330     23.373
REMARK  6 active torsions:
REMARK  status: ('A' for Active; 'I' for Inactive)
REMARK    1  A    between atoms: N_4  and  C_11 
REMARK    2  A    between atoms: N_5  and  C_10 
REMARK    3  A    between atoms: C_11  and  C_13 
REMARK    4  A    between atoms: C_13  and  C_15 
REMARK    5  A    between atoms: C_15  and  C_19 
REMARK    6  A    between atoms: C_19  and  C_23 
ROOT
HETATM    1  N   UNK N   1      35.719  12.659  13.439  0.00  0.00     0.092 N 
HETATM    2  C   UNK N   1      34.694  11.901  14.187  0.00  0.00     0.279 C 
HETATM    3  C   UNK N   1      34.175  12.675  15.396  0.00  0.00     0.087 C 
HETATM    4  C   UNK N   1      36.580  13.583  14.205  0.00  0.00     0.301 C 
HETATM    5  C   UNK N   1      35.349  12.982  16.266  0.00  0.00     0.021 C 
HETATM    6  C   UNK N   1      36.479  13.406  15.686  0.00  0.00     0.029 C 
ENDROOT
BRANCH   1   7
HETATM    7  C   UNK N   1      35.108  13.377  12.325  0.00  0.00     0.273 C 
BRANCH   7   8
HETATM    8  C   UNK N   1      35.943  14.573  11.852  0.00  0.00     0.038 C 
BRANCH   8   9
HETATM    9  C   UNK N   1      35.654  14.988  10.412  0.00  0.00     0.085 C 
BRANCH   9  10
HETATM   10  C   UNK N   1      35.005  16.339  10.239  0.00  0.00     0.159 C 
HETATM   11  O   UNK N   1      35.298  17.224  11.030  0.00  0.00    -0.292 OA
BRANCH  10  12
HETATM   12  C   UNK N   1      34.095  16.642   9.105  0.00  0.00     0.010 A 
HETATM   13  C   UNK N   1      32.887  15.946   8.940  0.00  0.00     0.018 A 
HETATM   14  C   UNK N   1      32.036  16.231   7.877  0.00  0.00     0.043 A 
HETATM   15  C   UNK N   1      32.393  17.204   6.946  0.00  0.00     0.116 A 
HETATM   16  F   UNK N   1      31.578  17.461   5.898  0.00  0.00    -0.206 F 
HETATM   17  C   UNK N   1      33.596  17.904   7.092  0.00  0.00     0.043 A 
HETATM   18  C   UNK N   1      34.438  17.632   8.174  0.00  0.00     0.018 A 
ENDBRANCH  10  12
ENDBRANCH   9  10
ENDBRANCH   8   9
ENDBRANCH   7   8
ENDBRANCH   1   7
BRANCH   5  19
HETATM   19  N   UNK N   1      35.320  12.712  17.681  0.00  0.00    -0.266 N 
HETATM   20  C   UNK N   1      35.305  11.500  18.267  0.00  0.00     0.070 A 
HETATM   21  C   UNK N   1      35.225  11.653  19.621  0.00  0.00     0.063 A 
HETATM   22  C   UNK N   1      35.326  10.239  17.668  0.00  0.00     0.032 A 
HETATM   23  N   UNK N   1      35.201  12.962  19.943  0.00  0.00    -0.306 N 
HETATM   24  C   UNK N   1      35.157  10.560  20.479  0.00  0.00     0.032 A 
HETATM   25  C   UNK N   1      35.257  13.591  18.730  0.00  0.00     0.332 A 
HETATM   26  H   UNK N   1      35.152  13.369  20.838  0.00  0.00     0.171 HD
HETATM   27  O   UNK N   1      35.250  14.805  18.606  0.00  0.00    -0.246 OA
HETATM   28  C   UNK N   1      35.175   9.274  19.903  0.00  0.00     0.002 A 
HETATM   29  C   UNK N   1      35.261   9.114  18.501  0.00  0.00     0.002 A 
ENDBRANCH   5  19
TORSDOF 6
ENDMDL
MODEL 6
REMARK VINA RESULT:      -6.8     14.430     15.882
REMARK  6 active torsions:
REMARK  status: ('A' for Active; 'I' for Inactive)
REMARK    1  A    between atoms: N_4  and  C_11 
REMARK    2  A    between atoms: N_5  and  C_10 
REMARK    3  A    between atoms: C_11  and  C_13 
REMARK    4  A    between atoms: C_13  and  C_15 
REMARK    5  A    between atoms: C_15  and  C_19 
REMARK    6  A    between atoms: C_19  and  C_23 
ROOT
HETATM    1  N   UNK N   1      19.827  15.382   5.697  0.00  0.00     0.092 N 
HETATM    2  C   UNK N   1      20.214  15.892   7.029  0.00  0.00     0.279 C 
HETATM    3  C   UNK N   1      21.726  15.873   7.235  0.00  0.00     0.087 C 
HETATM    4  C   UNK N   1      20.688  14.348   5.085  0.00  0.00     0.301 C 
HETATM    5  C   UNK N   1      22.183  14.463   7.053  0.00  0.00     0.021 C 
HETATM    6  C   UNK N   1      21.679  13.756   6.034  0.00  0.00     0.029 C 
ENDROOT
BRANCH   1   7
HETATM    7  C   UNK N   1      19.655  16.486   4.760  0.00  0.00     0.273 C 
BRANCH   7   8
HETATM    8  C   UNK N   1      20.834  16.641   3.791  0.00  0.00     0.038 C 
BRANCH   8   9
HETATM    9  C   UNK N   1      20.833  17.966   3.035  0.00  0.00     0.085 C 
BRANCH   9  10
HETATM   10  C   UNK N   1      21.499  19.122   3.741  0.00  0.00     0.159 C 
HETATM   11  O   UNK N   1      20.812  19.830   4.462  0.00  0.00    -0.292 OA
BRANCH  10  12
HETATM   12  C   UNK N   1      22.961  19.371   3.649  0.00  0.00     0.010 A 
HETATM   13  C   UNK N   1      23.872  18.623   4.409  0.00  0.00     0.018 A 
HETATM   14  C   UNK N   1      25.241  18.857   4.323  0.00  0.00     0.043 A 
HETATM   15  C   UNK N   1      25.718  19.866   3.488  0.00  0.00     0.116 A 
HETATM   16  F   UNK N   1      27.046  20.111   3.424  0.00  0.00    -0.206 F 
HETATM   17  C   UNK N   1      24.823  20.625   2.726  0.00  0.00     0.043 A 
HETATM   18  C   UNK N   1      23.451  20.372   2.797  0.00  0.00     0.018 A 
ENDBRANCH  10  12
ENDBRANCH   9  10
ENDBRANCH   8   9
ENDBRANCH   7   8
ENDBRANCH   1   7
BRANCH   5  19
HETATM   19  N   UNK N   1      23.047  13.828   8.017  0.00  0.00    -0.266 N 
HETATM   20  C   UNK N   1      22.670  13.236   9.166  0.00  0.00     0.070 A 
HETATM   21  C   UNK N   1      23.777  12.798   9.833  0.00  0.00     0.063 A 
HETATM   22  C   UNK N   1      21.385  13.081   9.688  0.00  0.00     0.032 A 
HETATM   23  N   UNK N   1      24.891  13.084   9.128  0.00  0.00    -0.306 N 
HETATM   24  C   UNK N   1      23.686  12.176  11.073  0.00  0.00     0.032 A 
HETATM   25  C   UNK N   1      24.412  13.720   8.017  0.00  0.00     0.332 A 
HETATM   26  H   UNK N   1      25.827  12.883   9.359  0.00  0.00     0.171 HD
HETATM   27  O   UNK N   1      25.133  14.144   7.128  0.00  0.00    -0.246 OA
HETATM   28  C   UNK N   1      22.401  12.006  11.628  0.00  0.00     0.002 A 
HETATM   29  C   UNK N   1      21.254  12.456  10.936  0.00  0.00     0.002 A 
ENDBRANCH   5  19
TORSDOF 6
ENDMDL
MODEL 7
REMARK VINA RESULT:      -6.8     18.227     21.916
REMARK  6 active torsions:
REMARK  status: ('A' for Active; 'I' for Inactive)
REMARK    1  A    between atoms: N_4  and  C_11 
REMARK    2  A    between atoms: N_5  and  C_10 
REMARK    3  A    between atoms: C_11  and  C_13 
REMARK    4  A    between atoms: C_13  and  C_15 
REMARK    5  A    between atoms: C_15  and  C_19 
REMARK    6  A    between atoms: C_19  and  C_23 
ROOT
HETATM    1  N   UNK N   1      35.199  15.329  11.530  0.00  0.00     0.092 N 
HETATM    2  C   UNK N   1      34.460  14.378  10.673  0.00  0.00     0.279 C 
HETATM    3  C   UNK N   1      34.833  14.523   9.200  0.00  0.00     0.087 C 
HETATM    4  C   UNK N   1      35.572  16.632  10.942  0.00  0.00     0.301 C 
HETATM    5  C   UNK N   1      34.541  15.932   8.803  0.00  0.00     0.021 C 
HETATM    6  C   UNK N   1      34.894  16.916   9.641  0.00  0.00     0.029 C 
ENDROOT
BRANCH   1   7
HETATM    7  C   UNK N   1      36.387  14.693  12.089  0.00  0.00     0.273 C 
BRANCH   7   8
HETATM    8  C   UNK N   1      36.067  13.435  12.908  0.00  0.00     0.038 C 
BRANCH   8   9
HETATM    9  C   UNK N   1      35.664  13.731  14.349  0.00  0.00     0.085 C 
BRANCH   9  10
HETATM   10  C   UNK N   1      34.853  12.659  15.034  0.00  0.00     0.159 C 
HETATM   11  O   UNK N   1      34.077  12.003  14.355  0.00  0.00    -0.292 OA
BRANCH  10  12
HETATM   12  C   UNK N   1      35.027  12.330  16.472  0.00  0.00     0.010 A 
HETATM   13  C   UNK N   1      35.069  13.339  17.445  0.00  0.00     0.018 A 
HETATM   14  C   UNK N   1      35.232  13.030  18.792  0.00  0.00     0.043 A 
HETATM   15  C   UNK N   1      35.380  11.701  19.183  0.00  0.00     0.116 A 
HETATM   16  F   UNK N   1      35.565  11.403  20.489  0.00  0.00    -0.206 F 
HETATM   17  C   UNK N   1      35.346  10.682  18.226  0.00  0.00     0.043 A 
HETATM   18  C   UNK N   1      35.159  10.993  16.876  0.00  0.00     0.018 A 
ENDBRANCH  10  12
ENDBRANCH   9  10
ENDBRANCH   8   9
ENDBRANCH   7   8
ENDBRANCH   1   7
BRANCH   5  19
HETATM   19  N   UNK N   1      33.786  16.232   7.612  0.00  0.00    -0.266 N 
HETATM   20  C   UNK N   1      32.487  16.577   7.551  0.00  0.00     0.070 A 
HETATM   21  C   UNK N   1      32.120  16.729   6.245  0.00  0.00     0.063 A 
HETATM   22  C   UNK N   1      31.576  16.741   8.596  0.00  0.00     0.032 A 
HETATM   23  N   UNK N   1      33.173  16.499   5.435  0.00  0.00    -0.306 N 
HETATM   24  C   UNK N   1      30.817  17.052   5.883  0.00  0.00     0.032 A 
HETATM   25  C   UNK N   1      34.184  16.192   6.303  0.00  0.00     0.332 A 
HETATM   26  H   UNK N   1      33.206  16.541   4.451  0.00  0.00     0.171 HD
HETATM   27  O   UNK N   1      35.315  15.913   5.938  0.00  0.00    -0.246 OA
HETATM   28  C   UNK N   1      29.874  17.223   6.917  0.00  0.00     0.002 A 
HETATM   29  C   UNK N   1      30.253  17.069   8.270  0.00  0.00     0.002 A 
ENDBRANCH   5  19
TORSDOF 6
ENDMDL
MODEL 8
REMARK VINA RESULT:      -6.7     15.567     16.694
REMARK  6 active torsions:
REMARK  status: ('A' for Active; 'I' for Inactive)
REMARK    1  A    between atoms: N_4  and  C_11 
REMARK    2  A    between atoms: N_5  and  C_10 
REMARK    3  A    between atoms: C_11  and  C_13 
REMARK    4  A    between atoms: C_13  and  C_15 
REMARK    5  A    between atoms: C_15  and  C_19 
REMARK    6  A    between atoms: C_19  and  C_23 
ROOT
HETATM    1  N   UNK N   1      19.795  15.872   5.829  0.00  0.00     0.092 N 
HETATM    2  C   UNK N   1      19.827  16.413   7.204  0.00  0.00     0.279 C 
HETATM    3  C   UNK N   1      21.087  15.997   7.958  0.00  0.00     0.087 C 
HETATM    4  C   UNK N   1      20.455  14.571   5.592  0.00  0.00     0.301 C 
HETATM    5  C   UNK N   1      21.124  14.504   7.974  0.00  0.00     0.021 C 
HETATM    6  C   UNK N   1      20.818  13.846   6.848  0.00  0.00     0.029 C 
ENDROOT
BRANCH   1   7
HETATM    7  C   UNK N   1      20.310  16.855   4.883  0.00  0.00     0.273 C 
BRANCH   7   8
HETATM    8  C   UNK N   1      19.682  16.735   3.489  0.00  0.00     0.038 C 
BRANCH   8   9
HETATM    9  C   UNK N   1      20.585  17.238   2.367  0.00  0.00     0.085 C 
BRANCH   9  10
HETATM   10  C   UNK N   1      20.343  16.625   1.010  0.00  0.00     0.159 C 
HETATM   11  O   UNK N   1      20.330  17.366   0.038  0.00  0.00    -0.292 OA
BRANCH  10  12
HETATM   12  C   UNK N   1      20.201  15.160   0.815  0.00  0.00     0.010 A 
HETATM   13  C   UNK N   1      21.307  14.304   0.927  0.00  0.00     0.018 A 
HETATM   14  C   UNK N   1      21.173  12.931   0.745  0.00  0.00     0.043 A 
HETATM   15  C   UNK N   1      19.928  12.395   0.421  0.00  0.00     0.116 A 
HETATM   16  F   UNK N   1      19.804  11.064   0.217  0.00  0.00    -0.206 F 
HETATM   17  C   UNK N   1      18.815  13.234   0.300  0.00  0.00     0.043 A 
HETATM   18  C   UNK N   1      18.948  14.610   0.508  0.00  0.00     0.018 A 
ENDBRANCH  10  12
ENDBRANCH   9  10
ENDBRANCH   8   9
ENDBRANCH   7   8
ENDBRANCH   1   7
BRANCH   5  19
HETATM   19  N   UNK N   1      21.355  13.777   9.197  0.00  0.00    -0.266 N 
HETATM   20  C   UNK N   1      22.533  13.291   9.631  0.00  0.00     0.070 A 
HETATM   21  C   UNK N   1      22.340  12.618  10.803  0.00  0.00     0.063 A 
HETATM   22  C   UNK N   1      23.790  13.380   9.031  0.00  0.00     0.032 A 
HETATM   23  N   UNK N   1      21.040  12.663  11.159  0.00  0.00    -0.306 N 
HETATM   24  C   UNK N   1      23.385  11.979  11.461  0.00  0.00     0.032 A 
HETATM   25  C   UNK N   1      20.457  13.380  10.151  0.00  0.00     0.332 A 
HETATM   26  H   UNK N   1      20.612  12.271  11.954  0.00  0.00     0.171 HD
HETATM   27  O   UNK N   1      19.263  13.631  10.115  0.00  0.00    -0.246 OA
HETATM   28  C   UNK N   1      24.667  12.051  10.878  0.00  0.00     0.002 A 
HETATM   29  C   UNK N   1      24.869  12.751   9.667  0.00  0.00     0.002 A 
ENDBRANCH   5  19
TORSDOF 6
ENDMDL
MODEL 9
REMARK VINA RESULT:      -6.7     14.459     17.174
REMARK  6 active torsions:
REMARK  status: ('A' for Active; 'I' for Inactive)
REMARK    1  A    between atoms: N_4  and  C_11 
REMARK    2  A    between atoms: N_5  and  C_10 
REMARK    3  A    between atoms: C_11  and  C_13 
REMARK    4  A    between atoms: C_13  and  C_15 
REMARK    5  A    between atoms: C_15  and  C_19 
REMARK    6  A    between atoms: C_19  and  C_23 
ROOT
HETATM    1  N   UNK N   1      32.713  16.421   8.112  0.00  0.00     0.092 N 
HETATM    2  C   UNK N   1      32.900  14.963   8.265  0.00  0.00     0.279 C 
HETATM    3  C   UNK N   1      33.316  14.581   9.682  0.00  0.00     0.087 C 
HETATM    4  C   UNK N   1      33.550  17.307   8.947  0.00  0.00     0.301 C 
HETATM    5  C   UNK N   1      34.582  15.313   9.987  0.00  0.00     0.021 C 
HETATM    6  C   UNK N   1      34.676  16.600   9.628  0.00  0.00     0.029 C 
ENDROOT
BRANCH   1   7
HETATM    7  C   UNK N   1      31.309  16.775   8.286  0.00  0.00     0.273 C 
BRANCH   7   8
HETATM    8  C   UNK N   1      31.104  18.240   8.692  0.00  0.00     0.038 C 
BRANCH   8   9
HETATM    9  C   UNK N   1      29.809  18.486   9.460  0.00  0.00     0.085 C 
BRANCH   9  10
HETATM   10  C   UNK N   1      28.538  18.154   8.719  0.00  0.00     0.159 C 
HETATM   11  O   UNK N   1      27.695  17.480   9.293  0.00  0.00    -0.292 OA
BRANCH  10  12
HETATM   12  C   UNK N   1      28.251  18.682   7.360  0.00  0.00     0.010 A 
HETATM   13  C   UNK N   1      28.468  17.897   6.218  0.00  0.00     0.018 A 
HETATM   14  C   UNK N   1      28.199  18.392   4.946  0.00  0.00     0.043 A 
HETATM   15  C   UNK N   1      27.729  19.696   4.797  0.00  0.00     0.116 A 
HETATM   16  F   UNK N   1      27.494  20.186   3.558  0.00  0.00    -0.206 F 
HETATM   17  C   UNK N   1      27.512  20.495   5.924  0.00  0.00     0.043 A 
HETATM   18  C   UNK N   1      27.760  19.986   7.202  0.00  0.00     0.018 A 
ENDBRANCH  10  12
ENDBRANCH   9  10
ENDBRANCH   8   9
ENDBRANCH   7   8
ENDBRANCH   1   7
BRANCH   5  19
HETATM   19  N   UNK N   1      35.726  14.629  10.536  0.00  0.00    -0.266 N 
HETATM   20  C   UNK N   1      36.743  14.083   9.844  0.00  0.00     0.070 A 
HETATM   21  C   UNK N   1      37.608  13.481  10.712  0.00  0.00     0.063 A 
HETATM   22  C   UNK N   1      36.946  14.055   8.464  0.00  0.00     0.032 A 
HETATM   23  N   UNK N   1      37.178  13.634  11.981  0.00  0.00    -0.306 N 
HETATM   24  C   UNK N   1      38.738  12.802  10.268  0.00  0.00     0.032 A 
HETATM   25  C   UNK N   1      36.017  14.341  11.843  0.00  0.00     0.332 A 
HETATM   26  H   UNK N   1      37.600  13.311  12.810  0.00  0.00     0.171 HD
HETATM   27  O   UNK N   1      35.321  14.674  12.789  0.00  0.00    -0.246 OA
HETATM   28  C   UNK N   1      38.969  12.757   8.877  0.00  0.00     0.002 A 
HETATM   29  C   UNK N   1      38.076  13.383   7.978  0.00  0.00     0.002 A 
ENDBRANCH   5  19
TORSDOF 6
ENDMDL
