MODEL 1
REMARK VINA RESULT:      -6.3      0.000      0.000
REMARK  8 active torsions:
REMARK  status: ('A' for Active; 'I' for Inactive)
REMARK    1  A    between atoms: O_5  and  C_15 
REMARK    2  A    between atoms: O_5  and  C_19 
REMARK    3  A    between atoms: O_6  and  C_18 
REMARK    4  A    between atoms: O_8  and  C_24 
REMARK    5  A    between atoms: C_11  and  N_9 
REMARK    6  A    between atoms: C_10  and  C_11 
REMARK    7  A    between atoms: C_10  and  C_12 
REMARK    8  A    between atoms: C_11  and  C_18 
ROOT
HETATM    1  I   UNK N   1      25.039  14.954   4.361  0.00  0.00    -0.042 I 
HETATM    2  I   UNK N   1      20.052  16.234   8.022  0.00  0.00    -0.042 I 
HETATM    3  C   UNK N   1      23.392  13.447   8.010  0.00  0.00    -0.053 A 
HETATM    4  C   UNK N   1      22.244  14.167   8.320  0.00  0.00     0.028 A 
HETATM    5  C   UNK N   1      24.084  13.730   6.841  0.00  0.00     0.028 A 
HETATM    6  C   UNK N   1      22.468  15.469   6.256  0.00  0.00     0.109 A 
HETATM    7  C   UNK N   1      23.660  14.723   5.952  0.00  0.00     0.042 A 
HETATM    8  C   UNK N   1      21.785  15.160   7.455  0.00  0.00     0.042 A 
ENDROOT
BRANCH   6   9
HETATM    9  O   UNK N   1      21.943  16.504   5.533  0.00  0.00    -0.308 OA
BRANCH   9  10
HETATM   10  C   UNK N   1      21.402  16.726   4.306  0.00  0.00     0.078 A 
HETATM   11  C   UNK N   1      21.372  18.046   3.842  0.00  0.00     0.058 A 
HETATM   12  C   UNK N   1      20.840  18.355   2.588  0.00  0.00     0.043 A 
HETATM   13  I   UNK N   1      20.834  20.366   1.945  0.00  0.00    -0.042 I 
HETATM   14  C   UNK N   1      20.328  17.334   1.778  0.00  0.00     0.098 A 
HETATM   15  C   UNK N   1      20.331  16.013   2.245  0.00  0.00     0.043 A 
HETATM   16  I   UNK N   1      19.589  14.437   1.052  0.00  0.00    -0.042 I 
HETATM   17  C   UNK N   1      20.850  15.721   3.512  0.00  0.00     0.058 A 
BRANCH  14  18
HETATM   18  O   UNK N   1      19.835  17.620   0.559  0.00  0.00    -0.358 OA
HETATM   19  H   UNK N   1      18.978  17.988   0.474  0.00  0.00     0.217 HD
ENDBRANCH  14  18
ENDBRANCH   9  10
ENDBRANCH   6   9
BRANCH   3  20
HETATM   20  C   UNK N   1      23.951  12.427   8.949  0.00  0.00     0.074 C 
BRANCH  20  21
HETATM   21  C   UNK N   1      24.138  12.958  10.361  0.00  0.00     0.177 C 
BRANCH  21  22
HETATM   22  N   UNK N   1      25.554  13.193  10.604  0.00  0.00    -0.417 N 
HETATM   23  H   UNK N   1      26.228  12.438  10.480  0.00  0.00     0.150 HD
HETATM   24  H   UNK N   1      25.872  14.116  10.901  0.00  0.00     0.150 HD
ENDBRANCH  21  22
BRANCH  21  25
HETATM   25  C   UNK N   1      23.587  11.961  11.341  0.00  0.00     0.163 C 
HETATM   26  O   UNK N   1      23.985  11.963  12.495  0.00  0.00    -0.648 OA
BRANCH  25  27
HETATM   27  O   UNK N   1      22.662  11.058  10.958  0.00  0.00    -0.775 OA
HETATM   28  H   UNK N   1      22.896  10.367  10.371  0.00  0.00     0.167 HD
ENDBRANCH  25  27
ENDBRANCH  21  25
ENDBRANCH  20  21
ENDBRANCH   3  20
TORSDOF 8
ENDMDL
MODEL 2
REMARK VINA RESULT:      -6.3      0.167      2.030
REMARK  8 active torsions:
REMARK  status: ('A' for Active; 'I' for Inactive)
REMARK    1  A    between atoms: O_5  and  C_15 
REMARK    2  A    between atoms: O_5  and  C_19 
REMARK    3  A    between atoms: O_6  and  C_18 
REMARK    4  A    between atoms: O_8  and  C_24 
REMARK    5  A    between atoms: C_11  and  N_9 
REMARK    6  A    between atoms: C_10  and  C_11 
REMARK    7  A    between atoms: C_10  and  C_12 
REMARK    8  A    between atoms: C_11  and  C_18 
ROOT
HETATM    1  I   UNK N   1      24.864  15.168   4.370  0.00  0.00    -0.042 I 
HETATM    2  I   UNK N   1      19.965  16.312   8.191  0.00  0.00    -0.042 I 
HETATM    3  C   UNK N   1      23.315  13.542   8.011  0.00  0.00    -0.053 A 
HETATM    4  C   UNK N   1      22.172  14.247   8.371  0.00  0.00     0.028 A 
HETATM    5  C   UNK N   1      23.976  13.864   6.834  0.00  0.00     0.028 A 
HETATM    6  C   UNK N   1      22.340  15.612   6.343  0.00  0.00     0.109 A 
HETATM    7  C   UNK N   1      23.526  14.881   5.987  0.00  0.00     0.042 A 
HETATM    8  C   UNK N   1      21.687  15.264   7.549  0.00  0.00     0.042 A 
ENDROOT
BRANCH   6   9
HETATM    9  O   UNK N   1      21.792  16.667   5.666  0.00  0.00    -0.308 OA
BRANCH   9  10
HETATM   10  C   UNK N   1      21.347  16.961   4.416  0.00  0.00     0.078 A 
HETATM   11  C   UNK N   1      20.877  15.902   3.631  0.00  0.00     0.058 A 
HETATM   12  C   UNK N   1      20.396  16.124   2.339  0.00  0.00     0.043 A 
HETATM   13  I   UNK N   1      19.694  14.482   1.212  0.00  0.00    -0.042 I 
HETATM   14  C   UNK N   1      20.379  17.422   1.815  0.00  0.00     0.098 A 
HETATM   15  C   UNK N   1      20.870  18.486   2.585  0.00  0.00     0.043 A 
HETATM   16  I   UNK N   1      20.846  20.463   1.846  0.00  0.00    -0.042 I 
HETATM   17  C   UNK N   1      21.368  18.245   3.871  0.00  0.00     0.058 A 
BRANCH  14  18
HETATM   18  O   UNK N   1      19.895  17.648   0.580  0.00  0.00    -0.358 OA
HETATM   19  H   UNK N   1      19.198  18.261   0.454  0.00  0.00     0.217 HD
ENDBRANCH  14  18
ENDBRANCH   9  10
ENDBRANCH   6   9
BRANCH   3  20
HETATM   20  C   UNK N   1      23.900  12.497   8.903  0.00  0.00     0.074 C 
BRANCH  20  21
HETATM   21  C   UNK N   1      24.125  12.986  10.326  0.00  0.00     0.177 C 
BRANCH  21  22
HETATM   22  N   UNK N   1      25.548  13.200  10.542  0.00  0.00    -0.417 N 
HETATM   23  H   UNK N   1      26.211  12.443  10.382  0.00  0.00     0.150 HD
HETATM   24  H   UNK N   1      25.883  14.111  10.857  0.00  0.00     0.150 HD
ENDBRANCH  21  22
BRANCH  21  25
HETATM   25  C   UNK N   1      23.586  11.968  11.289  0.00  0.00     0.163 C 
HETATM   26  O   UNK N   1      24.010  11.933  12.433  0.00  0.00    -0.648 OA
BRANCH  25  27
HETATM   27  O   UNK N   1      22.643  11.085  10.903  0.00  0.00    -0.775 OA
HETATM   28  H   UNK N   1      22.856  10.409  10.292  0.00  0.00     0.167 HD
ENDBRANCH  25  27
ENDBRANCH  21  25
ENDBRANCH  20  21
ENDBRANCH   3  20
TORSDOF 8
ENDMDL
MODEL 3
REMARK VINA RESULT:      -6.3      5.508      9.411
REMARK  8 active torsions:
REMARK  status: ('A' for Active; 'I' for Inactive)
REMARK    1  A    between atoms: O_5  and  C_15 
REMARK    2  A    between atoms: O_5  and  C_19 
REMARK    3  A    between atoms: O_6  and  C_18 
REMARK    4  A    between atoms: O_8  and  C_24 
REMARK    5  A    between atoms: C_11  and  N_9 
REMARK    6  A    between atoms: C_10  and  C_11 
REMARK    7  A    between atoms: C_10  and  C_12 
REMARK    8  A    between atoms: C_11  and  C_18 
ROOT
HETATM    1  I   UNK N   1      26.560  20.304   3.752  0.00  0.00    -0.042 I 
HETATM    2  I   UNK N   1      24.101  14.556   4.656  0.00  0.00    -0.042 I 
HETATM    3  C   UNK N   1      22.660  18.547   3.699  0.00  0.00    -0.053 A 
HETATM    4  C   UNK N   1      22.771  17.190   3.982  0.00  0.00     0.028 A 
HETATM    5  C   UNK N   1      23.798  19.342   3.699  0.00  0.00     0.028 A 
HETATM    6  C   UNK N   1      25.192  17.422   4.285  0.00  0.00     0.109 A 
HETATM    7  C   UNK N   1      25.064  18.822   3.981  0.00  0.00     0.042 A 
HETATM    8  C   UNK N   1      24.016  16.635   4.276  0.00  0.00     0.042 A 
ENDROOT
BRANCH   6   9
HETATM    9  O   UNK N   1      26.351  16.738   4.529  0.00  0.00    -0.308 OA
BRANCH   9  10
HETATM   10  C   UNK N   1      27.517  16.908   5.207  0.00  0.00     0.078 A 
HETATM   11  C   UNK N   1      28.708  16.807   4.479  0.00  0.00     0.058 A 
HETATM   12  C   UNK N   1      29.947  16.976   5.102  0.00  0.00     0.043 A 
HETATM   13  I   UNK N   1      31.705  16.819   3.944  0.00  0.00    -0.042 I 
HETATM   14  C   UNK N   1      30.005  17.252   6.474  0.00  0.00     0.098 A 
HETATM   15  C   UNK N   1      28.818  17.330   7.215  0.00  0.00     0.043 A 
HETATM   16  I   UNK N   1      28.854  17.764   9.281  0.00  0.00    -0.042 I 
HETATM   17  C   UNK N   1      27.585  17.139   6.580  0.00  0.00     0.058 A 
BRANCH  14  18
HETATM   18  O   UNK N   1      31.193  17.440   7.077  0.00  0.00    -0.358 OA
HETATM   19  H   UNK N   1      31.852  17.960   6.662  0.00  0.00     0.217 HD
ENDBRANCH  14  18
ENDBRANCH   9  10
ENDBRANCH   6   9
BRANCH   3  20
HETATM   20  C   UNK N   1      21.354  19.158   3.310  0.00  0.00     0.074 C 
BRANCH  20  21
HETATM   21  C   UNK N   1      21.495  20.249   2.260  0.00  0.00     0.177 C 
BRANCH  21  22
HETATM   22  N   UNK N   1      20.861  21.467   2.741  0.00  0.00    -0.417 N 
HETATM   23  H   UNK N   1      20.183  21.427   3.501  0.00  0.00     0.150 HD
HETATM   24  H   UNK N   1      21.095  22.364   2.315  0.00  0.00     0.150 HD
ENDBRANCH  21  22
BRANCH  21  25
HETATM   25  C   UNK N   1      20.861  19.787   0.979  0.00  0.00     0.163 C 
HETATM   26  O   UNK N   1      20.586  18.607   0.831  0.00  0.00    -0.648 OA
BRANCH  25  27
HETATM   27  O   UNK N   1      20.599  20.660  -0.014  0.00  0.00    -0.775 OA
HETATM   28  H   UNK N   1      20.290  20.349  -0.842  0.00  0.00     0.167 HD
ENDBRANCH  25  27
ENDBRANCH  21  25
ENDBRANCH  20  21
ENDBRANCH   3  20
TORSDOF 8
ENDMDL
MODEL 4
REMARK VINA RESULT:      -6.2      8.376      9.489
REMARK  8 active torsions:
REMARK  status: ('A' for Active; 'I' for Inactive)
REMARK    1  A    between atoms: O_5  and  C_15 
REMARK    2  A    between atoms: O_5  and  C_19 
REMARK    3  A    between atoms: O_6  and  C_18 
REMARK    4  A    between atoms: O_8  and  C_24 
REMARK    5  A    between atoms: C_11  and  N_9 
REMARK    6  A    between atoms: C_10  and  C_11 
REMARK    7  A    between atoms: C_10  and  C_12 
REMARK    8  A    between atoms: C_11  and  C_18 
ROOT
HETATM    1  I   UNK N   1      29.253  17.544   8.988  0.00  0.00    -0.042 I 
HETATM    2  I   UNK N   1      32.390  16.837   3.551  0.00  0.00    -0.042 I 
HETATM    3  C   UNK N   1      33.345  17.516   7.740  0.00  0.00    -0.053 A 
HETATM    4  C   UNK N   1      33.398  17.305   6.367  0.00  0.00     0.028 A 
HETATM    5  C   UNK N   1      32.112  17.605   8.372  0.00  0.00     0.028 A 
HETATM    6  C   UNK N   1      30.950  17.284   6.246  0.00  0.00     0.109 A 
HETATM    7  C   UNK N   1      30.910  17.493   7.669  0.00  0.00     0.042 A 
HETATM    8  C   UNK N   1      32.219  17.196   5.629  0.00  0.00     0.042 A 
ENDROOT
BRANCH   6   9
HETATM    9  O   UNK N   1      29.881  17.099   5.414  0.00  0.00    -0.308 OA
BRANCH   9  10
HETATM   10  C   UNK N   1      28.608  17.551   5.266  0.00  0.00     0.078 A 
HETATM   11  C   UNK N   1      28.334  18.859   5.685  0.00  0.00     0.058 A 
HETATM   12  C   UNK N   1      27.052  19.400   5.559  0.00  0.00     0.043 A 
HETATM   13  I   UNK N   1      26.710  21.382   6.202  0.00  0.00    -0.042 I 
HETATM   14  C   UNK N   1      26.022  18.629   5.006  0.00  0.00     0.098 A 
HETATM   15  C   UNK N   1      26.282  17.311   4.607  0.00  0.00     0.043 A 
HETATM   16  I   UNK N   1      24.766  16.118   3.749  0.00  0.00    -0.042 I 
HETATM   17  C   UNK N   1      27.566  16.776   4.757  0.00  0.00     0.058 A 
BRANCH  14  18
HETATM   18  O   UNK N   1      24.791  19.151   4.859  0.00  0.00    -0.358 OA
HETATM   19  H   UNK N   1      24.037  18.597   4.908  0.00  0.00     0.217 HD
ENDBRANCH  14  18
ENDBRANCH   9  10
ENDBRANCH   6   9
BRANCH   3  20
HETATM   20  C   UNK N   1      34.586  17.566   8.570  0.00  0.00     0.074 C 
BRANCH  20  21
HETATM   21  C   UNK N   1      34.584  16.556   9.707  0.00  0.00     0.177 C 
BRANCH  21  22
HETATM   22  N   UNK N   1      35.193  17.154  10.885  0.00  0.00    -0.417 N 
HETATM   23  H   UNK N   1      34.718  17.909  11.381  0.00  0.00     0.150 HD
HETATM   24  H   UNK N   1      36.097  16.818  11.216  0.00  0.00     0.150 HD
ENDBRANCH  21  22
BRANCH  21  25
HETATM   25  C   UNK N   1      35.338  15.330   9.280  0.00  0.00     0.163 C 
HETATM   26  O   UNK N   1      36.436  15.096   9.761  0.00  0.00    -0.648 OA
BRANCH  25  27
HETATM   27  O   UNK N   1      34.821  14.486   8.365  0.00  0.00    -0.775 OA
HETATM   28  H   UNK N   1      33.940  14.599   8.067  0.00  0.00     0.167 HD
ENDBRANCH  25  27
ENDBRANCH  21  25
ENDBRANCH  20  21
ENDBRANCH   3  20
TORSDOF 8
ENDMDL
MODEL 5
REMARK VINA RESULT:      -6.2      8.463      9.920
REMARK  8 active torsions:
REMARK  status: ('A' for Active; 'I' for Inactive)
REMARK    1  A    between atoms: O_5  and  C_15 
REMARK    2  A    between atoms: O_5  and  C_19 
REMARK    3  A    between atoms: O_6  and  C_18 
REMARK    4  A    between atoms: O_8  and  C_24 
REMARK    5  A    between atoms: C_11  and  N_9 
REMARK    6  A    between atoms: C_10  and  C_11 
REMARK    7  A    between atoms: C_10  and  C_12 
REMARK    8  A    between atoms: C_11  and  C_18 
ROOT
HETATM    1  I   UNK N   1      29.445  18.273   8.849  0.00  0.00    -0.042 I 
HETATM    2  I   UNK N   1      32.943  16.053   4.081  0.00  0.00    -0.042 I 
HETATM    3  C   UNK N   1      33.508  17.067   8.274  0.00  0.00    -0.053 A 
HETATM    4  C   UNK N   1      33.676  16.656   6.956  0.00  0.00     0.028 A 
HETATM    5  C   UNK N   1      32.273  17.544   8.690  0.00  0.00     0.028 A 
HETATM    6  C   UNK N   1      31.344  17.218   6.453  0.00  0.00     0.109 A 
HETATM    7  C   UNK N   1      31.182  17.631   7.821  0.00  0.00     0.042 A 
HETATM    8  C   UNK N   1      32.613  16.735   6.057  0.00  0.00     0.042 A 
ENDROOT
BRANCH   6   9
HETATM    9  O   UNK N   1      30.377  17.184   5.487  0.00  0.00    -0.308 OA
BRANCH   9  10
HETATM   10  C   UNK N   1      29.029  17.322   5.382  0.00  0.00     0.078 A 
HETATM   11  C   UNK N   1      28.231  16.309   5.926  0.00  0.00     0.058 A 
HETATM   12  C   UNK N   1      26.838  16.381   5.865  0.00  0.00     0.043 A 
HETATM   13  I   UNK N   1      25.694  14.822   6.713  0.00  0.00    -0.042 I 
HETATM   14  C   UNK N   1      26.223  17.481   5.254  0.00  0.00     0.098 A 
HETATM   15  C   UNK N   1      27.014  18.488   4.685  0.00  0.00     0.043 A 
HETATM   16  I   UNK N   1      26.133  20.175   3.772  0.00  0.00    -0.042 I 
HETATM   17  C   UNK N   1      28.410  18.392   4.736  0.00  0.00     0.058 A 
BRANCH  14  18
HETATM   18  O   UNK N   1      24.881  17.570   5.212  0.00  0.00    -0.358 OA
HETATM   19  H   UNK N   1      24.359  16.792   5.222  0.00  0.00     0.217 HD
ENDBRANCH  14  18
ENDBRANCH   9  10
ENDBRANCH   6   9
BRANCH   3  20
HETATM   20  C   UNK N   1      34.604  16.929   9.279  0.00  0.00     0.074 C 
BRANCH  20  21
HETATM   21  C   UNK N   1      34.766  15.507   9.793  0.00  0.00     0.177 C 
BRANCH  21  22
HETATM   22  N   UNK N   1      33.924  15.318  10.964  0.00  0.00    -0.417 N 
HETATM   23  H   UNK N   1      34.026  14.482  11.540  0.00  0.00     0.150 HD
HETATM   24  H   UNK N   1      33.230  16.023  11.210  0.00  0.00     0.150 HD
ENDBRANCH  21  22
BRANCH  21  25
HETATM   25  C   UNK N   1      36.210  15.263  10.128  0.00  0.00     0.163 C 
HETATM   26  O   UNK N   1      36.753  14.237   9.752  0.00  0.00    -0.648 OA
BRANCH  25  27
HETATM   27  O   UNK N   1      36.912  16.163  10.845  0.00  0.00    -0.775 OA
HETATM   28  H   UNK N   1      37.014  16.049  11.769  0.00  0.00     0.167 HD
ENDBRANCH  25  27
ENDBRANCH  21  25
ENDBRANCH  20  21
ENDBRANCH   3  20
TORSDOF 8
ENDMDL
MODEL 6
REMARK VINA RESULT:      -6.1      2.043      2.853
REMARK  8 active torsions:
REMARK  status: ('A' for Active; 'I' for Inactive)
REMARK    1  A    between atoms: O_5  and  C_15 
REMARK    2  A    between atoms: O_5  and  C_19 
REMARK    3  A    between atoms: O_6  and  C_18 
REMARK    4  A    between atoms: O_8  and  C_24 
REMARK    5  A    between atoms: C_11  and  N_9 
REMARK    6  A    between atoms: C_10  and  C_11 
REMARK    7  A    between atoms: C_10  and  C_12 
REMARK    8  A    between atoms: C_11  and  C_18 
ROOT
HETATM    1  I   UNK N   1      25.540  14.104   3.702  0.00  0.00    -0.042 I 
HETATM    2  I   UNK N   1      20.708  16.233   7.171  0.00  0.00    -0.042 I 
HETATM    3  C   UNK N   1      23.928  13.338   7.591  0.00  0.00    -0.053 A 
HETATM    4  C   UNK N   1      22.819  14.153   7.789  0.00  0.00     0.028 A 
HETATM    5  C   UNK N   1      24.600  13.380   6.377  0.00  0.00     0.028 A 
HETATM    6  C   UNK N   1      23.043  15.060   5.524  0.00  0.00     0.109 A 
HETATM    7  C   UNK N   1      24.194  14.219   5.335  0.00  0.00     0.042 A 
HETATM    8  C   UNK N   1      22.379  14.998   6.771  0.00  0.00     0.042 A 
ENDROOT
BRANCH   6   9
HETATM    9  O   UNK N   1      22.542  15.975   4.639  0.00  0.00    -0.308 OA
BRANCH   9  10
HETATM   10  C   UNK N   1      22.792  17.246   4.229  0.00  0.00     0.078 A 
HETATM   11  C   UNK N   1      24.056  17.779   4.507  0.00  0.00     0.058 A 
HETATM   12  C   UNK N   1      24.392  19.076   4.113  0.00  0.00     0.043 A 
HETATM   13  I   UNK N   1      26.320  19.814   4.557  0.00  0.00    -0.042 I 
HETATM   14  C   UNK N   1      23.456  19.860   3.427  0.00  0.00     0.098 A 
HETATM   15  C   UNK N   1      22.180  19.344   3.166  0.00  0.00     0.043 A 
HETATM   16  I   UNK N   1      20.743  20.481   2.118  0.00  0.00    -0.042 I 
HETATM   17  C   UNK N   1      21.851  18.049   3.585  0.00  0.00     0.058 A 
BRANCH  14  18
HETATM   18  O   UNK N   1      23.781  21.101   3.023  0.00  0.00    -0.358 OA
HETATM   19  H   UNK N   1      23.705  21.335   2.119  0.00  0.00     0.217 HD
ENDBRANCH  14  18
ENDBRANCH   9  10
ENDBRANCH   6   9
BRANCH   3  20
HETATM   20  C   UNK N   1      24.469  12.476   8.684  0.00  0.00     0.074 C 
BRANCH  20  21
HETATM   21  C   UNK N   1      24.299  13.089  10.065  0.00  0.00     0.177 C 
BRANCH  21  22
HETATM   22  N   UNK N   1      25.609  13.363  10.636  0.00  0.00    -0.417 N 
HETATM   23  H   UNK N   1      25.699  13.990  11.435  0.00  0.00     0.150 HD
HETATM   24  H   UNK N   1      26.439  12.927  10.236  0.00  0.00     0.150 HD
ENDBRANCH  21  22
BRANCH  21  25
HETATM   25  C   UNK N   1      23.525  12.140  10.935  0.00  0.00     0.163 C 
HETATM   26  O   UNK N   1      22.821  11.285  10.421  0.00  0.00    -0.648 OA
BRANCH  25  27
HETATM   27  O   UNK N   1      23.592  12.226  12.279  0.00  0.00    -0.775 OA
HETATM   28  H   UNK N   1      24.414  12.119  12.715  0.00  0.00     0.167 HD
ENDBRANCH  25  27
ENDBRANCH  21  25
ENDBRANCH  20  21
ENDBRANCH   3  20
TORSDOF 8
ENDMDL
MODEL 7
REMARK VINA RESULT:      -6.0      5.312      8.808
REMARK  8 active torsions:
REMARK  status: ('A' for Active; 'I' for Inactive)
REMARK    1  A    between atoms: O_5  and  C_15 
REMARK    2  A    between atoms: O_5  and  C_19 
REMARK    3  A    between atoms: O_6  and  C_18 
REMARK    4  A    between atoms: O_8  and  C_24 
REMARK    5  A    between atoms: C_11  and  N_9 
REMARK    6  A    between atoms: C_10  and  C_11 
REMARK    7  A    between atoms: C_10  and  C_12 
REMARK    8  A    between atoms: C_11  and  C_18 
ROOT
HETATM    1  I   UNK N   1      26.296  20.096   3.688  0.00  0.00    -0.042 I 
HETATM    2  I   UNK N   1      24.923  14.351   5.926  0.00  0.00    -0.042 I 
HETATM    3  C   UNK N   1      22.791  18.029   5.008  0.00  0.00    -0.053 A 
HETATM    4  C   UNK N   1      23.143  16.741   5.394  0.00  0.00     0.028 A 
HETATM    5  C   UNK N   1      23.775  18.908   4.577  0.00  0.00     0.028 A 
HETATM    6  C   UNK N   1      25.502  17.215   4.926  0.00  0.00     0.109 A 
HETATM    7  C   UNK N   1      25.122  18.542   4.521  0.00  0.00     0.042 A 
HETATM    8  C   UNK N   1      24.479  16.340   5.359  0.00  0.00     0.042 A 
ENDROOT
BRANCH   6   9
HETATM    9  O   UNK N   1      26.757  16.672   4.884  0.00  0.00    -0.308 OA
BRANCH   9  10
HETATM   10  C   UNK N   1      27.983  16.886   5.429  0.00  0.00     0.078 A 
HETATM   11  C   UNK N   1      28.042  17.174   6.797  0.00  0.00     0.058 A 
HETATM   12  C   UNK N   1      29.265  17.398   7.433  0.00  0.00     0.043 A 
HETATM   13  I   UNK N   1      29.283  17.818   9.502  0.00  0.00    -0.042 I 
HETATM   14  C   UNK N   1      30.455  17.335   6.696  0.00  0.00     0.098 A 
HETATM   15  C   UNK N   1      30.404  17.072   5.320  0.00  0.00     0.043 A 
HETATM   16  I   UNK N   1      32.171  16.946   4.173  0.00  0.00    -0.042 I 
HETATM   17  C   UNK N   1      29.169  16.869   4.694  0.00  0.00     0.058 A 
BRANCH  14  18
HETATM   18  O   UNK N   1      31.639  17.526   7.305  0.00  0.00    -0.358 OA
HETATM   19  H   UNK N   1      31.757  18.253   7.883  0.00  0.00     0.217 HD
ENDBRANCH  14  18
ENDBRANCH   9  10
ENDBRANCH   6   9
BRANCH   3  20
HETATM   20  C   UNK N   1      21.364  18.468   4.965  0.00  0.00     0.074 C 
BRANCH  20  21
HETATM   21  C   UNK N   1      20.887  18.809   3.562  0.00  0.00     0.177 C 
BRANCH  21  22
HETATM   22  N   UNK N   1      20.559  20.225   3.495  0.00  0.00    -0.417 N 
HETATM   23  H   UNK N   1      21.199  20.919   3.880  0.00  0.00     0.150 HD
HETATM   24  H   UNK N   1      19.685  20.525   3.062  0.00  0.00     0.150 HD
ENDBRANCH  21  22
BRANCH  21  25
HETATM   25  C   UNK N   1      19.689  17.967   3.228  0.00  0.00     0.163 C 
HETATM   26  O   UNK N   1      19.490  16.929   3.838  0.00  0.00    -0.648 OA
BRANCH  25  27
HETATM   27  O   UNK N   1      18.833  18.341   2.257  0.00  0.00    -0.775 OA
HETATM   28  H   UNK N   1      17.914  18.386   2.432  0.00  0.00     0.167 HD
ENDBRANCH  25  27
ENDBRANCH  21  25
ENDBRANCH  20  21
ENDBRANCH   3  20
TORSDOF 8
ENDMDL
MODEL 8
REMARK VINA RESULT:      -6.0      8.317      9.286
REMARK  8 active torsions:
REMARK  status: ('A' for Active; 'I' for Inactive)
REMARK    1  A    between atoms: O_5  and  C_15 
REMARK    2  A    between atoms: O_5  and  C_19 
REMARK    3  A    between atoms: O_6  and  C_18 
REMARK    4  A    between atoms: O_8  and  C_24 
REMARK    5  A    between atoms: C_11  and  N_9 
REMARK    6  A    between atoms: C_10  and  C_11 
REMARK    7  A    between atoms: C_10  and  C_12 
REMARK    8  A    between atoms: C_11  and  C_18 
ROOT
HETATM    1  I   UNK N   1      32.898  16.327   4.388  0.00  0.00    -0.042 I 
HETATM    2  I   UNK N   1      29.079  17.769   9.209  0.00  0.00    -0.042 I 
HETATM    3  C   UNK N   1      32.821  15.634   8.609  0.00  0.00    -0.053 A 
HETATM    4  C   UNK N   1      31.682  16.225   9.144  0.00  0.00     0.028 A 
HETATM    5  C   UNK N   1      33.044  15.692   7.241  0.00  0.00     0.028 A 
HETATM    6  C   UNK N   1      30.965  16.935   6.911  0.00  0.00     0.109 A 
HETATM    7  C   UNK N   1      32.152  16.327   6.371  0.00  0.00     0.042 A 
HETATM    8  C   UNK N   1      30.764  16.862   8.308  0.00  0.00     0.042 A 
ENDROOT
BRANCH   6   9
HETATM    9  O   UNK N   1      30.019  17.641   6.220  0.00  0.00    -0.308 OA
BRANCH   9  10
HETATM   10  C   UNK N   1      28.975  17.406   5.383  0.00  0.00     0.078 A 
HETATM   11  C   UNK N   1      28.198  18.503   4.993  0.00  0.00     0.058 A 
HETATM   12  C   UNK N   1      27.112  18.345   4.130  0.00  0.00     0.043 A 
HETATM   13  I   UNK N   1      25.989  20.045   3.576  0.00  0.00    -0.042 I 
HETATM   14  C   UNK N   1      26.791  17.073   3.641  0.00  0.00     0.098 A 
HETATM   15  C   UNK N   1      27.548  15.964   4.044  0.00  0.00     0.043 A 
HETATM   16  I   UNK N   1      27.114  14.030   3.317  0.00  0.00    -0.042 I 
HETATM   17  C   UNK N   1      28.621  16.136   4.926  0.00  0.00     0.058 A 
BRANCH  14  18
HETATM   18  O   UNK N   1      25.761  16.916   2.789  0.00  0.00    -0.358 OA
HETATM   19  H   UNK N   1      25.648  17.512   2.075  0.00  0.00     0.217 HD
ENDBRANCH  14  18
ENDBRANCH   9  10
ENDBRANCH   6   9
BRANCH   3  20
HETATM   20  C   UNK N   1      33.858  15.007   9.483  0.00  0.00     0.074 C 
BRANCH  20  21
HETATM   21  C   UNK N   1      35.265  15.504   9.188  0.00  0.00     0.177 C 
BRANCH  21  22
HETATM   22  N   UNK N   1      36.132  14.366   8.920  0.00  0.00    -0.417 N 
HETATM   23  H   UNK N   1      36.364  13.712   9.667  0.00  0.00     0.150 HD
HETATM   24  H   UNK N   1      36.508  14.223   7.983  0.00  0.00     0.150 HD
ENDBRANCH  21  22
BRANCH  21  25
HETATM   25  C   UNK N   1      35.767  16.293  10.363  0.00  0.00     0.163 C 
HETATM   26  O   UNK N   1      35.101  17.218  10.799  0.00  0.00    -0.648 OA
BRANCH  25  27
HETATM   27  O   UNK N   1      36.949  15.996  10.937  0.00  0.00    -0.775 OA
HETATM   28  H   UNK N   1      37.028  15.985  11.871  0.00  0.00     0.167 HD
ENDBRANCH  25  27
ENDBRANCH  21  25
ENDBRANCH  20  21
ENDBRANCH   3  20
TORSDOF 8
ENDMDL
MODEL 9
REMARK VINA RESULT:      -6.0      2.096      2.972
REMARK  8 active torsions:
REMARK  status: ('A' for Active; 'I' for Inactive)
REMARK    1  A    between atoms: O_5  and  C_15 
REMARK    2  A    between atoms: O_5  and  C_19 
REMARK    3  A    between atoms: O_6  and  C_18 
REMARK    4  A    between atoms: O_8  and  C_24 
REMARK    5  A    between atoms: C_11  and  N_9 
REMARK    6  A    between atoms: C_10  and  C_11 
REMARK    7  A    between atoms: C_10  and  C_12 
REMARK    8  A    between atoms: C_11  and  C_18 
ROOT
HETATM    1  I   UNK N   1      25.380  14.236   3.736  0.00  0.00    -0.042 I 
HETATM    2  I   UNK N   1      20.607  16.422   7.250  0.00  0.00    -0.042 I 
HETATM    3  C   UNK N   1      23.690  13.369   7.569  0.00  0.00    -0.053 A 
HETATM    4  C   UNK N   1      22.616  14.223   7.794  0.00  0.00     0.028 A 
HETATM    5  C   UNK N   1      24.377  13.435   6.365  0.00  0.00     0.028 A 
HETATM    6  C   UNK N   1      22.907  15.220   5.574  0.00  0.00     0.109 A 
HETATM    7  C   UNK N   1      24.021  14.337   5.359  0.00  0.00     0.042 A 
HETATM    8  C   UNK N   1      22.226  15.132   6.811  0.00  0.00     0.042 A 
ENDROOT
BRANCH   6   9
HETATM    9  O   UNK N   1      22.458  16.196   4.727  0.00  0.00    -0.308 OA
BRANCH   9  10
HETATM   10  C   UNK N   1      22.835  17.427   4.292  0.00  0.00     0.078 A 
HETATM   11  C   UNK N   1      21.900  18.168   3.561  0.00  0.00     0.058 A 
HETATM   12  C   UNK N   1      22.208  19.445   3.085  0.00  0.00     0.043 A 
HETATM   13  I   UNK N   1      20.748  20.512   1.996  0.00  0.00    -0.042 I 
HETATM   14  C   UNK N   1      23.469  19.998   3.341  0.00  0.00     0.098 A 
HETATM   15  C   UNK N   1      24.420  19.253   4.052  0.00  0.00     0.043 A 
HETATM   16  I   UNK N   1      26.326  20.053   4.480  0.00  0.00    -0.042 I 
HETATM   17  C   UNK N   1      24.103  17.967   4.505  0.00  0.00     0.058 A 
BRANCH  14  18
HETATM   18  O   UNK N   1      23.765  21.237   2.907  0.00  0.00    -0.358 OA
HETATM   19  H   UNK N   1      24.351  21.778   3.398  0.00  0.00     0.217 HD
ENDBRANCH  14  18
ENDBRANCH   9  10
ENDBRANCH   6   9
BRANCH   3  20
HETATM   20  C   UNK N   1      24.178  12.434   8.627  0.00  0.00     0.074 C 
BRANCH  20  21
HETATM   21  C   UNK N   1      23.943  12.955  10.037  0.00  0.00     0.177 C 
BRANCH  21  22
HETATM   22  N   UNK N   1      25.146  12.758  10.831  0.00  0.00    -0.417 N 
HETATM   23  H   UNK N   1      25.424  11.819  11.116  0.00  0.00     0.150 HD
HETATM   24  H   UNK N   1      25.712  13.561  11.104  0.00  0.00     0.150 HD
ENDBRANCH  21  22
BRANCH  21  25
HETATM   25  C   UNK N   1      22.777  12.228  10.644  0.00  0.00     0.163 C 
HETATM   26  O   UNK N   1      21.737  12.829  10.863  0.00  0.00    -0.648 OA
BRANCH  25  27
HETATM   27  O   UNK N   1      22.868  10.920  10.958  0.00  0.00    -0.775 OA
HETATM   28  H   UNK N   1      23.472  10.636  11.614  0.00  0.00     0.167 HD
ENDBRANCH  25  27
ENDBRANCH  21  25
ENDBRANCH  20  21
ENDBRANCH   3  20
TORSDOF 8
ENDMDL
