REMARK  22 active torsions:
REMARK  status: ('A' for Active; 'I' for Inactive)
REMARK    1  A    between atoms: C_20  and  O_1 
REMARK    2  A    between atoms: C_26  and  O_1 
REMARK    3  A    between atoms: C_21  and  O_2 
REMARK    4  A    between atoms: C_30  and  O_2 
REMARK    5  A    between atoms: C_27  and  O_4 
REMARK    6  A    between atoms: C_33  and  O_4 
REMARK    7  A    between atoms: C_23  and  O_5 
REMARK    8  A    between atoms: C_28  and  O_8 
REMARK    9  A    between atoms: C_32  and  O_9 
REMARK   10  A    between atoms: C_34  and  O_10 
REMARK   11  A    between atoms: C_37  and  O_11 
REMARK   12  A    between atoms: O_12  and  C_38 
REMARK   13  A    between atoms: C_39  and  O_13 
REMARK   14  A    between atoms: C_22  and  N_14 
REMARK   15  A    between atoms: C_24  and  N_15 
REMARK   16  A    between atoms: C_31  and  N_16 
REMARK   17  A    between atoms: C_36  and  N_17 
REMARK   18  A    between atoms: N_18  and  C_41 
REMARK   19  A    between atoms: N_19  and  C_42 
REMARK   20  A    between atoms: C_29  and  C_38 
REMARK   21  A    between atoms: C_35  and  C_41 
REMARK   22  A    between atoms: C_40  and  C_42 
ROOT
HETATM    1  C   UNK N   1       6.482  -1.750   0.789  0.00  0.00     0.186 C 
HETATM    2  C   UNK N   1       5.422  -2.693   1.392  0.00  0.00     0.178 C 
HETATM    3  C   UNK N   1       5.351  -4.119   0.805  0.00  0.00     0.107 C 
HETATM    4  C   UNK N   1       7.833  -2.481   0.859  0.00  0.00     0.172 C 
HETATM    5  C   UNK N   1       7.776  -3.860   0.187  0.00  0.00     0.107 C 
HETATM    6  C   UNK N   1       6.739  -4.753   0.872  0.00  0.00     0.054 C 
ENDROOT
BRANCH   1   7
HETATM    7  O   UNK N   1       6.130  -1.436  -0.541  0.00  0.00    -0.348 OA
BRANCH   7   8
HETATM    8  C   UNK N   1       6.869  -0.345  -1.074  0.00  0.00     0.292 C 
HETATM    9  O   UNK N   1       8.043  -0.783  -1.730  0.00  0.00    -0.348 OA
HETATM   10  C   UNK N   1       9.141  -0.204  -1.061  0.00  0.00     0.180 C 
HETATM   11  C   UNK N   1       8.612   0.572   0.136  0.00  0.00     0.189 C 
HETATM   12  C   UNK N   1       7.163   0.856  -0.173  0.00  0.00     0.205 C 
BRANCH  10  13
HETATM   13  C   UNK N   1      10.123  -1.298  -0.647  0.00  0.00     0.198 C 
BRANCH  13  14
HETATM   14  O   UNK N   1      11.088  -0.820   0.239  0.00  0.00    -0.398 OA
HETATM   15  H   UNK N   1      11.711  -1.235   0.856  0.00  0.00     0.209 HD
ENDBRANCH  13  14
ENDBRANCH  10  13
BRANCH  11  16
HETATM   16  O   UNK N   1       9.421   1.647   0.601  0.00  0.00    -0.348 OA
BRANCH  16  17
HETATM   17  C   UNK N   1       9.739   2.537  -0.459  0.00  0.00     0.285 C 
HETATM   18  O   UNK N   1      10.811   2.058  -1.255  0.00  0.00    -0.350 OA
HETATM   19  C   UNK N   1      11.955   1.912  -0.441  0.00  0.00     0.173 C 
HETATM   20  C   UNK N   1      12.481   3.283  -0.006  0.00  0.00     0.179 C 
HETATM   21  C   UNK N   1      11.376   3.962   0.809  0.00  0.00     0.176 C 
HETATM   22  C   UNK N   1      10.054   3.959   0.036  0.00  0.00     0.161 C 
BRANCH  19  23
HETATM   23  C   UNK N   1      13.009   1.102  -1.178  0.00  0.00     0.145 C 
BRANCH  23  24
HETATM   24  N   UNK N   1      14.039   0.668  -0.251  0.00  0.00    -0.428 N 
HETATM   25  H   UNK N   1      14.137  -0.111   0.400  0.00  0.00     0.150 HD
HETATM   26  H   UNK N   1      14.852   1.284  -0.251  0.00  0.00     0.150 HD
ENDBRANCH  23  24
ENDBRANCH  19  23
BRANCH  20  27
HETATM   27  O   UNK N   1      12.809   4.051  -1.129  0.00  0.00    -0.390 OA
HETATM   28  H   UNK N   1      13.384   4.120  -1.908  0.00  0.00     0.210 HD
ENDBRANCH  20  27
BRANCH  21  29
HETATM   29  O   UNK N   1      11.752   5.265   1.144  0.00  0.00    -0.391 OA
HETATM   30  H   UNK N   1      12.665   5.492   1.376  0.00  0.00     0.210 HD
ENDBRANCH  21  29
BRANCH  22  31
HETATM   31  N   UNK N   1       8.973   4.468   0.863  0.00  0.00    -0.420 N 
HETATM   32  H   UNK N   1       8.904   5.304   1.444  0.00  0.00     0.150 HD
HETATM   33  H   UNK N   1       8.135   3.887   0.863  0.00  0.00     0.150 HD
ENDBRANCH  22  31
ENDBRANCH  16  17
ENDBRANCH  11  16
BRANCH  12  34
HETATM   34  O   UNK N   1       7.040   2.012  -0.945  0.00  0.00    -0.388 OA
HETATM   35  H   UNK N   1       7.693   2.488  -1.481  0.00  0.00     0.210 HD
ENDBRANCH  12  34
ENDBRANCH   7   8
ENDBRANCH   1   7
BRANCH   2  36
HETATM   36  O   UNK N   1       4.238  -2.136   1.931  0.00  0.00    -0.349 OA
BRANCH  36  37
HETATM   37  C   UNK N   1       3.346  -1.645   0.952  0.00  0.00     0.285 C 
HETATM   38  O   UNK N   1       2.863  -2.575   0.020  0.00  0.00    -0.350 OA
HETATM   39  C   UNK N   1       1.521  -2.194  -0.177  0.00  0.00     0.173 C 
HETATM   40  C   UNK N   1       1.408  -0.825  -0.885  0.00  0.00     0.179 C 
HETATM   41  C   UNK N   1       2.771  -0.107  -0.903  0.00  0.00     0.176 C 
HETATM   42  C   UNK N   1       3.576  -0.235   0.402  0.00  0.00     0.161 C 
BRANCH  39  43
HETATM   43  C   UNK N   1       0.761  -3.259  -0.948  0.00  0.00     0.145 C 
BRANCH  43  44
HETATM   44  N   UNK N   1       0.783  -4.514  -0.218  0.00  0.00    -0.428 N 
HETATM   45  H   UNK N   1       0.028  -4.968   0.295  0.00  0.00     0.150 HD
HETATM   46  H   UNK N   1       1.676  -5.008  -0.218  0.00  0.00     0.150 HD
ENDBRANCH  43  44
ENDBRANCH  39  43
BRANCH  40  47
HETATM   47  O   UNK N   1       0.446  -0.057  -0.226  0.00  0.00    -0.390 OA
HETATM   48  H   UNK N   1       0.574   0.788   0.232  0.00  0.00     0.210 HD
ENDBRANCH  40  47
BRANCH  41  49
HETATM   49  O   UNK N   1       2.671   1.215  -1.343  0.00  0.00    -0.391 OA
HETATM   50  H   UNK N   1       3.431   1.734  -1.649  0.00  0.00     0.210 HD
ENDBRANCH  41  49
BRANCH  42  51
HETATM   51  N   UNK N   1       3.128   0.731   1.391  0.00  0.00    -0.420 N 
HETATM   52  H   UNK N   1       3.559   1.343   2.085  0.00  0.00     0.150 HD
HETATM   53  H   UNK N   1       2.112   0.822   1.391  0.00  0.00     0.150 HD
ENDBRANCH  42  51
ENDBRANCH  36  37
ENDBRANCH   2  36
BRANCH   4  54
HETATM   54  O   UNK N   1       8.248  -2.597   2.189  0.00  0.00    -0.391 OA
HETATM   55  H   UNK N   1       8.322  -2.886   3.112  0.00  0.00     0.210 HD
ENDBRANCH   4  54
BRANCH   3  56
HETATM   56  N   UNK N   1       4.908  -4.110  -0.580  0.00  0.00    -0.423 N 
HETATM   57  H   UNK N   1       4.758  -3.838  -1.552  0.00  0.00     0.150 HD
HETATM   58  H   UNK N   1       4.381  -4.984  -0.580  0.00  0.00     0.150 HD
ENDBRANCH   3  56
BRANCH   5  59
HETATM   59  N   UNK N   1       9.081  -4.496   0.230  0.00  0.00    -0.423 N 
HETATM   60  H   UNK N   1       9.152  -5.513   0.259  0.00  0.00     0.150 HD
HETATM   61  H   UNK N   1       9.926  -3.926   0.230  0.00  0.00     0.150 HD
ENDBRANCH   5  59
TORSDOF 22
