MODEL 1
REMARK VINA RESULT:      -6.8      0.000      0.000
REMARK  22 active torsions:
REMARK  status: ('A' for Active; 'I' for Inactive)
REMARK    1  A    between atoms: C_20  and  O_1 
REMARK    2  A    between atoms: C_26  and  O_1 
REMARK    3  A    between atoms: C_21  and  O_2 
REMARK    4  A    between atoms: C_30  and  O_2 
REMARK    5  A    between atoms: C_27  and  O_4 
REMARK    6  A    between atoms: C_33  and  O_4 
REMARK    7  A    between atoms: C_23  and  O_5 
REMARK    8  A    between atoms: C_28  and  O_8 
REMARK    9  A    between atoms: C_32  and  O_9 
REMARK   10  A    between atoms: C_34  and  O_10 
REMARK   11  A    between atoms: C_37  and  O_11 
REMARK   12  A    between atoms: O_12  and  C_38 
REMARK   13  A    between atoms: C_39  and  O_13 
REMARK   14  A    between atoms: C_22  and  N_14 
REMARK   15  A    between atoms: C_24  and  N_15 
REMARK   16  A    between atoms: C_31  and  N_16 
REMARK   17  A    between atoms: C_36  and  N_17 
REMARK   18  A    between atoms: N_18  and  C_41 
REMARK   19  A    between atoms: N_19  and  C_42 
REMARK   20  A    between atoms: C_29  and  C_38 
REMARK   21  A    between atoms: C_35  and  C_41 
REMARK   22  A    between atoms: C_40  and  C_42 
ROOT
HETATM    1  C   UNK N   1      35.523  14.788   6.003  0.00  0.00     0.186 C 
HETATM    2  C   UNK N   1      35.141  13.632   6.949  0.00  0.00     0.178 C 
HETATM    3  C   UNK N   1      35.069  12.223   6.324  0.00  0.00     0.107 C 
HETATM    4  C   UNK N   1      36.834  14.389   5.305  0.00  0.00     0.172 C 
HETATM    5  C   UNK N   1      36.721  13.027   4.605  0.00  0.00     0.107 C 
HETATM    6  C   UNK N   1      36.389  11.926   5.615  0.00  0.00     0.054 C 
ENDROOT
BRANCH   1   7
HETATM    7  O   UNK N   1      34.483  14.999   5.073  0.00  0.00    -0.348 OA
BRANCH   7   8
HETATM    8  C   UNK N   1      33.995  16.334   5.072  0.00  0.00     0.292 C 
HETATM    9  O   UNK N   1      34.676  17.139   6.014  0.00  0.00    -0.348 OA
HETATM   10  C   UNK N   1      33.721  17.604   6.941  0.00  0.00     0.180 C 
HETATM   11  C   UNK N   1      32.379  16.976   6.595  0.00  0.00     0.189 C 
HETATM   12  C   UNK N   1      32.484  16.566   5.147  0.00  0.00     0.205 C 
BRANCH  10  13
HETATM   13  C   UNK N   1      34.170  17.254   8.358  0.00  0.00     0.198 C 
BRANCH  13  14
HETATM   14  O   UNK N   1      33.094  17.202   9.245  0.00  0.00    -0.398 OA
HETATM   15  H   UNK N   1      32.142  17.044   9.151  0.00  0.00     0.209 HD
ENDBRANCH  13  14
ENDBRANCH  10  13
BRANCH  11  16
HETATM   16  O   UNK N   1      31.220  17.693   7.006  0.00  0.00    -0.348 OA
BRANCH  16  17
HETATM   17  C   UNK N   1      30.174  16.802   7.366  0.00  0.00     0.285 C 
HETATM   18  O   UNK N   1      29.389  16.421   6.248  0.00  0.00    -0.350 OA
HETATM   19  C   UNK N   1      28.811  17.576   5.680  0.00  0.00     0.173 C 
HETATM   20  C   UNK N   1      27.750  18.160   6.618  0.00  0.00     0.179 C 
HETATM   21  C   UNK N   1      28.453  18.548   7.922  0.00  0.00     0.176 C 
HETATM   22  C   UNK N   1      29.266  17.371   8.469  0.00  0.00     0.161 C 
BRANCH  19  23
HETATM   23  C   UNK N   1      28.243  17.245   4.309  0.00  0.00     0.145 C 
BRANCH  23  24
HETATM   24  N   UNK N   1      29.293  17.307   3.309  0.00  0.00    -0.428 N 
HETATM   25  H   UNK N   1      29.319  17.255   2.290  0.00  0.00     0.150 HD
HETATM   26  H   UNK N   1      30.219  17.432   3.719  0.00  0.00     0.150 HD
ENDBRANCH  23  24
ENDBRANCH  19  23
BRANCH  20  27
HETATM   27  O   UNK N   1      26.748  17.214   6.860  0.00  0.00    -0.390 OA
HETATM   28  H   UNK N   1      26.554  16.271   6.982  0.00  0.00     0.210 HD
ENDBRANCH  20  27
BRANCH  21  29
HETATM   29  O   UNK N   1      27.520  18.988   8.864  0.00  0.00    -0.391 OA
HETATM   30  H   UNK N   1      27.351  19.929   9.018  0.00  0.00     0.210 HD
ENDBRANCH  21  29
BRANCH  22  31
HETATM   31  N   UNK N   1      30.050  17.779   9.623  0.00  0.00    -0.420 N 
HETATM   32  H   UNK N   1      30.928  17.424  10.002  0.00  0.00     0.150 HD
HETATM   33  H   UNK N   1      29.651  18.557  10.147  0.00  0.00     0.150 HD
ENDBRANCH  22  31
ENDBRANCH  16  17
ENDBRANCH  11  16
BRANCH  12  34
HETATM   34  O   UNK N   1      32.172  17.636   4.307  0.00  0.00    -0.388 OA
HETATM   35  H   UNK N   1      31.402  17.790   3.738  0.00  0.00     0.210 HD
ENDBRANCH  12  34
ENDBRANCH   7   8
ENDBRANCH   1   7
BRANCH   2  36
HETATM   36  O   UNK N   1      34.317  13.907   8.067  0.00  0.00    -0.349 OA
BRANCH  36  37
HETATM   37  C   UNK N   1      35.004  13.863   9.300  0.00  0.00     0.285 C 
HETATM   38  O   UNK N   1      36.269  13.257   9.294  0.00  0.00    -0.350 OA
HETATM   39  C   UNK N   1      37.030  14.048  10.177  0.00  0.00     0.173 C 
HETATM   40  C   UNK N   1      36.536  13.922  11.636  0.00  0.00     0.179 C 
HETATM   41  C   UNK N   1      35.165  13.221  11.688  0.00  0.00     0.176 C 
HETATM   42  C   UNK N   1      34.188  13.648  10.578  0.00  0.00     0.161 C 
BRANCH  39  43
HETATM   43  C   UNK N   1      38.506  13.703  10.081  0.00  0.00     0.145 C 
BRANCH  43  44
HETATM   44  N   UNK N   1      38.770  12.982   8.849  0.00  0.00    -0.428 N 
HETATM   45  H   UNK N   1      38.372  13.132   7.922  0.00  0.00     0.150 HD
HETATM   46  H   UNK N   1      39.445  12.220   8.921  0.00  0.00     0.150 HD
ENDBRANCH  43  44
ENDBRANCH  39  43
BRANCH  40  47
HETATM   47  O   UNK N   1      36.467  15.199  12.198  0.00  0.00    -0.390 OA
HETATM   48  H   UNK N   1      37.074  15.942  12.057  0.00  0.00     0.210 HD
ENDBRANCH  40  47
BRANCH  41  49
HETATM   49  O   UNK N   1      34.587  13.274  12.959  0.00  0.00    -0.391 OA
HETATM   50  H   UNK N   1      34.773  13.978  13.600  0.00  0.00     0.210 HD
ENDBRANCH  41  49
BRANCH  42  51
HETATM   51  N   UNK N   1      33.518  14.891  10.919  0.00  0.00    -0.420 N 
HETATM   52  H   UNK N   1      33.735  15.888  10.891  0.00  0.00     0.150 HD
HETATM   53  H   UNK N   1      32.580  14.722  11.283  0.00  0.00     0.150 HD
ENDBRANCH  42  51
ENDBRANCH  36  37
ENDBRANCH   2  36
BRANCH   4  54
HETATM   54  O   UNK N   1      37.887  14.385   6.225  0.00  0.00    -0.391 OA
HETATM   55  H   UNK N   1      38.438  14.184   6.997  0.00  0.00     0.210 HD
ENDBRANCH   4  54
BRANCH   3  56
HETATM   56  N   UNK N   1      33.986  12.115   5.359  0.00  0.00    -0.423 N 
HETATM   57  H   UNK N   1      33.262  11.739   4.748  0.00  0.00     0.150 HD
HETATM   58  H   UNK N   1      33.870  13.107   5.145  0.00  0.00     0.150 HD
ENDBRANCH   3  56
BRANCH   5  59
HETATM   59  N   UNK N   1      37.960  12.709   3.917  0.00  0.00    -0.423 N 
HETATM   60  H   UNK N   1      38.642  13.444   3.729  0.00  0.00     0.150 HD
HETATM   61  H   UNK N   1      38.148  11.752   3.624  0.00  0.00     0.150 HD
ENDBRANCH   5  59
TORSDOF 22
ENDMDL
MODEL 2
REMARK VINA RESULT:      -6.5      1.226      2.169
REMARK  22 active torsions:
REMARK  status: ('A' for Active; 'I' for Inactive)
REMARK    1  A    between atoms: C_20  and  O_1 
REMARK    2  A    between atoms: C_26  and  O_1 
REMARK    3  A    between atoms: C_21  and  O_2 
REMARK    4  A    between atoms: C_30  and  O_2 
REMARK    5  A    between atoms: C_27  and  O_4 
REMARK    6  A    between atoms: C_33  and  O_4 
REMARK    7  A    between atoms: C_23  and  O_5 
REMARK    8  A    between atoms: C_28  and  O_8 
REMARK    9  A    between atoms: C_32  and  O_9 
REMARK   10  A    between atoms: C_34  and  O_10 
REMARK   11  A    between atoms: C_37  and  O_11 
REMARK   12  A    between atoms: O_12  and  C_38 
REMARK   13  A    between atoms: C_39  and  O_13 
REMARK   14  A    between atoms: C_22  and  N_14 
REMARK   15  A    between atoms: C_24  and  N_15 
REMARK   16  A    between atoms: C_31  and  N_16 
REMARK   17  A    between atoms: C_36  and  N_17 
REMARK   18  A    between atoms: N_18  and  C_41 
REMARK   19  A    between atoms: N_19  and  C_42 
REMARK   20  A    between atoms: C_29  and  C_38 
REMARK   21  A    between atoms: C_35  and  C_41 
REMARK   22  A    between atoms: C_40  and  C_42 
ROOT
HETATM    1  C   UNK N   1      36.131  14.246   5.989  0.00  0.00     0.186 C 
HETATM    2  C   UNK N   1      36.868  13.516   7.129  0.00  0.00     0.178 C 
HETATM    3  C   UNK N   1      36.450  12.055   7.400  0.00  0.00     0.107 C 
HETATM    4  C   UNK N   1      36.243  13.362   4.736  0.00  0.00     0.172 C 
HETATM    5  C   UNK N   1      35.735  11.936   4.991  0.00  0.00     0.107 C 
HETATM    6  C   UNK N   1      36.548  11.262   6.098  0.00  0.00     0.054 C 
ENDROOT
BRANCH   1   7
HETATM    7  O   UNK N   1      34.784  14.454   6.358  0.00  0.00    -0.348 OA
BRANCH   7   8
HETATM    8  C   UNK N   1      34.206  15.599   5.745  0.00  0.00     0.292 C 
HETATM    9  O   UNK N   1      34.847  16.790   6.160  0.00  0.00    -0.348 OA
HETATM   10  C   UNK N   1      33.877  17.591   6.797  0.00  0.00     0.180 C 
HETATM   11  C   UNK N   1      32.575  16.805   6.854  0.00  0.00     0.189 C 
HETATM   12  C   UNK N   1      32.685  15.760   5.772  0.00  0.00     0.205 C 
BRANCH  10  13
HETATM   13  C   UNK N   1      34.371  17.983   8.188  0.00  0.00     0.198 C 
BRANCH  13  14
HETATM   14  O   UNK N   1      33.448  17.652   9.179  0.00  0.00    -0.398 OA
HETATM   15  H   UNK N   1      33.258  16.852   9.693  0.00  0.00     0.209 HD
ENDBRANCH  13  14
ENDBRANCH  10  13
BRANCH  11  16
HETATM   16  O   UNK N   1      31.377  17.569   6.929  0.00  0.00    -0.348 OA
BRANCH  16  17
HETATM   17  C   UNK N   1      30.268  16.743   7.251  0.00  0.00     0.285 C 
HETATM   18  O   UNK N   1      29.489  16.426   6.109  0.00  0.00    -0.350 OA
HETATM   19  C   UNK N   1      28.999  17.623   5.543  0.00  0.00     0.173 C 
HETATM   20  C   UNK N   1      27.955  18.262   6.463  0.00  0.00     0.179 C 
HETATM   21  C   UNK N   1      28.648  18.588   7.789  0.00  0.00     0.176 C 
HETATM   22  C   UNK N   1      29.370  17.355   8.340  0.00  0.00     0.161 C 
BRANCH  19  23
HETATM   23  C   UNK N   1      28.446  17.345   4.155  0.00  0.00     0.145 C 
BRANCH  23  24
HETATM   24  N   UNK N   1      29.532  17.035   3.241  0.00  0.00    -0.428 N 
HETATM   25  H   UNK N   1      29.596  16.579   2.331  0.00  0.00     0.150 HD
HETATM   26  H   UNK N   1      30.439  17.343   3.590  0.00  0.00     0.150 HD
ENDBRANCH  23  24
ENDBRANCH  19  23
BRANCH  20  27
HETATM   27  O   UNK N   1      26.889  17.379   6.667  0.00  0.00    -0.390 OA
HETATM   28  H   UNK N   1      26.608  16.551   7.089  0.00  0.00     0.210 HD
ENDBRANCH  20  27
BRANCH  21  29
HETATM   29  O   UNK N   1      27.721  19.075   8.714  0.00  0.00    -0.391 OA
HETATM   30  H   UNK N   1      26.804  18.763   8.733  0.00  0.00     0.210 HD
ENDBRANCH  21  29
BRANCH  22  31
HETATM   31  N   UNK N   1      30.149  17.697   9.518  0.00  0.00    -0.420 N 
HETATM   32  H   UNK N   1      29.944  18.311  10.307  0.00  0.00     0.150 HD
HETATM   33  H   UNK N   1      31.061  17.245   9.564  0.00  0.00     0.150 HD
ENDBRANCH  22  31
ENDBRANCH  16  17
ENDBRANCH  11  16
BRANCH  12  34
HETATM   34  O   UNK N   1      32.287  16.281   4.540  0.00  0.00    -0.388 OA
HETATM   35  H   UNK N   1      31.912  15.845   3.759  0.00  0.00     0.210 HD
ENDBRANCH  12  34
ENDBRANCH   7   8
ENDBRANCH   1   7
BRANCH   2  36
HETATM   36  O   UNK N   1      37.375  14.274   8.212  0.00  0.00    -0.349 OA
BRANCH  36  37
HETATM   37  C   UNK N   1      36.473  14.391   9.293  0.00  0.00     0.285 C 
HETATM   38  O   UNK N   1      35.219  14.950   9.006  0.00  0.00    -0.350 OA
HETATM   39  C   UNK N   1      34.325  14.205   9.800  0.00  0.00     0.173 C 
HETATM   40  C   UNK N   1      34.541  14.463  11.309  0.00  0.00     0.179 C 
HETATM   41  C   UNK N   1      35.865  15.214  11.549  0.00  0.00     0.176 C 
HETATM   42  C   UNK N   1      37.037  14.735  10.674  0.00  0.00     0.161 C 
BRANCH  39  43
HETATM   43  C   UNK N   1      32.885  14.490   9.410  0.00  0.00     0.145 C 
BRANCH  43  44
HETATM   44  N   UNK N   1      32.180  15.106  10.520  0.00  0.00    -0.428 N 
HETATM   45  H   UNK N   1      32.421  15.102  11.510  0.00  0.00     0.150 HD
HETATM   46  H   UNK N   1      31.328  15.611  10.274  0.00  0.00     0.150 HD
ENDBRANCH  43  44
ENDBRANCH  39  43
BRANCH  40  47
HETATM   47  O   UNK N   1      34.531  13.238  11.979  0.00  0.00    -0.390 OA
HETATM   48  H   UNK N   1      33.843  12.890  12.567  0.00  0.00     0.210 HD
ENDBRANCH  40  47
BRANCH  41  49
HETATM   49  O   UNK N   1      36.201  15.281  12.903  0.00  0.00    -0.391 OA
HETATM   50  H   UNK N   1      37.059  14.997  13.255  0.00  0.00     0.210 HD
ENDBRANCH  41  49
BRANCH  42  51
HETATM   51  N   UNK N   1      37.658  13.547  11.234  0.00  0.00    -0.420 N 
HETATM   52  H   UNK N   1      38.004  12.652  10.887  0.00  0.00     0.150 HD
HETATM   53  H   UNK N   1      37.782  13.630  12.243  0.00  0.00     0.150 HD
ENDBRANCH  42  51
ENDBRANCH  36  37
ENDBRANCH   2  36
BRANCH   4  54
HETATM   54  O   UNK N   1      37.565  13.341   4.281  0.00  0.00    -0.391 OA
HETATM   55  H   UNK N   1      38.514  13.521   4.189  0.00  0.00     0.210 HD
ENDBRANCH   4  54
BRANCH   3  56
HETATM   56  N   UNK N   1      35.087  11.968   7.898  0.00  0.00    -0.423 N 
HETATM   57  H   UNK N   1      34.279  11.925   8.520  0.00  0.00     0.150 HD
HETATM   58  H   UNK N   1      34.598  11.911   7.004  0.00  0.00     0.150 HD
ENDBRANCH   3  56
BRANCH   5  59
HETATM   59  N   UNK N   1      35.812  11.149   3.773  0.00  0.00    -0.423 N 
HETATM   60  H   UNK N   1      36.710  11.010   3.311  0.00  0.00     0.150 HD
HETATM   61  H   UNK N   1      34.967  10.734   3.380  0.00  0.00     0.150 HD
ENDBRANCH   5  59
TORSDOF 22
ENDMDL
MODEL 3
REMARK VINA RESULT:      -6.3      2.122      5.117
REMARK  22 active torsions:
REMARK  status: ('A' for Active; 'I' for Inactive)
REMARK    1  A    between atoms: C_20  and  O_1 
REMARK    2  A    between atoms: C_26  and  O_1 
REMARK    3  A    between atoms: C_21  and  O_2 
REMARK    4  A    between atoms: C_30  and  O_2 
REMARK    5  A    between atoms: C_27  and  O_4 
REMARK    6  A    between atoms: C_33  and  O_4 
REMARK    7  A    between atoms: C_23  and  O_5 
REMARK    8  A    between atoms: C_28  and  O_8 
REMARK    9  A    between atoms: C_32  and  O_9 
REMARK   10  A    between atoms: C_34  and  O_10 
REMARK   11  A    between atoms: C_37  and  O_11 
REMARK   12  A    between atoms: O_12  and  C_38 
REMARK   13  A    between atoms: C_39  and  O_13 
REMARK   14  A    between atoms: C_22  and  N_14 
REMARK   15  A    between atoms: C_24  and  N_15 
REMARK   16  A    between atoms: C_31  and  N_16 
REMARK   17  A    between atoms: C_36  and  N_17 
REMARK   18  A    between atoms: N_18  and  C_41 
REMARK   19  A    between atoms: N_19  and  C_42 
REMARK   20  A    between atoms: C_29  and  C_38 
REMARK   21  A    between atoms: C_35  and  C_41 
REMARK   22  A    between atoms: C_40  and  C_42 
ROOT
HETATM    1  C   UNK N   1      33.888  13.803   6.795  0.00  0.00     0.186 C 
HETATM    2  C   UNK N   1      34.593  12.433   6.775  0.00  0.00     0.178 C 
HETATM    3  C   UNK N   1      35.707  12.212   7.820  0.00  0.00     0.107 C 
HETATM    4  C   UNK N   1      33.398  14.040   8.233  0.00  0.00     0.172 C 
HETATM    5  C   UNK N   1      34.535  13.912   9.257  0.00  0.00     0.107 C 
HETATM    6  C   UNK N   1      35.149  12.512   9.210  0.00  0.00     0.054 C 
ENDROOT
BRANCH   1   7
HETATM    7  O   UNK N   1      34.793  14.804   6.384  0.00  0.00    -0.348 OA
BRANCH   7   8
HETATM    8  C   UNK N   1      34.152  15.960   5.862  0.00  0.00     0.292 C 
HETATM    9  O   UNK N   1      34.754  17.149   6.338  0.00  0.00    -0.348 OA
HETATM   10  C   UNK N   1      33.769  17.864   7.050  0.00  0.00     0.180 C 
HETATM   11  C   UNK N   1      32.503  17.021   7.087  0.00  0.00     0.189 C 
HETATM   12  C   UNK N   1      32.627  16.054   5.935  0.00  0.00     0.205 C 
BRANCH  10  13
HETATM   13  C   UNK N   1      34.284  18.187   8.451  0.00  0.00     0.198 C 
BRANCH  13  14
HETATM   14  O   UNK N   1      35.274  19.169   8.426  0.00  0.00    -0.398 OA
HETATM   15  H   UNK N   1      35.277  20.130   8.298  0.00  0.00     0.209 HD
ENDBRANCH  13  14
ENDBRANCH  10  13
BRANCH  11  16
HETATM   16  O   UNK N   1      31.277  17.727   7.240  0.00  0.00    -0.348 OA
BRANCH  16  17
HETATM   17  C   UNK N   1      30.220  16.839   7.575  0.00  0.00     0.285 C 
HETATM   18  O   UNK N   1      29.512  16.395   6.429  0.00  0.00    -0.350 OA
HETATM   19  C   UNK N   1      28.958  17.515   5.771  0.00  0.00     0.173 C 
HETATM   20  C   UNK N   1      27.834  18.127   6.612  0.00  0.00     0.179 C 
HETATM   21  C   UNK N   1      28.448  18.585   7.938  0.00  0.00     0.176 C 
HETATM   22  C   UNK N   1      29.237  17.446   8.591  0.00  0.00     0.161 C 
BRANCH  19  23
HETATM   23  C   UNK N   1      28.482  17.112   4.385  0.00  0.00     0.145 C 
BRANCH  23  24
HETATM   24  N   UNK N   1      29.587  17.171   3.445  0.00  0.00    -0.428 N 
HETATM   25  H   UNK N   1      30.562  16.871   3.463  0.00  0.00     0.150 HD
HETATM   26  H   UNK N   1      29.329  17.613   2.563  0.00  0.00     0.150 HD
ENDBRANCH  23  24
ENDBRANCH  19  23
BRANCH  20  27
HETATM   27  O   UNK N   1      26.828  17.180   6.834  0.00  0.00    -0.390 OA
HETATM   28  H   UNK N   1      25.886  16.976   6.724  0.00  0.00     0.210 HD
ENDBRANCH  20  27
BRANCH  21  29
HETATM   29  O   UNK N   1      27.452  19.055   8.797  0.00  0.00    -0.391 OA
HETATM   30  H   UNK N   1      26.682  18.516   9.033  0.00  0.00     0.210 HD
ENDBRANCH  21  29
BRANCH  22  31
HETATM   31  N   UNK N   1      29.941  17.918   9.771  0.00  0.00    -0.420 N 
HETATM   32  H   UNK N   1      30.937  18.037   9.960  0.00  0.00     0.150 HD
HETATM   33  H   UNK N   1      29.333  18.176  10.548  0.00  0.00     0.150 HD
ENDBRANCH  22  31
ENDBRANCH  16  17
ENDBRANCH  11  16
BRANCH  12  34
HETATM   34  O   UNK N   1      32.175  16.636   4.750  0.00  0.00    -0.388 OA
HETATM   35  H   UNK N   1      31.550  16.311   4.083  0.00  0.00     0.210 HD
ENDBRANCH  12  34
ENDBRANCH   7   8
ENDBRANCH   1   7
BRANCH   2  36
HETATM   36  O   UNK N   1      34.680  11.727   5.551  0.00  0.00    -0.349 OA
BRANCH  36  37
HETATM   37  C   UNK N   1      33.953  12.325   4.499  0.00  0.00     0.285 C 
HETATM   38  O   UNK N   1      32.613  11.933   4.359  0.00  0.00    -0.350 OA
HETATM   39  C   UNK N   1      31.947  13.120   3.996  0.00  0.00     0.173 C 
HETATM   40  C   UNK N   1      32.367  13.611   2.592  0.00  0.00     0.179 C 
HETATM   41  C   UNK N   1      33.617  12.855   2.102  0.00  0.00     0.176 C 
HETATM   42  C   UNK N   1      34.683  12.617   3.186  0.00  0.00     0.161 C 
BRANCH  39  43
HETATM   43  C   UNK N   1      30.441  12.944   4.072  0.00  0.00     0.145 C 
BRANCH  43  44
HETATM   44  N   UNK N   1      29.905  13.706   5.185  0.00  0.00    -0.428 N 
HETATM   45  H   UNK N   1      30.407  14.228   5.903  0.00  0.00     0.150 HD
HETATM   46  H   UNK N   1      28.888  13.720   5.261  0.00  0.00     0.150 HD
ENDBRANCH  43  44
ENDBRANCH  39  43
BRANCH  40  47
HETATM   47  O   UNK N   1      32.604  14.986   2.650  0.00  0.00    -0.390 OA
HETATM   48  H   UNK N   1      32.789  15.523   3.435  0.00  0.00     0.210 HD
ENDBRANCH  40  47
BRANCH  41  49
HETATM   49  O   UNK N   1      34.153  13.410   0.937  0.00  0.00    -0.391 OA
HETATM   50  H   UNK N   1      33.642  13.965   0.327  0.00  0.00     0.210 HD
ENDBRANCH  41  49
BRANCH  42  51
HETATM   51  N   UNK N   1      35.518  13.793   3.367  0.00  0.00    -0.420 N 
HETATM   52  H   UNK N   1      36.226  14.111   4.030  0.00  0.00     0.150 HD
HETATM   53  H   UNK N   1      35.352  14.486   2.637  0.00  0.00     0.150 HD
ENDBRANCH  42  51
ENDBRANCH  36  37
ENDBRANCH   2  36
BRANCH   4  54
HETATM   54  O   UNK N   1      32.358  13.157   8.538  0.00  0.00    -0.391 OA
HETATM   55  H   UNK N   1      31.841  12.345   8.660  0.00  0.00     0.210 HD
ENDBRANCH   4  54
BRANCH   3  56
HETATM   56  N   UNK N   1      36.851  13.077   7.579  0.00  0.00    -0.423 N 
HETATM   57  H   UNK N   1      37.640  13.545   7.133  0.00  0.00     0.150 HD
HETATM   58  H   UNK N   1      36.893  13.536   8.490  0.00  0.00     0.150 HD
ENDBRANCH   3  56
BRANCH   5  59
HETATM   59  N   UNK N   1      34.042  14.192  10.595  0.00  0.00    -0.423 N 
HETATM   60  H   UNK N   1      33.739  15.134  10.840  0.00  0.00     0.150 HD
HETATM   61  H   UNK N   1      33.999  13.445  11.288  0.00  0.00     0.150 HD
ENDBRANCH   5  59
TORSDOF 22
ENDMDL
MODEL 4
REMARK VINA RESULT:      -6.2      2.854      9.193
REMARK  22 active torsions:
REMARK  status: ('A' for Active; 'I' for Inactive)
REMARK    1  A    between atoms: C_20  and  O_1 
REMARK    2  A    between atoms: C_26  and  O_1 
REMARK    3  A    between atoms: C_21  and  O_2 
REMARK    4  A    between atoms: C_30  and  O_2 
REMARK    5  A    between atoms: C_27  and  O_4 
REMARK    6  A    between atoms: C_33  and  O_4 
REMARK    7  A    between atoms: C_23  and  O_5 
REMARK    8  A    between atoms: C_28  and  O_8 
REMARK    9  A    between atoms: C_32  and  O_9 
REMARK   10  A    between atoms: C_34  and  O_10 
REMARK   11  A    between atoms: C_37  and  O_11 
REMARK   12  A    between atoms: O_12  and  C_38 
REMARK   13  A    between atoms: C_39  and  O_13 
REMARK   14  A    between atoms: C_22  and  N_14 
REMARK   15  A    between atoms: C_24  and  N_15 
REMARK   16  A    between atoms: C_31  and  N_16 
REMARK   17  A    between atoms: C_36  and  N_17 
REMARK   18  A    between atoms: N_18  and  C_41 
REMARK   19  A    between atoms: N_19  and  C_42 
REMARK   20  A    between atoms: C_29  and  C_38 
REMARK   21  A    between atoms: C_35  and  C_41 
REMARK   22  A    between atoms: C_40  and  C_42 
ROOT
HETATM    1  C   UNK N   1      33.008  15.702   7.046  0.00  0.00     0.186 C 
HETATM    2  C   UNK N   1      31.644  16.421   7.014  0.00  0.00     0.178 C 
HETATM    3  C   UNK N   1      31.337  17.374   8.189  0.00  0.00     0.107 C 
HETATM    4  C   UNK N   1      34.087  16.783   7.222  0.00  0.00     0.172 C 
HETATM    5  C   UNK N   1      33.822  17.666   8.450  0.00  0.00     0.107 C 
HETATM    6  C   UNK N   1      32.476  18.383   8.321  0.00  0.00     0.054 C 
ENDROOT
BRANCH   1   7
HETATM    7  O   UNK N   1      33.025  14.774   8.109  0.00  0.00    -0.348 OA
BRANCH   7   8
HETATM    8  C   UNK N   1      34.308  14.205   8.335  0.00  0.00     0.292 C 
HETATM    9  O   UNK N   1      34.411  12.913   7.768  0.00  0.00    -0.348 OA
HETATM   10  C   UNK N   1      34.672  12.010   8.819  0.00  0.00     0.180 C 
HETATM   11  C   UNK N   1      34.642  12.785  10.128  0.00  0.00     0.189 C 
HETATM   12  C   UNK N   1      34.883  14.226   9.753  0.00  0.00     0.205 C 
BRANCH  10  13
HETATM   13  C   UNK N   1      33.640  10.885   8.795  0.00  0.00     0.198 C 
BRANCH  13  14
HETATM   14  O   UNK N   1      32.937  10.801   9.997  0.00  0.00    -0.398 OA
HETATM   15  H   UNK N   1      33.133  11.033  10.918  0.00  0.00     0.209 HD
ENDBRANCH  13  14
ENDBRANCH  10  13
BRANCH  11  16
HETATM   16  O   UNK N   1      35.397  12.238  11.205  0.00  0.00    -0.348 OA
BRANCH  16  17
HETATM   17  C   UNK N   1      34.620  12.183  12.392  0.00  0.00     0.285 C 
HETATM   18  O   UNK N   1      34.824  13.319  13.217  0.00  0.00    -0.350 OA
HETATM   19  C   UNK N   1      36.186  13.380  13.582  0.00  0.00     0.173 C 
HETATM   20  C   UNK N   1      36.536  12.235  14.538  0.00  0.00     0.179 C 
HETATM   21  C   UNK N   1      36.280  10.921  13.795  0.00  0.00     0.176 C 
HETATM   22  C   UNK N   1      34.867  10.900  13.203  0.00  0.00     0.161 C 
BRANCH  19  23
HETATM   23  C   UNK N   1      36.497  14.742  14.181  0.00  0.00     0.145 C 
BRANCH  23  24
HETATM   24  N   UNK N   1      37.357  14.589  15.341  0.00  0.00    -0.428 N 
HETATM   25  H   UNK N   1      37.203  14.364  16.324  0.00  0.00     0.150 HD
HETATM   26  H   UNK N   1      38.341  14.741  15.123  0.00  0.00     0.150 HD
ENDBRANCH  23  24
ENDBRANCH  19  23
BRANCH  20  27
HETATM   27  O   UNK N   1      35.746  12.313  15.690  0.00  0.00    -0.390 OA
HETATM   28  H   UNK N   1      35.742  12.263  16.660  0.00  0.00     0.210 HD
ENDBRANCH  20  27
BRANCH  21  29
HETATM   29  O   UNK N   1      36.475   9.834  14.651  0.00  0.00    -0.391 OA
HETATM   30  H   UNK N   1      37.269   9.280  14.604  0.00  0.00     0.210 HD
ENDBRANCH  21  29
BRANCH  22  31
HETATM   31  N   UNK N   1      34.673   9.722  12.375  0.00  0.00    -0.420 N 
HETATM   32  H   UNK N   1      34.984   9.504  11.428  0.00  0.00     0.150 HD
HETATM   33  H   UNK N   1      34.131   8.981  12.819  0.00  0.00     0.150 HD
ENDBRANCH  22  31
ENDBRANCH  16  17
ENDBRANCH  11  16
BRANCH  12  34
HETATM   34  O   UNK N   1      36.250  14.490   9.657  0.00  0.00    -0.388 OA
HETATM   35  H   UNK N   1      37.016  13.898   9.722  0.00  0.00     0.210 HD
ENDBRANCH  12  34
ENDBRANCH   7   8
ENDBRANCH   1   7
BRANCH   2  36
HETATM   36  O   UNK N   1      30.555  15.793   6.365  0.00  0.00    -0.349 OA
BRANCH  36  37
HETATM   37  C   UNK N   1      29.570  16.696   5.908  0.00  0.00     0.285 C 
HETATM   38  O   UNK N   1      28.684  17.199   6.872  0.00  0.00    -0.350 OA
HETATM   39  C   UNK N   1      28.492  18.542   6.490  0.00  0.00     0.173 C 
HETATM   40  C   UNK N   1      27.730  18.656   5.150  0.00  0.00     0.179 C 
HETATM   41  C   UNK N   1      27.662  17.289   4.443  0.00  0.00     0.176 C 
HETATM   42  C   UNK N   1      28.959  16.466   4.523  0.00  0.00     0.161 C 
BRANCH  39  43
HETATM   43  C   UNK N   1      27.776  19.320   7.580  0.00  0.00     0.145 C 
BRANCH  43  44
HETATM   44  N   UNK N   1      27.786  18.565   8.820  0.00  0.00    -0.428 N 
HETATM   45  H   UNK N   1      28.585  18.227   9.356  0.00  0.00     0.150 HD
HETATM   46  H   UNK N   1      26.869  18.340   9.207  0.00  0.00     0.150 HD
ENDBRANCH  43  44
ENDBRANCH  39  43
BRANCH  40  47
HETATM   47  O   UNK N   1      28.371  19.604   4.349  0.00  0.00    -0.390 OA
HETATM   48  H   UNK N   1      28.032  20.466   4.064  0.00  0.00     0.210 HD
ENDBRANCH  40  47
BRANCH  41  49
HETATM   49  O   UNK N   1      27.170  17.388   3.139  0.00  0.00    -0.391 OA
HETATM   50  H   UNK N   1      27.739  17.401   2.354  0.00  0.00     0.210 HD
ENDBRANCH  41  49
BRANCH  42  51
HETATM   51  N   UNK N   1      29.915  16.892   3.515  0.00  0.00    -0.420 N 
HETATM   52  H   UNK N   1      30.930  16.956   3.428  0.00  0.00     0.150 HD
HETATM   53  H   UNK N   1      29.445  17.213   2.667  0.00  0.00     0.150 HD
ENDBRANCH  42  51
ENDBRANCH  36  37
ENDBRANCH   2  36
BRANCH   4  54
HETATM   54  O   UNK N   1      34.179  17.563   6.065  0.00  0.00    -0.391 OA
HETATM   55  H   UNK N   1      34.332  17.842   5.149  0.00  0.00     0.210 HD
ENDBRANCH   4  54
BRANCH   3  56
HETATM   56  N   UNK N   1      31.202  16.655   9.445  0.00  0.00    -0.423 N 
HETATM   57  H   UNK N   1      31.401  16.247  10.360  0.00  0.00     0.150 HD
HETATM   58  H   UNK N   1      30.239  16.335   9.338  0.00  0.00     0.150 HD
ENDBRANCH   3  56
BRANCH   5  59
HETATM   59  N   UNK N   1      34.887  18.640   8.610  0.00  0.00    -0.423 N 
HETATM   60  H   UNK N   1      34.663  19.607   8.844  0.00  0.00     0.150 HD
HETATM   61  H   UNK N   1      35.859  18.357   8.490  0.00  0.00     0.150 HD
ENDBRANCH   5  59
TORSDOF 22
ENDMDL
MODEL 5
REMARK VINA RESULT:      -6.2      2.657      8.622
REMARK  22 active torsions:
REMARK  status: ('A' for Active; 'I' for Inactive)
REMARK    1  A    between atoms: C_20  and  O_1 
REMARK    2  A    between atoms: C_26  and  O_1 
REMARK    3  A    between atoms: C_21  and  O_2 
REMARK    4  A    between atoms: C_30  and  O_2 
REMARK    5  A    between atoms: C_27  and  O_4 
REMARK    6  A    between atoms: C_33  and  O_4 
REMARK    7  A    between atoms: C_23  and  O_5 
REMARK    8  A    between atoms: C_28  and  O_8 
REMARK    9  A    between atoms: C_32  and  O_9 
REMARK   10  A    between atoms: C_34  and  O_10 
REMARK   11  A    between atoms: C_37  and  O_11 
REMARK   12  A    between atoms: O_12  and  C_38 
REMARK   13  A    between atoms: C_39  and  O_13 
REMARK   14  A    between atoms: C_22  and  N_14 
REMARK   15  A    between atoms: C_24  and  N_15 
REMARK   16  A    between atoms: C_31  and  N_16 
REMARK   17  A    between atoms: C_36  and  N_17 
REMARK   18  A    between atoms: N_18  and  C_41 
REMARK   19  A    between atoms: N_19  and  C_42 
REMARK   20  A    between atoms: C_29  and  C_38 
REMARK   21  A    between atoms: C_35  and  C_41 
REMARK   22  A    between atoms: C_40  and  C_42 
ROOT
HETATM    1  C   UNK N   1      31.931  14.865   5.502  0.00  0.00     0.186 C 
HETATM    2  C   UNK N   1      31.336  16.287   5.546  0.00  0.00     0.178 C 
HETATM    3  C   UNK N   1      32.224  17.424   4.997  0.00  0.00     0.107 C 
HETATM    4  C   UNK N   1      32.388  14.607   4.057  0.00  0.00     0.172 C 
HETATM    5  C   UNK N   1      33.347  15.696   3.555  0.00  0.00     0.107 C 
HETATM    6  C   UNK N   1      32.669  17.068   3.581  0.00  0.00     0.054 C 
ENDROOT
BRANCH   1   7
HETATM    7  O   UNK N   1      33.007  14.778   6.411  0.00  0.00    -0.348 OA
BRANCH   7   8
HETATM    8  C   UNK N   1      32.591  14.578   7.756  0.00  0.00     0.292 C 
HETATM    9  O   UNK N   1      32.654  15.778   8.503  0.00  0.00    -0.348 OA
HETATM   10  C   UNK N   1      33.562  15.569   9.561  0.00  0.00     0.180 C 
HETATM   11  C   UNK N   1      34.161  14.179   9.404  0.00  0.00     0.189 C 
HETATM   12  C   UNK N   1      33.186  13.412   8.546  0.00  0.00     0.205 C 
BRANCH  10  13
HETATM   13  C   UNK N   1      34.631  16.659   9.541  0.00  0.00     0.198 C 
BRANCH  13  14
HETATM   14  O   UNK N   1      34.990  17.057  10.828  0.00  0.00    -0.398 OA
HETATM   15  H   UNK N   1      35.816  17.050  11.338  0.00  0.00     0.209 HD
ENDBRANCH  13  14
ENDBRANCH  10  13
BRANCH  11  16
HETATM   16  O   UNK N   1      34.639  13.558  10.593  0.00  0.00    -0.348 OA
BRANCH  16  17
HETATM   17  C   UNK N   1      36.019  13.245  10.481  0.00  0.00     0.285 C 
HETATM   18  O   UNK N   1      36.232  11.888  10.128  0.00  0.00    -0.350 OA
HETATM   19  C   UNK N   1      35.670  11.063  11.126  0.00  0.00     0.173 C 
HETATM   20  C   UNK N   1      36.472  11.174  12.426  0.00  0.00     0.179 C 
HETATM   21  C   UNK N   1      36.398  12.632  12.889  0.00  0.00     0.176 C 
HETATM   22  C   UNK N   1      36.808  13.580  11.758  0.00  0.00     0.161 C 
BRANCH  19  23
HETATM   23  C   UNK N   1      35.591   9.631  10.623  0.00  0.00     0.145 C 
BRANCH  23  24
HETATM   24  N   UNK N   1      36.660   9.379   9.673  0.00  0.00    -0.428 N 
HETATM   25  H   UNK N   1      37.018   8.550   9.199  0.00  0.00     0.150 HD
HETATM   26  H   UNK N   1      37.170  10.226   9.422  0.00  0.00     0.150 HD
ENDBRANCH  23  24
ENDBRANCH  19  23
BRANCH  20  27
HETATM   27  O   UNK N   1      37.801  10.793  12.206  0.00  0.00    -0.390 OA
HETATM   28  H   UNK N   1      38.715  10.867  12.524  0.00  0.00     0.210 HD
ENDBRANCH  20  27
BRANCH  21  29
HETATM   29  O   UNK N   1      37.203  12.825  14.015  0.00  0.00    -0.391 OA
HETATM   30  H   UNK N   1      36.849  12.764  14.915  0.00  0.00     0.210 HD
ENDBRANCH  21  29
BRANCH  22  31
HETATM   31  N   UNK N   1      36.598  14.965  12.146  0.00  0.00    -0.420 N 
HETATM   32  H   UNK N   1      37.033  15.829  11.822  0.00  0.00     0.150 HD
HETATM   33  H   UNK N   1      35.892  15.096  12.869  0.00  0.00     0.150 HD
ENDBRANCH  22  31
ENDBRANCH  16  17
ENDBRANCH  11  16
BRANCH  12  34
HETATM   34  O   UNK N   1      32.170  12.859   9.326  0.00  0.00    -0.388 OA
HETATM   35  H   UNK N   1      31.402  13.271   9.751  0.00  0.00     0.210 HD
ENDBRANCH  12  34
ENDBRANCH   7   8
ENDBRANCH   1   7
BRANCH   2  36
HETATM   36  O   UNK N   1      30.395  16.604   6.553  0.00  0.00    -0.349 OA
BRANCH  36  37
HETATM   37  C   UNK N   1      29.132  16.986   6.049  0.00  0.00     0.285 C 
HETATM   38  O   UNK N   1      28.939  16.846   4.667  0.00  0.00    -0.350 OA
HETATM   39  C   UNK N   1      27.605  16.410   4.552  0.00  0.00     0.173 C 
HETATM   40  C   UNK N   1      26.601  17.502   4.985  0.00  0.00     0.179 C 
HETATM   41  C   UNK N   1      27.326  18.649   5.715  0.00  0.00     0.176 C 
HETATM   42  C   UNK N   1      28.431  18.191   6.683  0.00  0.00     0.161 C 
BRANCH  39  43
HETATM   43  C   UNK N   1      27.306  15.940   3.139  0.00  0.00     0.145 C 
BRANCH  43  44
HETATM   44  N   UNK N   1      28.517  15.435   2.515  0.00  0.00    -0.428 N 
HETATM   45  H   UNK N   1      28.894  14.488   2.528  0.00  0.00     0.150 HD
HETATM   46  H   UNK N   1      29.064  16.122   1.995  0.00  0.00     0.150 HD
ENDBRANCH  43  44
ENDBRANCH  39  43
BRANCH  40  47
HETATM   47  O   UNK N   1      25.631  16.921   5.804  0.00  0.00    -0.390 OA
HETATM   48  H   UNK N   1      25.340  15.996   5.813  0.00  0.00     0.210 HD
ENDBRANCH  40  47
BRANCH  41  49
HETATM   49  O   UNK N   1      26.437  19.551   6.306  0.00  0.00    -0.391 OA
HETATM   50  H   UNK N   1      25.623  19.856   5.875  0.00  0.00     0.210 HD
ENDBRANCH  41  49
BRANCH  42  51
HETATM   51  N   UNK N   1      27.872  17.786   7.962  0.00  0.00    -0.420 N 
HETATM   52  H   UNK N   1      26.943  17.631   8.355  0.00  0.00     0.150 HD
HETATM   53  H   UNK N   1      28.604  17.610   8.650  0.00  0.00     0.150 HD
ENDBRANCH  42  51
ENDBRANCH  36  37
ENDBRANCH   2  36
BRANCH   4  54
HETATM   54  O   UNK N   1      31.278  14.500   3.214  0.00  0.00    -0.391 OA
HETATM   55  H   UNK N   1      30.602  14.143   2.617  0.00  0.00     0.210 HD
ENDBRANCH   4  54
BRANCH   3  56
HETATM   56  N   UNK N   1      33.405  17.630   5.820  0.00  0.00    -0.423 N 
HETATM   57  H   UNK N   1      34.038  17.679   6.619  0.00  0.00     0.150 HD
HETATM   58  H   UNK N   1      34.048  17.943   5.093  0.00  0.00     0.150 HD
ENDBRANCH   3  56
BRANCH   5  59
HETATM   59  N   UNK N   1      33.795  15.391   2.207  0.00  0.00    -0.423 N 
HETATM   60  H   UNK N   1      34.729  15.667   1.906  0.00  0.00     0.150 HD
HETATM   61  H   UNK N   1      33.175  14.901   1.564  0.00  0.00     0.150 HD
ENDBRANCH   5  59
TORSDOF 22
ENDMDL
MODEL 6
REMARK VINA RESULT:      -6.2      2.854      9.269
REMARK  22 active torsions:
REMARK  status: ('A' for Active; 'I' for Inactive)
REMARK    1  A    between atoms: C_20  and  O_1 
REMARK    2  A    between atoms: C_26  and  O_1 
REMARK    3  A    between atoms: C_21  and  O_2 
REMARK    4  A    between atoms: C_30  and  O_2 
REMARK    5  A    between atoms: C_27  and  O_4 
REMARK    6  A    between atoms: C_33  and  O_4 
REMARK    7  A    between atoms: C_23  and  O_5 
REMARK    8  A    between atoms: C_28  and  O_8 
REMARK    9  A    between atoms: C_32  and  O_9 
REMARK   10  A    between atoms: C_34  and  O_10 
REMARK   11  A    between atoms: C_37  and  O_11 
REMARK   12  A    between atoms: O_12  and  C_38 
REMARK   13  A    between atoms: C_39  and  O_13 
REMARK   14  A    between atoms: C_22  and  N_14 
REMARK   15  A    between atoms: C_24  and  N_15 
REMARK   16  A    between atoms: C_31  and  N_16 
REMARK   17  A    between atoms: C_36  and  N_17 
REMARK   18  A    between atoms: N_18  and  C_41 
REMARK   19  A    between atoms: N_19  and  C_42 
REMARK   20  A    between atoms: C_29  and  C_38 
REMARK   21  A    between atoms: C_35  and  C_41 
REMARK   22  A    between atoms: C_40  and  C_42 
ROOT
HETATM    1  C   UNK N   1      33.649  15.176   7.717  0.00  0.00     0.186 C 
HETATM    2  C   UNK N   1      32.237  15.618   7.286  0.00  0.00     0.178 C 
HETATM    3  C   UNK N   1      31.616  16.801   8.059  0.00  0.00     0.107 C 
HETATM    4  C   UNK N   1      34.544  16.427   7.691  0.00  0.00     0.172 C 
HETATM    5  C   UNK N   1      33.964  17.565   8.542  0.00  0.00     0.107 C 
HETATM    6  C   UNK N   1      32.586  17.981   8.023  0.00  0.00     0.054 C 
ENDROOT
BRANCH   1   7
HETATM    7  O   UNK N   1      33.591  14.605   9.006  0.00  0.00    -0.348 OA
BRANCH   7   8
HETATM    8  C   UNK N   1      34.873  14.328   9.555  0.00  0.00     0.292 C 
HETATM    9  O   UNK N   1      35.466  13.198   8.944  0.00  0.00    -0.348 OA
HETATM   10  C   UNK N   1      35.673  12.234   9.952  0.00  0.00     0.180 C 
HETATM   11  C   UNK N   1      35.092  12.772  11.250  0.00  0.00     0.189 C 
HETATM   12  C   UNK N   1      35.026  14.269  11.076  0.00  0.00     0.205 C 
BRANCH  10  13
HETATM   13  C   UNK N   1      35.027  10.914   9.537  0.00  0.00     0.198 C 
BRANCH  13  14
HETATM   14  O   UNK N   1      35.111   9.956  10.548  0.00  0.00    -0.398 OA
HETATM   15  H   UNK N   1      35.500   9.070  10.615  0.00  0.00     0.209 HD
ENDBRANCH  13  14
ENDBRANCH  10  13
BRANCH  11  16
HETATM   16  O   UNK N   1      35.654  12.262  12.455  0.00  0.00    -0.348 OA
BRANCH  16  17
HETATM   17  C   UNK N   1      34.726  12.357  13.526  0.00  0.00     0.285 C 
HETATM   18  O   UNK N   1      35.088  13.364  14.458  0.00  0.00    -0.350 OA
HETATM   19  C   UNK N   1      36.356  13.055  14.996  0.00  0.00     0.173 C 
HETATM   20  C   UNK N   1      36.270  11.819  15.895  0.00  0.00     0.179 C 
HETATM   21  C   UNK N   1      35.803  10.649  15.023  0.00  0.00     0.176 C 
HETATM   22  C   UNK N   1      34.529  11.018  14.258  0.00  0.00     0.161 C 
BRANCH  19  23
HETATM   23  C   UNK N   1      36.907  14.264  15.735  0.00  0.00     0.145 C 
BRANCH  23  24
HETATM   24  N   UNK N   1      37.213  15.325  14.793  0.00  0.00    -0.428 N 
HETATM   25  H   UNK N   1      37.503  16.299  14.878  0.00  0.00     0.150 HD
HETATM   26  H   UNK N   1      37.116  15.028  13.822  0.00  0.00     0.150 HD
ENDBRANCH  23  24
ENDBRANCH  19  23
BRANCH  20  27
HETATM   27  O   UNK N   1      35.368  12.046  16.941  0.00  0.00    -0.390 OA
HETATM   28  H   UNK N   1      35.034  11.718  17.791  0.00  0.00     0.210 HD
ENDBRANCH  20  27
BRANCH  21  29
HETATM   29  O   UNK N   1      35.597   9.511  15.809  0.00  0.00    -0.391 OA
HETATM   30  H   UNK N   1      36.026   9.399  16.670  0.00  0.00     0.210 HD
ENDBRANCH  21  29
BRANCH  22  31
HETATM   31  N   UNK N   1      34.167   9.968  13.322  0.00  0.00    -0.420 N 
HETATM   32  H   UNK N   1      33.354   9.353  13.278  0.00  0.00     0.150 HD
HETATM   33  H   UNK N   1      34.847   9.817  12.577  0.00  0.00     0.150 HD
ENDBRANCH  22  31
ENDBRANCH  16  17
ENDBRANCH  11  16
BRANCH  12  34
HETATM   34  O   UNK N   1      36.246  14.859  11.407  0.00  0.00    -0.388 OA
HETATM   35  H   UNK N   1      36.485  15.790  11.536  0.00  0.00     0.210 HD
ENDBRANCH  12  34
ENDBRANCH   7   8
ENDBRANCH   1   7
BRANCH   2  36
HETATM   36  O   UNK N   1      31.361  14.658   6.724  0.00  0.00    -0.349 OA
BRANCH  36  37
HETATM   37  C   UNK N   1      30.663  15.124   5.588  0.00  0.00     0.285 C 
HETATM   38  O   UNK N   1      29.523  15.904   5.828  0.00  0.00    -0.350 OA
HETATM   39  C   UNK N   1      29.562  16.886   4.819  0.00  0.00     0.173 C 
HETATM   40  C   UNK N   1      29.341  16.278   3.415  0.00  0.00     0.179 C 
HETATM   41  C   UNK N   1      29.449  14.742   3.463  0.00  0.00     0.176 C 
HETATM   42  C   UNK N   1      30.578  14.210   4.363  0.00  0.00     0.161 C 
BRANCH  39  43
HETATM   43  C   UNK N   1      28.552  17.986   5.090  0.00  0.00     0.145 C 
BRANCH  43  44
HETATM   44  N   UNK N   1      28.105  18.573   3.839  0.00  0.00    -0.428 N 
HETATM   45  H   UNK N   1      27.671  19.481   3.678  0.00  0.00     0.150 HD
HETATM   46  H   UNK N   1      28.244  17.996   3.008  0.00  0.00     0.150 HD
ENDBRANCH  43  44
ENDBRANCH  39  43
BRANCH  40  47
HETATM   47  O   UNK N   1      30.284  16.819   2.538  0.00  0.00    -0.390 OA
HETATM   48  H   UNK N   1      30.682  17.703   2.567  0.00  0.00     0.210 HD
ENDBRANCH  40  47
BRANCH  41  49
HETATM   49  O   UNK N   1      29.465  14.169   2.189  0.00  0.00    -0.391 OA
HETATM   50  H   UNK N   1      28.757  13.599   1.852  0.00  0.00     0.210 HD
ENDBRANCH  41  49
BRANCH  42  51
HETATM   51  N   UNK N   1      31.856  14.236   3.671  0.00  0.00    -0.420 N 
HETATM   52  H   UNK N   1      32.199  14.044   2.729  0.00  0.00     0.150 HD
HETATM   53  H   UNK N   1      32.612  14.523   4.293  0.00  0.00     0.150 HD
ENDBRANCH  42  51
ENDBRANCH  36  37
ENDBRANCH   2  36
BRANCH   4  54
HETATM   54  O   UNK N   1      34.744  16.848   6.373  0.00  0.00    -0.391 OA
HETATM   55  H   UNK N   1      35.142  17.231   5.576  0.00  0.00     0.210 HD
ENDBRANCH   4  54
BRANCH   3  56
HETATM   56  N   UNK N   1      31.351  16.458   9.447  0.00  0.00    -0.423 N 
HETATM   57  H   UNK N   1      30.874  16.280  10.331  0.00  0.00     0.150 HD
HETATM   58  H   UNK N   1      32.305  16.247   9.740  0.00  0.00     0.150 HD
ENDBRANCH   3  56
BRANCH   5  59
HETATM   59  N   UNK N   1      34.861  18.708   8.533  0.00  0.00    -0.423 N 
HETATM   60  H   UNK N   1      34.894  19.337   9.335  0.00  0.00     0.150 HD
HETATM   61  H   UNK N   1      35.458  18.881   7.725  0.00  0.00     0.150 HD
ENDBRANCH   5  59
TORSDOF 22
ENDMDL
MODEL 7
REMARK VINA RESULT:      -6.2      2.709      8.544
REMARK  22 active torsions:
REMARK  status: ('A' for Active; 'I' for Inactive)
REMARK    1  A    between atoms: C_20  and  O_1 
REMARK    2  A    between atoms: C_26  and  O_1 
REMARK    3  A    between atoms: C_21  and  O_2 
REMARK    4  A    between atoms: C_30  and  O_2 
REMARK    5  A    between atoms: C_27  and  O_4 
REMARK    6  A    between atoms: C_33  and  O_4 
REMARK    7  A    between atoms: C_23  and  O_5 
REMARK    8  A    between atoms: C_28  and  O_8 
REMARK    9  A    between atoms: C_32  and  O_9 
REMARK   10  A    between atoms: C_34  and  O_10 
REMARK   11  A    between atoms: C_37  and  O_11 
REMARK   12  A    between atoms: O_12  and  C_38 
REMARK   13  A    between atoms: C_39  and  O_13 
REMARK   14  A    between atoms: C_22  and  N_14 
REMARK   15  A    between atoms: C_24  and  N_15 
REMARK   16  A    between atoms: C_31  and  N_16 
REMARK   17  A    between atoms: C_36  and  N_17 
REMARK   18  A    between atoms: N_18  and  C_41 
REMARK   19  A    between atoms: N_19  and  C_42 
REMARK   20  A    between atoms: C_29  and  C_38 
REMARK   21  A    between atoms: C_35  and  C_41 
REMARK   22  A    between atoms: C_40  and  C_42 
ROOT
HETATM    1  C   UNK N   1      31.967  14.701   5.141  0.00  0.00     0.186 C 
HETATM    2  C   UNK N   1      31.257  16.069   5.148  0.00  0.00     0.178 C 
HETATM    3  C   UNK N   1      32.090  17.283   4.683  0.00  0.00     0.107 C 
HETATM    4  C   UNK N   1      32.557  14.503   3.735  0.00  0.00     0.172 C 
HETATM    5  C   UNK N   1      33.461  15.672   3.321  0.00  0.00     0.107 C 
HETATM    6  C   UNK N   1      32.674  16.984   3.304  0.00  0.00     0.054 C 
ENDROOT
BRANCH   1   7
HETATM    7  O   UNK N   1      32.971  14.687   6.133  0.00  0.00    -0.348 OA
BRANCH   7   8
HETATM    8  C   UNK N   1      32.456  14.544   7.450  0.00  0.00     0.292 C 
HETATM    9  O   UNK N   1      32.253  15.800   8.068  0.00  0.00    -0.348 OA
HETATM   10  C   UNK N   1      33.070  15.842   9.216  0.00  0.00     0.180 C 
HETATM   11  C   UNK N   1      33.893  14.563   9.261  0.00  0.00     0.189 C 
HETATM   12  C   UNK N   1      33.144  13.569   8.408  0.00  0.00     0.205 C 
BRANCH  10  13
HETATM   13  C   UNK N   1      33.950  17.090   9.173  0.00  0.00     0.198 C 
BRANCH  13  14
HETATM   14  O   UNK N   1      34.766  17.187  10.299  0.00  0.00    -0.398 OA
HETATM   15  H   UNK N   1      35.648  17.555  10.471  0.00  0.00     0.209 HD
ENDBRANCH  13  14
ENDBRANCH  10  13
BRANCH  11  16
HETATM   16  O   UNK N   1      34.338  14.142  10.545  0.00  0.00    -0.348 OA
BRANCH  16  17
HETATM   17  C   UNK N   1      35.568  13.439  10.449  0.00  0.00     0.285 C 
HETATM   18  O   UNK N   1      35.383  12.033  10.477  0.00  0.00    -0.350 OA
HETATM   19  C   UNK N   1      34.764  11.677  11.695  0.00  0.00     0.173 C 
HETATM   20  C   UNK N   1      35.728  11.886  12.866  0.00  0.00     0.179 C 
HETATM   21  C   UNK N   1      36.086  13.375  12.908  0.00  0.00     0.176 C 
HETATM   22  C   UNK N   1      36.574  13.852  11.537  0.00  0.00     0.161 C 
BRANCH  19  23
HETATM   23  C   UNK N   1      34.260  10.245  11.616  0.00  0.00     0.145 C 
BRANCH  23  24
HETATM   24  N   UNK N   1      33.077  10.181  10.776  0.00  0.00    -0.428 N 
HETATM   25  H   UNK N   1      32.101   9.929  10.930  0.00  0.00     0.150 HD
HETATM   26  H   UNK N   1      33.266  10.451   9.811  0.00  0.00     0.150 HD
ENDBRANCH  23  24
ENDBRANCH  19  23
BRANCH  20  27
HETATM   27  O   UNK N   1      36.877  11.107  12.689  0.00  0.00    -0.390 OA
HETATM   28  H   UNK N   1      37.246  10.314  12.268  0.00  0.00     0.210 HD
ENDBRANCH  20  27
BRANCH  21  29
HETATM   29  O   UNK N   1      37.051  13.614  13.889  0.00  0.00    -0.391 OA
HETATM   30  H   UNK N   1      37.761  12.982  14.075  0.00  0.00     0.210 HD
ENDBRANCH  21  29
BRANCH  22  31
HETATM   31  N   UNK N   1      36.773  15.292  11.535  0.00  0.00    -0.420 N 
HETATM   32  H   UNK N   1      36.108  16.065  11.576  0.00  0.00     0.150 HD
HETATM   33  H   UNK N   1      37.750  15.581  11.482  0.00  0.00     0.150 HD
ENDBRANCH  22  31
ENDBRANCH  16  17
ENDBRANCH  11  16
BRANCH  12  34
HETATM   34  O   UNK N   1      32.153  12.928   9.152  0.00  0.00    -0.388 OA
HETATM   35  H   UNK N   1      31.188  13.021   9.134  0.00  0.00     0.210 HD
ENDBRANCH  12  34
ENDBRANCH   7   8
ENDBRANCH   1   7
BRANCH   2  36
HETATM   36  O   UNK N   1      30.215  16.295   6.080  0.00  0.00    -0.349 OA
BRANCH  36  37
HETATM   37  C   UNK N   1      29.158  17.080   5.569  0.00  0.00     0.285 C 
HETATM   38  O   UNK N   1      28.411  17.812   6.503  0.00  0.00    -0.350 OA
HETATM   39  C   UNK N   1      28.140  19.028   5.845  0.00  0.00     0.173 C 
HETATM   40  C   UNK N   1      27.192  18.833   4.641  0.00  0.00     0.179 C 
HETATM   41  C   UNK N   1      27.049  17.339   4.296  0.00  0.00     0.176 C 
HETATM   42  C   UNK N   1      28.359  16.537   4.381  0.00  0.00     0.161 C 
BRANCH  39  43
HETATM   43  C   UNK N   1      27.575  20.054   6.811  0.00  0.00     0.145 C 
BRANCH  43  44
HETATM   44  N   UNK N   1      27.383  19.455   8.120  0.00  0.00    -0.428 N 
HETATM   45  H   UNK N   1      26.842  18.628   8.371  0.00  0.00     0.150 HD
HETATM   46  H   UNK N   1      27.854  19.926   8.893  0.00  0.00     0.150 HD
ENDBRANCH  43  44
ENDBRANCH  39  43
BRANCH  40  47
HETATM   47  O   UNK N   1      27.693  19.552   3.554  0.00  0.00    -0.390 OA
HETATM   48  H   UNK N   1      27.462  19.450   2.618  0.00  0.00     0.210 HD
ENDBRANCH  40  47
BRANCH  41  49
HETATM   49  O   UNK N   1      26.372  17.132   3.091  0.00  0.00    -0.391 OA
HETATM   50  H   UNK N   1      25.489  17.488   2.908  0.00  0.00     0.210 HD
ENDBRANCH  41  49
BRANCH  42  51
HETATM   51  N   UNK N   1      29.151  16.696   3.173  0.00  0.00    -0.420 N 
HETATM   52  H   UNK N   1      30.139  16.669   2.920  0.00  0.00     0.150 HD
HETATM   53  H   UNK N   1      28.561  16.885   2.362  0.00  0.00     0.150 HD
ENDBRANCH  42  51
ENDBRANCH  36  37
ENDBRANCH   2  36
BRANCH   4  54
HETATM   54  O   UNK N   1      31.530  14.319   2.805  0.00  0.00    -0.391 OA
HETATM   55  H   UNK N   1      31.051  14.169   1.974  0.00  0.00     0.210 HD
ENDBRANCH   4  54
BRANCH   3  56
HETATM   56  N   UNK N   1      33.181  17.571   5.600  0.00  0.00    -0.423 N 
HETATM   57  H   UNK N   1      33.722  17.935   6.385  0.00  0.00     0.150 HD
HETATM   58  H   UNK N   1      33.917  17.037   5.137  0.00  0.00     0.150 HD
ENDBRANCH   3  56
BRANCH   5  59
HETATM   59  N   UNK N   1      34.037  15.424   2.012  0.00  0.00    -0.423 N 
HETATM   60  H   UNK N   1      33.519  14.883   1.320  0.00  0.00     0.150 HD
HETATM   61  H   UNK N   1      34.960  15.792   1.783  0.00  0.00     0.150 HD
ENDBRANCH   5  59
TORSDOF 22
ENDMDL
MODEL 8
REMARK VINA RESULT:      -6.1      5.119     11.648
REMARK  22 active torsions:
REMARK  status: ('A' for Active; 'I' for Inactive)
REMARK    1  A    between atoms: C_20  and  O_1 
REMARK    2  A    between atoms: C_26  and  O_1 
REMARK    3  A    between atoms: C_21  and  O_2 
REMARK    4  A    between atoms: C_30  and  O_2 
REMARK    5  A    between atoms: C_27  and  O_4 
REMARK    6  A    between atoms: C_33  and  O_4 
REMARK    7  A    between atoms: C_23  and  O_5 
REMARK    8  A    between atoms: C_28  and  O_8 
REMARK    9  A    between atoms: C_32  and  O_9 
REMARK   10  A    between atoms: C_34  and  O_10 
REMARK   11  A    between atoms: C_37  and  O_11 
REMARK   12  A    between atoms: O_12  and  C_38 
REMARK   13  A    between atoms: C_39  and  O_13 
REMARK   14  A    between atoms: C_22  and  N_14 
REMARK   15  A    between atoms: C_24  and  N_15 
REMARK   16  A    between atoms: C_31  and  N_16 
REMARK   17  A    between atoms: C_36  and  N_17 
REMARK   18  A    between atoms: N_18  and  C_41 
REMARK   19  A    between atoms: N_19  and  C_42 
REMARK   20  A    between atoms: C_29  and  C_38 
REMARK   21  A    between atoms: C_35  and  C_41 
REMARK   22  A    between atoms: C_40  and  C_42 
ROOT
HETATM    1  C   UNK N   1      24.460  15.585   5.332  0.00  0.00     0.186 C 
HETATM    2  C   UNK N   1      23.614  14.882   4.252  0.00  0.00     0.178 C 
HETATM    3  C   UNK N   1      23.756  13.348   4.152  0.00  0.00     0.107 C 
HETATM    4  C   UNK N   1      24.169  14.880   6.667  0.00  0.00     0.172 C 
HETATM    5  C   UNK N   1      24.406  13.366   6.582  0.00  0.00     0.107 C 
HETATM    6  C   UNK N   1      23.496  12.735   5.526  0.00  0.00     0.054 C 
ENDROOT
BRANCH   1   7
HETATM    7  O   UNK N   1      25.826  15.500   4.988  0.00  0.00    -0.348 OA
BRANCH   7   8
HETATM    8  C   UNK N   1      26.498  16.751   5.050  0.00  0.00     0.292 C 
HETATM    9  O   UNK N   1      26.961  17.157   3.776  0.00  0.00    -0.348 OA
HETATM   10  C   UNK N   1      28.365  17.267   3.853  0.00  0.00     0.180 C 
HETATM   11  C   UNK N   1      28.801  16.819   5.239  0.00  0.00     0.189 C 
HETATM   12  C   UNK N   1      27.579  16.956   6.113  0.00  0.00     0.205 C 
BRANCH  10  13
HETATM   13  C   UNK N   1      29.005  16.427   2.750  0.00  0.00     0.198 C 
BRANCH  13  14
HETATM   14  O   UNK N   1      30.386  16.613   2.693  0.00  0.00    -0.398 OA
HETATM   15  H   UNK N   1      30.977  17.167   2.159  0.00  0.00     0.209 HD
ENDBRANCH  13  14
ENDBRANCH  10  13
BRANCH  11  16
HETATM   16  O   UNK N   1      30.031  17.352   5.719  0.00  0.00    -0.348 OA
BRANCH  16  17
HETATM   17  C   UNK N   1      30.673  16.436   6.594  0.00  0.00     0.285 C 
HETATM   18  O   UNK N   1      30.356  16.684   7.954  0.00  0.00    -0.350 OA
HETATM   19  C   UNK N   1      30.778  17.988   8.291  0.00  0.00     0.173 C 
HETATM   20  C   UNK N   1      32.307  18.068   8.310  0.00  0.00     0.179 C 
HETATM   21  C   UNK N   1      32.803  17.735   6.900  0.00  0.00     0.176 C 
HETATM   22  C   UNK N   1      32.200  16.414   6.412  0.00  0.00     0.161 C 
BRANCH  19  23
HETATM   23  C   UNK N   1      30.167  18.398   9.621  0.00  0.00     0.145 C 
BRANCH  23  24
HETATM   24  N   UNK N   1      28.727  18.533   9.485  0.00  0.00    -0.428 N 
HETATM   25  H   UNK N   1      28.067  19.305   9.576  0.00  0.00     0.150 HD
HETATM   26  H   UNK N   1      28.271  17.654   9.241  0.00  0.00     0.150 HD
ENDBRANCH  23  24
ENDBRANCH  19  23
BRANCH  20  27
HETATM   27  O   UNK N   1      32.824  17.160   9.242  0.00  0.00    -0.390 OA
HETATM   28  H   UNK N   1      32.984  16.223   9.439  0.00  0.00     0.210 HD
ENDBRANCH  20  27
BRANCH  21  29
HETATM   29  O   UNK N   1      34.198  17.682   6.876  0.00  0.00    -0.391 OA
HETATM   30  H   UNK N   1      34.723  17.620   7.688  0.00  0.00     0.210 HD
ENDBRANCH  21  29
BRANCH  22  31
HETATM   31  N   UNK N   1      32.550  16.171   5.023  0.00  0.00    -0.420 N 
HETATM   32  H   UNK N   1      32.900  15.337   4.551  0.00  0.00     0.150 HD
HETATM   33  H   UNK N   1      32.423  16.976   4.410  0.00  0.00     0.150 HD
ENDBRANCH  22  31
ENDBRANCH  16  17
ENDBRANCH  11  16
BRANCH  12  34
HETATM   34  O   UNK N   1      27.462  18.259   6.599  0.00  0.00    -0.388 OA
HETATM   35  H   UNK N   1      28.141  18.913   6.827  0.00  0.00     0.210 HD
ENDBRANCH  12  34
ENDBRANCH   7   8
ENDBRANCH   1   7
BRANCH   2  36
HETATM   36  O   UNK N   1      23.271  15.596   3.079  0.00  0.00    -0.349 OA
BRANCH  36  37
HETATM   37  C   UNK N   1      22.116  16.396   3.221  0.00  0.00     0.285 C 
HETATM   38  O   UNK N   1      22.317  17.723   3.626  0.00  0.00    -0.350 OA
HETATM   39  C   UNK N   1      21.367  18.454   2.885  0.00  0.00     0.173 C 
HETATM   40  C   UNK N   1      19.921  18.121   3.315  0.00  0.00     0.179 C 
HETATM   41  C   UNK N   1      19.893  16.866   4.208  0.00  0.00     0.176 C 
HETATM   42  C   UNK N   1      20.840  15.741   3.756  0.00  0.00     0.161 C 
BRANCH  39  43
HETATM   43  C   UNK N   1      21.627  19.947   2.991  0.00  0.00     0.145 C 
BRANCH  43  44
HETATM   44  N   UNK N   1      20.654  20.679   2.199  0.00  0.00    -0.428 N 
HETATM   45  H   UNK N   1      19.958  21.356   2.509  0.00  0.00     0.150 HD
HETATM   46  H   UNK N   1      20.669  20.489   1.197  0.00  0.00     0.150 HD
ENDBRANCH  43  44
ENDBRANCH  39  43
BRANCH  40  47
HETATM   47  O   UNK N   1      19.143  17.939   2.170  0.00  0.00    -0.390 OA
HETATM   48  H   UNK N   1      18.176  17.937   2.104  0.00  0.00     0.210 HD
ENDBRANCH  40  47
BRANCH  41  49
HETATM   49  O   UNK N   1      18.594  16.410   4.445  0.00  0.00    -0.391 OA
HETATM   50  H   UNK N   1      18.316  16.004   5.281  0.00  0.00     0.210 HD
ENDBRANCH  41  49
BRANCH  42  51
HETATM   51  N   UNK N   1      20.242  14.948   2.695  0.00  0.00    -0.420 N 
HETATM   52  H   UNK N   1      20.189  14.983   1.676  0.00  0.00     0.150 HD
HETATM   53  H   UNK N   1      19.743  14.140   3.068  0.00  0.00     0.150 HD
ENDBRANCH  42  51
ENDBRANCH  36  37
ENDBRANCH   2  36
BRANCH   4  54
HETATM   54  O   UNK N   1      22.861  15.153   7.079  0.00  0.00    -0.391 OA
HETATM   55  H   UNK N   1      22.098  15.434   7.608  0.00  0.00     0.210 HD
ENDBRANCH   4  54
BRANCH   3  56
HETATM   56  N   UNK N   1      25.086  12.958   3.710  0.00  0.00    -0.423 N 
HETATM   57  H   UNK N   1      25.970  12.918   3.203  0.00  0.00     0.150 HD
HETATM   58  H   UNK N   1      25.246  12.189   4.362  0.00  0.00     0.150 HD
ENDBRANCH   3  56
BRANCH   5  59
HETATM   59  N   UNK N   1      24.169  12.745   7.874  0.00  0.00    -0.423 N 
HETATM   60  H   UNK N   1      24.661  11.888   8.125  0.00  0.00     0.150 HD
HETATM   61  H   UNK N   1      23.512  13.167   8.529  0.00  0.00     0.150 HD
ENDBRANCH   5  59
TORSDOF 22
ENDMDL
MODEL 9
REMARK VINA RESULT:      -6.1      8.750     12.977
REMARK  22 active torsions:
REMARK  status: ('A' for Active; 'I' for Inactive)
REMARK    1  A    between atoms: C_20  and  O_1 
REMARK    2  A    between atoms: C_26  and  O_1 
REMARK    3  A    between atoms: C_21  and  O_2 
REMARK    4  A    between atoms: C_30  and  O_2 
REMARK    5  A    between atoms: C_27  and  O_4 
REMARK    6  A    between atoms: C_33  and  O_4 
REMARK    7  A    between atoms: C_23  and  O_5 
REMARK    8  A    between atoms: C_28  and  O_8 
REMARK    9  A    between atoms: C_32  and  O_9 
REMARK   10  A    between atoms: C_34  and  O_10 
REMARK   11  A    between atoms: C_37  and  O_11 
REMARK   12  A    between atoms: O_12  and  C_38 
REMARK   13  A    between atoms: C_39  and  O_13 
REMARK   14  A    between atoms: C_22  and  N_14 
REMARK   15  A    between atoms: C_24  and  N_15 
REMARK   16  A    between atoms: C_31  and  N_16 
REMARK   17  A    between atoms: C_36  and  N_17 
REMARK   18  A    between atoms: N_18  and  C_41 
REMARK   19  A    between atoms: N_19  and  C_42 
REMARK   20  A    between atoms: C_29  and  C_38 
REMARK   21  A    between atoms: C_35  and  C_41 
REMARK   22  A    between atoms: C_40  and  C_42 
ROOT
HETATM    1  C   UNK N   1      21.362  16.692   3.939  0.00  0.00     0.186 C 
HETATM    2  C   UNK N   1      21.710  15.988   2.612  0.00  0.00     0.178 C 
HETATM    3  C   UNK N   1      20.608  15.968   1.531  0.00  0.00     0.107 C 
HETATM    4  C   UNK N   1      20.859  18.102   3.588  0.00  0.00     0.172 C 
HETATM    5  C   UNK N   1      19.699  18.064   2.584  0.00  0.00     0.107 C 
HETATM    6  C   UNK N   1      20.135  17.398   1.277  0.00  0.00     0.054 C 
ENDROOT
BRANCH   1   7
HETATM    7  O   UNK N   1      20.380  15.946   4.624  0.00  0.00    -0.348 OA
BRANCH   7   8
HETATM    8  C   UNK N   1      20.541  15.968   6.036  0.00  0.00     0.292 C 
HETATM    9  O   UNK N   1      21.854  16.345   6.404  0.00  0.00    -0.348 OA
HETATM   10  C   UNK N   1      22.414  15.271   7.126  0.00  0.00     0.180 C 
HETATM   11  C   UNK N   1      21.411  14.127   7.130  0.00  0.00     0.189 C 
HETATM   12  C   UNK N   1      20.071  14.762   6.851  0.00  0.00     0.205 C 
BRANCH  10  13
HETATM   13  C   UNK N   1      23.743  14.866   6.493  0.00  0.00     0.198 C 
BRANCH  13  14
HETATM   14  O   UNK N   1      24.057  13.533   6.755  0.00  0.00    -0.398 OA
HETATM   15  H   UNK N   1      24.004  12.709   6.246  0.00  0.00     0.209 HD
ENDBRANCH  13  14
ENDBRANCH  10  13
BRANCH  11  16
HETATM   16  O   UNK N   1      21.504  13.208   8.213  0.00  0.00    -0.348 OA
BRANCH  16  17
HETATM   17  C   UNK N   1      21.824  13.880   9.422  0.00  0.00     0.285 C 
HETATM   18  O   UNK N   1      23.194  13.738   9.765  0.00  0.00    -0.350 OA
HETATM   19  C   UNK N   1      23.484  12.366   9.930  0.00  0.00     0.173 C 
HETATM   20  C   UNK N   1      22.793  11.820  11.183  0.00  0.00     0.179 C 
HETATM   21  C   UNK N   1      21.283  11.987  10.985  0.00  0.00     0.176 C 
HETATM   22  C   UNK N   1      20.944  13.430  10.601  0.00  0.00     0.161 C 
BRANCH  19  23
HETATM   23  C   UNK N   1      24.990  12.162   9.971  0.00  0.00     0.145 C 
BRANCH  23  24
HETATM   24  N   UNK N   1      25.627  13.300  10.609  0.00  0.00    -0.428 N 
HETATM   25  H   UNK N   1      25.384  14.283  10.733  0.00  0.00     0.150 HD
HETATM   26  H   UNK N   1      26.525  13.062  11.031  0.00  0.00     0.150 HD
ENDBRANCH  23  24
ENDBRANCH  19  23
BRANCH  20  27
HETATM   27  O   UNK N   1      23.223  12.522  12.315  0.00  0.00    -0.390 OA
HETATM   28  H   UNK N   1      23.994  12.859  12.799  0.00  0.00     0.210 HD
ENDBRANCH  20  27
BRANCH  21  29
HETATM   29  O   UNK N   1      20.598  11.607  12.142  0.00  0.00    -0.391 OA
HETATM   30  H   UNK N   1      19.764  11.116  12.106  0.00  0.00     0.210 HD
ENDBRANCH  21  29
BRANCH  22  31
HETATM   31  N   UNK N   1      19.535  13.557  10.269  0.00  0.00    -0.420 N 
HETATM   32  H   UNK N   1      18.743  13.905  10.811  0.00  0.00     0.150 HD
HETATM   33  H   UNK N   1      19.295  13.242   9.330  0.00  0.00     0.150 HD
ENDBRANCH  22  31
ENDBRANCH  16  17
ENDBRANCH  11  16
BRANCH  12  34
HETATM   34  O   UNK N   1      19.495  15.238   8.029  0.00  0.00    -0.388 OA
HETATM   35  H   UNK N   1      18.621  15.625   8.196  0.00  0.00     0.210 HD
ENDBRANCH  12  34
ENDBRANCH   7   8
ENDBRANCH   1   7
BRANCH   2  36
HETATM   36  O   UNK N   1      22.649  14.930   2.624  0.00  0.00    -0.349 OA
BRANCH  36  37
HETATM   37  C   UNK N   1      23.976  15.353   2.862  0.00  0.00     0.285 C 
HETATM   38  O   UNK N   1      24.161  16.716   3.134  0.00  0.00    -0.350 OA
HETATM   39  C   UNK N   1      25.168  16.733   4.119  0.00  0.00     0.173 C 
HETATM   40  C   UNK N   1      26.527  16.249   3.563  0.00  0.00     0.179 C 
HETATM   41  C   UNK N   1      26.347  15.589   2.183  0.00  0.00     0.176 C 
HETATM   42  C   UNK N   1      25.102  14.692   2.063  0.00  0.00     0.161 C 
BRANCH  39  43
HETATM   43  C   UNK N   1      25.304  18.115   4.734  0.00  0.00     0.145 C 
BRANCH  43  44
HETATM   44  N   UNK N   1      24.075  18.479   5.417  0.00  0.00    -0.428 N 
HETATM   45  H   UNK N   1      23.135  18.108   5.282  0.00  0.00     0.150 HD
HETATM   46  H   UNK N   1      24.165  19.205   6.128  0.00  0.00     0.150 HD
ENDBRANCH  43  44
ENDBRANCH  39  43
BRANCH  40  47
HETATM   47  O   UNK N   1      27.093  15.357   4.475  0.00  0.00    -0.390 OA
HETATM   48  H   UNK N   1      26.832  15.207   5.397  0.00  0.00     0.210 HD
ENDBRANCH  40  47
BRANCH  41  49
HETATM   49  O   UNK N   1      27.510  14.953   1.740  0.00  0.00    -0.391 OA
HETATM   50  H   UNK N   1      28.205  14.638   2.338  0.00  0.00     0.210 HD
ENDBRANCH  41  49
BRANCH  42  51
HETATM   51  N   UNK N   1      25.353  13.371   2.615  0.00  0.00    -0.420 N 
HETATM   52  H   UNK N   1      25.718  12.479   2.280  0.00  0.00     0.150 HD
HETATM   53  H   UNK N   1      25.098  13.324   3.602  0.00  0.00     0.150 HD
ENDBRANCH  42  51
ENDBRANCH  36  37
ENDBRANCH   2  36
BRANCH   4  54
HETATM   54  O   UNK N   1      21.912  18.879   3.097  0.00  0.00    -0.391 OA
HETATM   55  H   UNK N   1      22.423  19.620   2.735  0.00  0.00     0.210 HD
ENDBRANCH   4  54
BRANCH   3  56
HETATM   56  N   UNK N   1      19.467  15.165   1.940  0.00  0.00    -0.423 N 
HETATM   57  H   UNK N   1      18.863  14.371   2.158  0.00  0.00     0.150 HD
HETATM   58  H   UNK N   1      18.820  15.920   2.169  0.00  0.00     0.150 HD
ENDBRANCH   3  56
BRANCH   5  59
HETATM   59  N   UNK N   1      19.220  19.409   2.317  0.00  0.00    -0.423 N 
HETATM   60  H   UNK N   1      19.634  19.957   1.562  0.00  0.00     0.150 HD
HETATM   61  H   UNK N   1      18.470  19.805   2.882  0.00  0.00     0.150 HD
ENDBRANCH   5  59
TORSDOF 22
ENDMDL
