MODEL 1
REMARK VINA RESULT:      -5.9      0.000      0.000
REMARK  4 active torsions:
REMARK  status: ('A' for Active; 'I' for Inactive)
REMARK    1  A    between atoms: O_1  and  C_10 
REMARK    2  A    between atoms: O_1  and  C_17 
REMARK    3  A    between atoms: C_4  and  C_9 
REMARK    4  A    between atoms: C_4  and  C_10 
ROOT
HETATM    1  N   UNK N   1      35.621   9.624  15.801  0.00  0.00     0.084 N 
HETATM    2  C   UNK N   1      35.873  12.387  14.690  0.00  0.00     0.078 C 
HETATM    3  C   UNK N   1      37.050  11.388  14.715  0.00  0.00     0.055 C 
HETATM    4  C   UNK N   1      34.537  11.669  14.993  0.00  0.00     0.055 C 
HETATM    5  C   UNK N   1      36.907  10.343  15.828  0.00  0.00     0.273 C 
HETATM    6  C   UNK N   1      34.655  10.156  14.833  0.00  0.00     0.273 C 
HETATM    7  C   UNK N   1      35.895   8.247  15.433  0.00  0.00     0.309 C 
ENDROOT
BRANCH   2   8
HETATM    8  C   UNK N   1      36.081  13.449  15.766  0.00  0.00    -0.040 A 
HETATM    9  C   UNK N   1      35.325  13.462  16.952  0.00  0.00     0.008 A 
HETATM   10  C   UNK N   1      35.529  14.457  17.914  0.00  0.00     0.001 A 
HETATM   11  C   UNK N   1      36.490  15.451  17.703  0.00  0.00     0.000 A 
HETATM   12  C   UNK N   1      37.250  15.447  16.533  0.00  0.00     0.001 A 
HETATM   13  C   UNK N   1      37.048  14.454  15.572  0.00  0.00     0.008 A 
ENDBRANCH   2   8
BRANCH   2  14
HETATM   14  C   UNK N   1      35.843  12.951  13.276  0.00  0.00     0.272 C 
HETATM   15  O   UNK N   1      36.681  12.582  12.460  0.00  0.00    -0.264 OA
BRANCH  14  16
HETATM   16  O   UNK N   1      34.861  13.812  12.897  0.00  0.00    -0.321 OA
BRANCH  16  17
HETATM   17  C   UNK N   1      34.833  14.380  11.643  0.00  0.00     0.174 C 
HETATM   18  C   UNK N   1      35.543  15.717  11.655  0.00  0.00     0.034 C 
ENDBRANCH  16  17
ENDBRANCH  14  16
ENDBRANCH   2  14
TORSDOF 4
ENDMDL
MODEL 2
REMARK VINA RESULT:      -5.6      6.870      9.486
REMARK  4 active torsions:
REMARK  status: ('A' for Active; 'I' for Inactive)
REMARK    1  A    between atoms: O_1  and  C_10 
REMARK    2  A    between atoms: O_1  and  C_17 
REMARK    3  A    between atoms: C_4  and  C_9 
REMARK    4  A    between atoms: C_4  and  C_10 
ROOT
HETATM    1  N   UNK N   1      33.227  13.862   8.783  0.00  0.00     0.084 N 
HETATM    2  C   UNK N   1      32.941  16.567   7.546  0.00  0.00     0.078 C 
HETATM    3  C   UNK N   1      33.605  16.346   8.922  0.00  0.00     0.055 C 
HETATM    4  C   UNK N   1      32.766  15.226   6.798  0.00  0.00     0.055 C 
HETATM    5  C   UNK N   1      33.107  15.072   9.615  0.00  0.00     0.273 C 
HETATM    6  C   UNK N   1      33.634  14.123   7.396  0.00  0.00     0.273 C 
HETATM    7  C   UNK N   1      34.241  13.014   9.383  0.00  0.00     0.309 C 
ENDROOT
BRANCH   2   8
HETATM    8  C   UNK N   1      31.552  17.172   7.740  0.00  0.00    -0.040 A 
HETATM    9  C   UNK N   1      30.472  16.835   6.905  0.00  0.00     0.008 A 
HETATM   10  C   UNK N   1      29.214  17.416   7.100  0.00  0.00     0.001 A 
HETATM   11  C   UNK N   1      29.021  18.340   8.131  0.00  0.00     0.000 A 
HETATM   12  C   UNK N   1      30.082  18.680   8.970  0.00  0.00     0.001 A 
HETATM   13  C   UNK N   1      31.338  18.100   8.777  0.00  0.00     0.008 A 
ENDBRANCH   2   8
BRANCH   2  14
HETATM   14  C   UNK N   1      33.892  17.468   6.769  0.00  0.00     0.272 C 
HETATM   15  O   UNK N   1      34.591  18.273   7.375  0.00  0.00    -0.264 OA
BRANCH  14  16
HETATM   16  O   UNK N   1      34.014  17.344   5.421  0.00  0.00    -0.321 OA
BRANCH  16  17
HETATM   17  C   UNK N   1      33.081  17.865   4.553  0.00  0.00     0.174 C 
HETATM   18  C   UNK N   1      32.794  16.881   3.439  0.00  0.00     0.034 C 
ENDBRANCH  16  17
ENDBRANCH  14  16
ENDBRANCH   2  14
TORSDOF 4
ENDMDL
MODEL 3
REMARK VINA RESULT:      -5.5     21.841     25.213
REMARK  4 active torsions:
REMARK  status: ('A' for Active; 'I' for Inactive)
REMARK    1  A    between atoms: O_1  and  C_10 
REMARK    2  A    between atoms: O_1  and  C_17 
REMARK    3  A    between atoms: C_4  and  C_9 
REMARK    4  A    between atoms: C_4  and  C_10 
ROOT
HETATM    1  N   UNK N   1      26.867  23.866  -7.578  0.00  0.00     0.084 N 
HETATM    2  C   UNK N   1      27.239  24.935  -4.812  0.00  0.00     0.078 C 
HETATM    3  C   UNK N   1      25.944  24.227  -5.265  0.00  0.00     0.055 C 
HETATM    4  C   UNK N   1      28.373  24.715  -5.839  0.00  0.00     0.055 C 
HETATM    5  C   UNK N   1      25.719  24.330  -6.779  0.00  0.00     0.273 C 
HETATM    6  C   UNK N   1      28.066  23.560  -6.788  0.00  0.00     0.273 C 
HETATM    7  C   UNK N   1      26.467  22.646  -8.255  0.00  0.00     0.309 C 
ENDROOT
BRANCH   2   8
HETATM    8  C   UNK N   1      26.992  26.438  -4.712  0.00  0.00    -0.040 A 
HETATM    9  C   UNK N   1      26.140  26.987  -3.737  0.00  0.00     0.008 A 
HETATM   10  C   UNK N   1      25.922  28.368  -3.679  0.00  0.00     0.001 A 
HETATM   11  C   UNK N   1      26.553  29.216  -4.594  0.00  0.00     0.000 A 
HETATM   12  C   UNK N   1      27.405  28.686  -5.563  0.00  0.00     0.001 A 
HETATM   13  C   UNK N   1      27.623  27.308  -5.622  0.00  0.00     0.008 A 
ENDBRANCH   2   8
BRANCH   2  14
HETATM   14  C   UNK N   1      27.616  24.292  -3.484  0.00  0.00     0.272 C 
HETATM   15  O   UNK N   1      26.735  23.852  -2.754  0.00  0.00    -0.264 OA
BRANCH  14  16
HETATM   16  O   UNK N   1      28.922  24.149  -3.133  0.00  0.00    -0.321 OA
BRANCH  16  17
HETATM   17  C   UNK N   1      29.362  23.086  -2.376  0.00  0.00     0.174 C 
HETATM   18  C   UNK N   1      30.115  22.101  -3.242  0.00  0.00     0.034 C 
ENDBRANCH  16  17
ENDBRANCH  14  16
ENDBRANCH   2  14
TORSDOF 4
ENDMDL
MODEL 4
REMARK VINA RESULT:      -5.5      2.359      4.371
REMARK  4 active torsions:
REMARK  status: ('A' for Active; 'I' for Inactive)
REMARK    1  A    between atoms: O_1  and  C_10 
REMARK    2  A    between atoms: O_1  and  C_17 
REMARK    3  A    between atoms: C_4  and  C_9 
REMARK    4  A    between atoms: C_4  and  C_10 
ROOT
HETATM    1  N   UNK N   1      36.451  12.549  12.350  0.00  0.00     0.084 N 
HETATM    2  C   UNK N   1      35.967  12.110  15.267  0.00  0.00     0.078 C 
HETATM    3  C   UNK N   1      34.820  12.309  14.252  0.00  0.00     0.055 C 
HETATM    4  C   UNK N   1      37.305  11.845  14.539  0.00  0.00     0.055 C 
HETATM    5  C   UNK N   1      35.261  13.106  13.019  0.00  0.00     0.273 C 
HETATM    6  C   UNK N   1      37.091  11.448  13.081  0.00  0.00     0.273 C 
HETATM    7  C   UNK N   1      36.029  12.031  11.062  0.00  0.00     0.309 C 
ENDROOT
BRANCH   2   8
HETATM    8  C   UNK N   1      36.137  13.377  16.100  0.00  0.00    -0.040 A 
HETATM    9  C   UNK N   1      37.044  14.389  15.736  0.00  0.00     0.008 A 
HETATM   10  C   UNK N   1      37.188  15.533  16.528  0.00  0.00     0.001 A 
HETATM   11  C   UNK N   1      36.429  15.680  17.693  0.00  0.00     0.000 A 
HETATM   12  C   UNK N   1      35.521  14.687  18.063  0.00  0.00     0.001 A 
HETATM   13  C   UNK N   1      35.376  13.545  17.273  0.00  0.00     0.008 A 
ENDBRANCH   2   8
BRANCH   2  14
HETATM   14  C   UNK N   1      35.580  10.888  16.090  0.00  0.00     0.272 C 
HETATM   15  O   UNK N   1      34.509  10.331  15.877  0.00  0.00    -0.264 OA
BRANCH  14  16
HETATM   16  O   UNK N   1      36.438  10.379  17.014  0.00  0.00    -0.321 OA
BRANCH  16  17
HETATM   17  C   UNK N   1      35.999   9.616  18.073  0.00  0.00     0.174 C 
HETATM   18  C   UNK N   1      36.600  10.120  19.367  0.00  0.00     0.034 C 
ENDBRANCH  16  17
ENDBRANCH  14  16
ENDBRANCH   2  14
TORSDOF 4
ENDMDL
MODEL 5
REMARK VINA RESULT:      -5.4     21.879     25.350
REMARK  4 active torsions:
REMARK  status: ('A' for Active; 'I' for Inactive)
REMARK    1  A    between atoms: O_1  and  C_10 
REMARK    2  A    between atoms: O_1  and  C_17 
REMARK    3  A    between atoms: C_4  and  C_9 
REMARK    4  A    between atoms: C_4  and  C_10 
ROOT
HETATM    1  N   UNK N   1      26.953  27.418  -6.116  0.00  0.00     0.084 N 
HETATM    2  C   UNK N   1      27.290  24.693  -4.936  0.00  0.00     0.078 C 
HETATM    3  C   UNK N   1      28.487  25.578  -5.345  0.00  0.00     0.055 C 
HETATM    4  C   UNK N   1      25.981  25.516  -4.912  0.00  0.00     0.055 C 
HETATM    5  C   UNK N   1      28.123  26.584  -6.444  0.00  0.00     0.273 C 
HETATM    6  C   UNK N   1      26.253  27.018  -4.890  0.00  0.00     0.273 C 
HETATM    7  C   UNK N   1      27.422  28.779  -5.927  0.00  0.00     0.309 C 
ENDROOT
BRANCH   2   8
HETATM    8  C   UNK N   1      27.111  23.572  -5.956  0.00  0.00    -0.040 A 
HETATM    9  C   UNK N   1      25.844  23.209  -6.447  0.00  0.00     0.008 A 
HETATM   10  C   UNK N   1      25.711  22.167  -7.371  0.00  0.00     0.001 A 
HETATM   11  C   UNK N   1      26.841  21.476  -7.817  0.00  0.00     0.000 A 
HETATM   12  C   UNK N   1      28.106  21.829  -7.343  0.00  0.00     0.001 A 
HETATM   13  C   UNK N   1      28.240  22.868  -6.420  0.00  0.00     0.008 A 
ENDBRANCH   2   8
BRANCH   2  14
HETATM   14  C   UNK N   1      27.608  24.193  -3.533  0.00  0.00     0.272 C 
HETATM   15  O   UNK N   1      26.692  23.854  -2.791  0.00  0.00    -0.264 OA
BRANCH  14  16
HETATM   16  O   UNK N   1      28.897  24.066  -3.122  0.00  0.00    -0.321 OA
BRANCH  16  17
HETATM   17  C   UNK N   1      29.325  22.981  -2.389  0.00  0.00     0.174 C 
HETATM   18  C   UNK N   1      30.105  22.028  -3.269  0.00  0.00     0.034 C 
ENDBRANCH  16  17
ENDBRANCH  14  16
ENDBRANCH   2  14
TORSDOF 4
ENDMDL
MODEL 6
REMARK VINA RESULT:      -5.3     22.298     25.511
REMARK  4 active torsions:
REMARK  status: ('A' for Active; 'I' for Inactive)
REMARK    1  A    between atoms: O_1  and  C_10 
REMARK    2  A    between atoms: O_1  and  C_17 
REMARK    3  A    between atoms: C_4  and  C_9 
REMARK    4  A    between atoms: C_4  and  C_10 
ROOT
HETATM    1  N   UNK N   1      29.382  24.314  -3.143  0.00  0.00     0.084 N 
HETATM    2  C   UNK N   1      27.172  25.362  -4.860  0.00  0.00     0.078 C 
HETATM    3  C   UNK N   1      28.567  25.009  -5.419  0.00  0.00     0.055 C 
HETATM    4  C   UNK N   1      26.996  24.801  -3.430  0.00  0.00     0.055 C 
HETATM    5  C   UNK N   1      29.666  25.103  -4.355  0.00  0.00     0.273 C 
HETATM    6  C   UNK N   1      28.035  23.731  -3.106  0.00  0.00     0.273 C 
HETATM    7  C   UNK N   1      30.333  23.218  -3.098  0.00  0.00     0.309 C 
ENDROOT
BRANCH   2   8
HETATM    8  C   UNK N   1      27.021  26.879  -4.783  0.00  0.00    -0.040 A 
HETATM    9  C   UNK N   1      27.588  27.732  -5.747  0.00  0.00     0.008 A 
HETATM   10  C   UNK N   1      27.445  29.119  -5.641  0.00  0.00     0.001 A 
HETATM   11  C   UNK N   1      26.733  29.672  -4.572  0.00  0.00     0.000 A 
HETATM   12  C   UNK N   1      26.160  28.838  -3.612  0.00  0.00     0.001 A 
HETATM   13  C   UNK N   1      26.302  27.453  -3.716  0.00  0.00     0.008 A 
ENDBRANCH   2   8
BRANCH   2  14
HETATM   14  C   UNK N   1      26.172  24.699  -5.798  0.00  0.00     0.272 C 
HETATM   15  O   UNK N   1      25.014  24.537  -5.430  0.00  0.00    -0.264 OA
BRANCH  14  16
HETATM   16  O   UNK N   1      26.540  24.342  -7.057  0.00  0.00    -0.321 OA
BRANCH  16  17
HETATM   17  C   UNK N   1      25.750  24.613  -8.152  0.00  0.00     0.174 C 
HETATM   18  C   UNK N   1      25.909  26.059  -8.569  0.00  0.00     0.034 C 
ENDBRANCH  16  17
ENDBRANCH  14  16
ENDBRANCH   2  14
TORSDOF 4
ENDMDL
MODEL 7
REMARK VINA RESULT:      -5.2     22.587     25.701
REMARK  4 active torsions:
REMARK  status: ('A' for Active; 'I' for Inactive)
REMARK    1  A    between atoms: O_1  and  C_10 
REMARK    2  A    between atoms: O_1  and  C_17 
REMARK    3  A    between atoms: C_4  and  C_9 
REMARK    4  A    between atoms: C_4  and  C_10 
ROOT
HETATM    1  N   UNK N   1      29.124  24.421  -3.246  0.00  0.00     0.084 N 
HETATM    2  C   UNK N   1      27.012  25.741  -4.897  0.00  0.00     0.078 C 
HETATM    3  C   UNK N   1      28.371  25.299  -5.481  0.00  0.00     0.055 C 
HETATM    4  C   UNK N   1      26.788  25.125  -3.497  0.00  0.00     0.055 C 
HETATM    5  C   UNK N   1      29.475  25.244  -4.417  0.00  0.00     0.273 C 
HETATM    6  C   UNK N   1      27.732  23.955  -3.233  0.00  0.00     0.273 C 
HETATM    7  C   UNK N   1      29.977  23.247  -3.262  0.00  0.00     0.309 C 
ENDROOT
BRANCH   2   8
HETATM    8  C   UNK N   1      26.991  27.260  -4.742  0.00  0.00    -0.040 A 
HETATM    9  C   UNK N   1      26.377  27.885  -3.642  0.00  0.00     0.008 A 
HETATM   10  C   UNK N   1      26.363  29.280  -3.535  0.00  0.00     0.001 A 
HETATM   11  C   UNK N   1      26.961  30.066  -4.524  0.00  0.00     0.000 A 
HETATM   12  C   UNK N   1      27.579  29.459  -5.618  0.00  0.00     0.001 A 
HETATM   13  C   UNK N   1      27.594  28.067  -5.726  0.00  0.00     0.008 A 
ENDBRANCH   2   8
BRANCH   2  14
HETATM   14  C   UNK N   1      25.959  25.215  -5.864  0.00  0.00     0.272 C 
HETATM   15  O   UNK N   1      24.774  25.451  -5.653  0.00  0.00    -0.264 OA
BRANCH  14  16
HETATM   16  O   UNK N   1      26.327  24.539  -6.985  0.00  0.00    -0.321 OA
BRANCH  16  17
HETATM   17  C   UNK N   1      25.809  24.845  -8.224  0.00  0.00     0.174 C 
HETATM   18  C   UNK N   1      26.343  26.178  -8.701  0.00  0.00     0.034 C 
ENDBRANCH  16  17
ENDBRANCH  14  16
ENDBRANCH   2  14
TORSDOF 4
ENDMDL
MODEL 8
REMARK VINA RESULT:      -5.2     22.699     25.483
REMARK  4 active torsions:
REMARK  status: ('A' for Active; 'I' for Inactive)
REMARK    1  A    between atoms: O_1  and  C_10 
REMARK    2  A    between atoms: O_1  and  C_17 
REMARK    3  A    between atoms: C_4  and  C_9 
REMARK    4  A    between atoms: C_4  and  C_10 
ROOT
HETATM    1  N   UNK N   1      27.249  29.118  -4.011  0.00  0.00     0.084 N 
HETATM    2  C   UNK N   1      26.927  26.260  -4.825  0.00  0.00     0.078 C 
HETATM    3  C   UNK N   1      25.991  26.948  -3.807  0.00  0.00     0.055 C 
HETATM    4  C   UNK N   1      27.790  27.304  -5.570  0.00  0.00     0.055 C 
HETATM    5  C   UNK N   1      26.666  28.124  -3.092  0.00  0.00     0.273 C 
HETATM    6  C   UNK N   1      27.229  28.716  -5.423  0.00  0.00     0.273 C 
HETATM    7  C   UNK N   1      26.469  30.336  -3.893  0.00  0.00     0.309 C 
ENDROOT
BRANCH   2   8
HETATM    8  C   UNK N   1      27.876  25.317  -4.089  0.00  0.00    -0.040 A 
HETATM    9  C   UNK N   1      29.272  25.409  -4.231  0.00  0.00     0.008 A 
HETATM   10  C   UNK N   1      30.115  24.521  -3.555  0.00  0.00     0.001 A 
HETATM   11  C   UNK N   1      29.574  23.531  -2.729  0.00  0.00     0.000 A 
HETATM   12  C   UNK N   1      28.191  23.432  -2.574  0.00  0.00     0.001 A 
HETATM   13  C   UNK N   1      27.348  24.318  -3.249  0.00  0.00     0.008 A 
ENDBRANCH   2   8
BRANCH   2  14
HETATM   14  C   UNK N   1      26.011  25.552  -5.813  0.00  0.00     0.272 C 
HETATM   15  O   UNK N   1      24.813  25.457  -5.566  0.00  0.00    -0.264 OA
BRANCH  14  16
HETATM   16  O   UNK N   1      26.499  25.079  -6.990  0.00  0.00    -0.321 OA
BRANCH  16  17
HETATM   17  C   UNK N   1      26.284  23.782  -7.401  0.00  0.00     0.174 C 
HETATM   18  C   UNK N   1      27.244  22.844  -6.702  0.00  0.00     0.034 C 
ENDBRANCH  16  17
ENDBRANCH  14  16
ENDBRANCH   2  14
TORSDOF 4
ENDMDL
MODEL 9
REMARK VINA RESULT:      -5.2     10.375     13.537
REMARK  4 active torsions:
REMARK  status: ('A' for Active; 'I' for Inactive)
REMARK    1  A    between atoms: O_1  and  C_10 
REMARK    2  A    between atoms: O_1  and  C_17 
REMARK    3  A    between atoms: C_4  and  C_9 
REMARK    4  A    between atoms: C_4  and  C_10 
ROOT
HETATM    1  N   UNK N   1      26.902  15.293   3.625  0.00  0.00     0.084 N 
HETATM    2  C   UNK N   1      28.710  17.218   5.025  0.00  0.00     0.078 C 
HETATM    3  C   UNK N   1      27.907  16.132   5.774  0.00  0.00     0.055 C 
HETATM    4  C   UNK N   1      28.702  16.953   3.501  0.00  0.00     0.055 C 
HETATM    5  C   UNK N   1      26.644  15.709   5.015  0.00  0.00     0.273 C 
HETATM    6  C   UNK N   1      28.280  15.524   3.174  0.00  0.00     0.273 C 
HETATM    7  C   UNK N   1      26.648  13.866   3.539  0.00  0.00     0.309 C 
ENDROOT
BRANCH   2   8
HETATM    8  C   UNK N   1      28.066  18.582   5.259  0.00  0.00    -0.040 A 
HETATM    9  C   UNK N   1      27.970  19.147   6.544  0.00  0.00     0.008 A 
HETATM   10  C   UNK N   1      27.362  20.393   6.729  0.00  0.00     0.001 A 
HETATM   11  C   UNK N   1      26.843  21.090   5.634  0.00  0.00     0.000 A 
HETATM   12  C   UNK N   1      26.936  20.544   4.353  0.00  0.00     0.001 A 
HETATM   13  C   UNK N   1      27.543  19.301   4.167  0.00  0.00     0.008 A 
ENDBRANCH   2   8
BRANCH   2  14
HETATM   14  C   UNK N   1      30.133  17.118   5.556  0.00  0.00     0.272 C 
HETATM   15  O   UNK N   1      31.064  17.525   4.869  0.00  0.00    -0.264 OA
BRANCH  14  16
HETATM   16  O   UNK N   1      30.372  16.638   6.805  0.00  0.00    -0.321 OA
BRANCH  16  17
HETATM   17  C   UNK N   1      31.363  17.155   7.609  0.00  0.00     0.174 C 
HETATM   18  C   UNK N   1      30.759  18.013   8.700  0.00  0.00     0.034 C 
ENDBRANCH  16  17
ENDBRANCH  14  16
ENDBRANCH   2  14
TORSDOF 4
ENDMDL
