MODEL 1
REMARK VINA RESULT:      -8.1      0.000      0.000
REMARK  2 active torsions:
REMARK  status: ('A' for Active; 'I' for Inactive)
REMARK    1  A    between atoms: O_2  and  C_20 
REMARK    2  A    between atoms: O_2  and  C_27 
REMARK       I    between atoms: N_4  and  C_20 
ROOT
HETATM    1 Cl   UNK N   1      35.653  13.704  17.742  0.00  0.00    -0.084 Cl
HETATM    2  O   UNK N   1      34.585  17.750   9.440  0.00  0.00    -0.238 OA
HETATM    3  N   UNK N   1      35.458  15.690   9.330  0.00  0.00    -0.327 N 
HETATM    4  N   UNK N   1      33.565  11.332   9.958  0.00  0.00    -0.365 N 
ATOM      5  HN  UNK N   1      33.678  12.212   9.456  1.00  0.00     0.165 HD
HETATM    6  C   UNK N   1      35.494  13.311  10.846  0.00  0.00    -0.064 C 
HETATM    7  C   UNK N   1      35.279  13.225   9.340  0.00  0.00     0.055 C 
HETATM    8  C   UNK N   1      36.373  14.466  11.252  0.00  0.00     0.055 C 
HETATM    9  C   UNK N   1      34.946  12.401  11.760  0.00  0.00     0.004 C 
HETATM   10  C   UNK N   1      35.797  14.473   8.599  0.00  0.00     0.132 C 
HETATM   11  C   UNK N   1      35.778  15.765  10.747  0.00  0.00     0.132 C 
HETATM   12  C   UNK N   1      35.139  12.626  13.296  0.00  0.00    -0.017 A 
HETATM   13  C   UNK N   1      34.137  11.215  11.195  0.00  0.00     0.049 A 
HETATM   14  C   UNK N   1      34.573  11.816  14.334  0.00  0.00    -0.045 A 
HETATM   15  C   UNK N   1      33.760  10.616  14.093  0.00  0.00     0.044 C 
HETATM   16  C   UNK N   1      34.525   9.705  13.197  0.00  0.00     0.045 C 
HETATM   17  C   UNK N   1      33.973   9.973  11.865  0.00  0.00    -0.030 A 
HETATM   18  C   UNK N   1      35.863  13.754  13.738  0.00  0.00     0.014 A 
HETATM   19  C   UNK N   1      34.849  16.777   8.746  0.00  0.00     0.362 C 
HETATM   20  C   UNK N   1      34.753  12.154  15.684  0.00  0.00     0.031 A 
HETATM   21  C   UNK N   1      33.250   8.941  11.259  0.00  0.00     0.011 A 
HETATM   22  C   UNK N   1      36.031  14.084  15.078  0.00  0.00     0.024 A 
HETATM   23  C   UNK N   1      35.473  13.281  16.055  0.00  0.00     0.034 A 
HETATM   24  C   UNK N   1      32.686   9.120  10.005  0.00  0.00     0.018 A 
HETATM   25  C   UNK N   1      32.854  10.338   9.362  0.00  0.00     0.088 A 
ENDROOT
BRANCH  19  26
HETATM   26  O   UNK N   1      34.520  16.843   7.424  0.00  0.00    -0.304 OA
BRANCH  26  27
HETATM   27  C   UNK N   1      33.532  17.605   6.852  0.00  0.00     0.176 C 
HETATM   28  C   UNK N   1      33.503  17.350   5.361  0.00  0.00     0.034 C 
ENDBRANCH  26  27
ENDBRANCH  19  26
TORSDOF 2
ENDMDL
MODEL 2
REMARK VINA RESULT:      -7.5      6.962     10.429
REMARK  2 active torsions:
REMARK  status: ('A' for Active; 'I' for Inactive)
REMARK    1  A    between atoms: O_2  and  C_20 
REMARK    2  A    between atoms: O_2  and  C_27 
REMARK       I    between atoms: N_4  and  C_20 
ROOT
HETATM    1 Cl   UNK N   1      25.965  22.063   7.028  0.00  0.00    -0.084 Cl
HETATM    2  O   UNK N   1      34.276  17.937   6.449  0.00  0.00    -0.238 OA
HETATM    3  N   UNK N   1      32.558  16.499   6.469  0.00  0.00    -0.327 N 
HETATM    4  N   UNK N   1      29.255  15.354   3.190  0.00  0.00    -0.365 N 
ATOM      5  HN  UNK N   1      30.207  15.376   3.555  1.00  0.00     0.165 HD
HETATM    6  C   UNK N   1      29.813  16.454   5.817  0.00  0.00    -0.064 C 
HETATM    7  C   UNK N   1      30.694  15.289   5.387  0.00  0.00     0.055 C 
HETATM    8  C   UNK N   1      30.262  17.089   7.109  0.00  0.00     0.055 C 
HETATM    9  C   UNK N   1      28.691  16.885   5.096  0.00  0.00     0.004 C 
HETATM   10  C   UNK N   1      31.981  15.180   6.229  0.00  0.00     0.132 C 
HETATM   11  C   UNK N   1      31.698  17.555   6.980  0.00  0.00     0.132 C 
HETATM   12  C   UNK N   1      27.904  18.154   5.562  0.00  0.00    -0.017 A 
HETATM   13  C   UNK N   1      28.298  16.087   3.836  0.00  0.00     0.049 A 
HETATM   14  C   UNK N   1      26.789  18.740   4.880  0.00  0.00    -0.045 A 
HETATM   15  C   UNK N   1      26.192  18.192   3.653  0.00  0.00     0.044 C 
HETATM   16  C   UNK N   1      25.852  16.762   3.897  0.00  0.00     0.045 C 
HETATM   17  C   UNK N   1      26.979  16.027   3.312  0.00  0.00    -0.030 A 
HETATM   18  C   UNK N   1      28.345  18.853   6.707  0.00  0.00     0.014 A 
HETATM   19  C   UNK N   1      33.881  16.798   6.237  0.00  0.00     0.362 C 
HETATM   20  C   UNK N   1      26.202  19.924   5.350  0.00  0.00     0.031 A 
HETATM   21  C   UNK N   1      26.709  15.248   2.183  0.00  0.00     0.011 A 
HETATM   22  C   UNK N   1      27.761  20.029   7.162  0.00  0.00     0.024 A 
HETATM   23  C   UNK N   1      26.687  20.568   6.480  0.00  0.00     0.034 A 
HETATM   24  C   UNK N   1      27.723  14.531   1.564  0.00  0.00     0.018 A 
HETATM   25  C   UNK N   1      29.006  14.599   2.087  0.00  0.00     0.088 A 
ENDROOT
BRANCH  19  26
HETATM   26  O   UNK N   1      34.795  15.893   5.783  0.00  0.00    -0.304 OA
BRANCH  26  27
HETATM   27  C   UNK N   1      35.579  15.056   6.537  0.00  0.00     0.176 C 
HETATM   28  C   UNK N   1      36.727  14.548   5.692  0.00  0.00     0.034 C 
ENDBRANCH  26  27
ENDBRANCH  19  26
TORSDOF 2
ENDMDL
MODEL 3
REMARK VINA RESULT:      -7.4      4.818      9.047
REMARK  2 active torsions:
REMARK  status: ('A' for Active; 'I' for Inactive)
REMARK    1  A    between atoms: O_2  and  C_20 
REMARK    2  A    between atoms: O_2  and  C_27 
REMARK       I    between atoms: N_4  and  C_20 
ROOT
HETATM    1 Cl   UNK N   1      30.462  12.878   1.833  0.00  0.00    -0.084 Cl
HETATM    2  O   UNK N   1      36.058  14.129   9.151  0.00  0.00    -0.238 OA
HETATM    3  N   UNK N   1      35.033  16.002   8.473  0.00  0.00    -0.327 N 
HETATM    4  N   UNK N   1      30.503  17.526   8.831  0.00  0.00    -0.365 N 
ATOM      5  HN  UNK N   1      31.414  17.278   9.217  1.00  0.00     0.165 HD
HETATM    6  C   UNK N   1      32.697  16.767   7.088  0.00  0.00    -0.064 C 
HETATM    7  C   UNK N   1      33.086  17.521   8.353  0.00  0.00     0.055 C 
HETATM    8  C   UNK N   1      33.885  16.254   6.316  0.00  0.00     0.055 C 
HETATM    9  C   UNK N   1      31.371  16.583   6.673  0.00  0.00     0.004 C 
HETATM   10  C   UNK N   1      34.584  17.374   8.689  0.00  0.00     0.132 C 
HETATM   11  C   UNK N   1      34.726  15.359   7.205  0.00  0.00     0.132 C 
HETATM   12  C   UNK N   1      31.061  15.710   5.413  0.00  0.00    -0.017 A 
HETATM   13  C   UNK N   1      30.257  17.239   7.517  0.00  0.00     0.049 A 
HETATM   14  C   UNK N   1      29.754  15.383   4.925  0.00  0.00    -0.045 A 
HETATM   15  C   UNK N   1      28.505  15.872   5.526  0.00  0.00     0.044 C 
HETATM   16  C   UNK N   1      28.579  17.357   5.616  0.00  0.00     0.045 C 
HETATM   17  C   UNK N   1      28.984  17.607   7.004  0.00  0.00    -0.030 A 
HETATM   18  C   UNK N   1      32.132  15.113   4.712  0.00  0.00     0.014 A 
HETATM   19  C   UNK N   1      35.737  15.281   9.410  0.00  0.00     0.362 C 
HETATM   20  C   UNK N   1      29.592  14.530   3.824  0.00  0.00     0.031 A 
HETATM   21  C   UNK N   1      28.049  18.229   7.836  0.00  0.00     0.011 A 
HETATM   22  C   UNK N   1      31.962  14.264   3.625  0.00  0.00     0.024 A 
HETATM   23  C   UNK N   1      30.687  13.970   3.181  0.00  0.00     0.034 A 
HETATM   24  C   UNK N   1      28.351  18.489   9.164  0.00  0.00     0.018 A 
HETATM   25  C   UNK N   1      29.598  18.124   9.651  0.00  0.00     0.088 A 
ENDROOT
BRANCH  19  26
HETATM   26  O   UNK N   1      36.108  15.776  10.625  0.00  0.00    -0.304 OA
BRANCH  26  27
HETATM   27  C   UNK N   1      35.424  15.667  11.810  0.00  0.00     0.176 C 
HETATM   28  C   UNK N   1      36.076  14.606  12.669  0.00  0.00     0.034 C 
ENDBRANCH  26  27
ENDBRANCH  19  26
TORSDOF 2
ENDMDL
MODEL 4
REMARK VINA RESULT:      -7.2      7.411     12.110
REMARK  2 active torsions:
REMARK  status: ('A' for Active; 'I' for Inactive)
REMARK    1  A    between atoms: O_2  and  C_20 
REMARK    2  A    between atoms: O_2  and  C_27 
REMARK       I    between atoms: N_4  and  C_20 
ROOT
HETATM    1 Cl   UNK N   1      24.176  13.290   1.268  0.00  0.00    -0.084 Cl
HETATM    2  O   UNK N   1      31.809  13.763   6.554  0.00  0.00    -0.238 OA
HETATM    3  N   UNK N   1      31.401  15.636   5.395  0.00  0.00    -0.327 N 
HETATM    4  N   UNK N   1      28.120  19.097   5.882  0.00  0.00    -0.365 N 
ATOM      5  HN  UNK N   1      28.944  18.574   6.179  1.00  0.00     0.165 HD
HETATM    6  C   UNK N   1      29.214  16.980   4.224  0.00  0.00    -0.064 C 
HETATM    7  C   UNK N   1      30.228  17.781   5.029  0.00  0.00     0.055 C 
HETATM    8  C   UNK N   1      29.821  15.793   3.521  0.00  0.00     0.055 C 
HETATM    9  C   UNK N   1      27.857  17.319   4.131  0.00  0.00     0.004 C 
HETATM   10  C   UNK N   1      31.587  17.062   5.147  0.00  0.00     0.132 C 
HETATM   11  C   UNK N   1      30.498  14.890   4.532  0.00  0.00     0.132 C 
HETATM   12  C   UNK N   1      26.869  16.381   3.363  0.00  0.00    -0.017 A 
HETATM   13  C   UNK N   1      27.390  18.611   4.833  0.00  0.00     0.049 A 
HETATM   14  C   UNK N   1      25.453  16.570   3.254  0.00  0.00    -0.045 A 
HETATM   15  C   UNK N   1      24.730  17.718   3.820  0.00  0.00     0.044 C 
HETATM   16  C   UNK N   1      25.376  18.967   3.329  0.00  0.00     0.045 C 
HETATM   17  C   UNK N   1      26.255  19.367   4.433  0.00  0.00    -0.030 A 
HETATM   18  C   UNK N   1      27.364  15.196   2.776  0.00  0.00     0.014 A 
HETATM   19  C   UNK N   1      32.038  14.957   6.408  0.00  0.00     0.362 C 
HETATM   20  C   UNK N   1      24.650  15.624   2.600  0.00  0.00     0.031 A 
HETATM   21  C   UNK N   1      25.928  20.547   5.108  0.00  0.00     0.011 A 
HETATM   22  C   UNK N   1      26.561  14.261   2.134  0.00  0.00     0.024 A 
HETATM   23  C   UNK N   1      25.199  14.475   2.047  0.00  0.00     0.034 A 
HETATM   24  C   UNK N   1      26.702  20.987   6.172  0.00  0.00     0.018 A 
HETATM   25  C   UNK N   1      27.807  20.239   6.551  0.00  0.00     0.088 A 
ENDROOT
BRANCH  19  26
HETATM   26  O   UNK N   1      32.925  15.534   7.268  0.00  0.00    -0.304 OA
BRANCH  26  27
HETATM   27  C   UNK N   1      32.654  16.076   8.499  0.00  0.00     0.176 C 
HETATM   28  C   UNK N   1      33.019  17.545   8.491  0.00  0.00     0.034 C 
ENDBRANCH  26  27
ENDBRANCH  19  26
TORSDOF 2
ENDMDL
MODEL 5
REMARK VINA RESULT:      -7.2      5.355      9.401
REMARK  2 active torsions:
REMARK  status: ('A' for Active; 'I' for Inactive)
REMARK    1  A    between atoms: O_2  and  C_20 
REMARK    2  A    between atoms: O_2  and  C_27 
REMARK       I    between atoms: N_4  and  C_20 
ROOT
HETATM    1 Cl   UNK N   1      26.463  21.313   6.065  0.00  0.00    -0.084 Cl
HETATM    2  O   UNK N   1      34.571  17.940   9.117  0.00  0.00    -0.238 OA
HETATM    3  N   UNK N   1      33.056  16.356   8.654  0.00  0.00    -0.327 N 
HETATM    4  N   UNK N   1      31.324  14.636   4.529  0.00  0.00    -0.365 N 
ATOM      5  HN  UNK N   1      32.062  14.776   5.220  1.00  0.00     0.165 HD
HETATM    6  C   UNK N   1      30.775  16.002   7.031  0.00  0.00    -0.064 C 
HETATM    7  C   UNK N   1      31.815  14.891   7.098  0.00  0.00     0.055 C 
HETATM    8  C   UNK N   1      30.661  16.783   8.316  0.00  0.00     0.055 C 
HETATM    9  C   UNK N   1      29.993  16.264   5.898  0.00  0.00     0.004 C 
HETATM   10  C   UNK N   1      32.685  14.974   8.367  0.00  0.00     0.132 C 
HETATM   11  C   UNK N   1      32.010  17.367   8.682  0.00  0.00     0.132 C 
HETATM   12  C   UNK N   1      29.021  17.489   5.887  0.00  0.00    -0.017 A 
HETATM   13  C   UNK N   1      30.155  15.328   4.682  0.00  0.00     0.049 A 
HETATM   14  C   UNK N   1      28.222  17.910   4.775  0.00  0.00    -0.045 A 
HETATM   15  C   UNK N   1      28.170  17.206   3.485  0.00  0.00     0.044 C 
HETATM   16  C   UNK N   1      27.839  15.777   3.744  0.00  0.00     0.045 C 
HETATM   17  C   UNK N   1      29.141  15.102   3.712  0.00  0.00    -0.030 A 
HETATM   18  C   UNK N   1      28.952  18.321   7.026  0.00  0.00     0.014 A 
HETATM   19  C   UNK N   1      34.349  16.755   8.903  0.00  0.00     0.362 C 
HETATM   20  C   UNK N   1      27.438  19.070   4.853  0.00  0.00     0.031 A 
HETATM   21  C   UNK N   1      29.366  14.209   2.661  0.00  0.00     0.011 A 
HETATM   22  C   UNK N   1      28.177  19.472   7.093  0.00  0.00     0.024 A 
HETATM   23  C   UNK N   1      27.418  19.849   6.002  0.00  0.00     0.034 A 
HETATM   24  C   UNK N   1      30.576  13.540   2.553  0.00  0.00     0.018 A 
HETATM   25  C   UNK N   1      31.557  13.770   3.507  0.00  0.00     0.088 A 
ENDROOT
BRANCH  19  26
HETATM   26  O   UNK N   1      35.414  15.904   8.931  0.00  0.00    -0.304 OA
BRANCH  26  27
HETATM   27  C   UNK N   1      35.961  15.295  10.033  0.00  0.00     0.176 C 
HETATM   28  C   UNK N   1      35.138  15.638  11.255  0.00  0.00     0.034 C 
ENDBRANCH  26  27
ENDBRANCH  19  26
TORSDOF 2
ENDMDL
MODEL 6
REMARK VINA RESULT:      -7.2      6.440     10.297
REMARK  2 active torsions:
REMARK  status: ('A' for Active; 'I' for Inactive)
REMARK    1  A    between atoms: O_2  and  C_20 
REMARK    2  A    between atoms: O_2  and  C_27 
REMARK       I    between atoms: N_4  and  C_20 
ROOT
HETATM    1 Cl   UNK N   1      25.792  14.831   1.548  0.00  0.00    -0.084 Cl
HETATM    2  O   UNK N   1      34.584  13.625   4.318  0.00  0.00    -0.238 OA
HETATM    3  N   UNK N   1      33.809  15.698   4.665  0.00  0.00    -0.327 N 
HETATM    4  N   UNK N   1      30.692  17.505   7.826  0.00  0.00    -0.365 N 
ATOM      5  HN  UNK N   1      31.582  17.080   7.565  1.00  0.00     0.165 HD
HETATM    6  C   UNK N   1      31.340  17.012   5.040  0.00  0.00    -0.064 C 
HETATM    7  C   UNK N   1      32.515  17.375   5.939  0.00  0.00     0.055 C 
HETATM    8  C   UNK N   1      31.763  16.602   3.652  0.00  0.00     0.055 C 
HETATM    9  C   UNK N   1      30.002  17.067   5.454  0.00  0.00     0.004 C 
HETATM   10  C   UNK N   1      33.874  17.005   5.311  0.00  0.00     0.132 C 
HETATM   11  C   UNK N   1      32.724  15.434   3.733  0.00  0.00     0.132 C 
HETATM   12  C   UNK N   1      28.868  16.580   4.494  0.00  0.00    -0.017 A 
HETATM   13  C   UNK N   1      29.712  17.588   6.877  0.00  0.00     0.049 A 
HETATM   14  C   UNK N   1      27.473  16.516   4.816  0.00  0.00    -0.045 A 
HETATM   15  C   UNK N   1      26.903  16.951   6.098  0.00  0.00     0.044 C 
HETATM   16  C   UNK N   1      27.347  18.349   6.357  0.00  0.00     0.045 C 
HETATM   17  C   UNK N   1      28.488  18.195   7.266  0.00  0.00    -0.030 A 
HETATM   18  C   UNK N   1      29.215  16.084   3.218  0.00  0.00     0.014 A 
HETATM   19  C   UNK N   1      34.726  14.697   4.891  0.00  0.00     0.362 C 
HETATM   20  C   UNK N   1      26.549  15.993   3.899  0.00  0.00     0.031 A 
HETATM   21  C   UNK N   1      28.327  18.670   8.571  0.00  0.00     0.011 A 
HETATM   22  C   UNK N   1      28.293  15.562   2.318  0.00  0.00     0.024 A 
HETATM   23  C   UNK N   1      26.955  15.514   2.661  0.00  0.00     0.034 A 
HETATM   24  C   UNK N   1      29.355  18.551   9.495  0.00  0.00     0.018 A 
HETATM   25  C   UNK N   1      30.544  17.956   9.100  0.00  0.00     0.088 A 
ENDROOT
BRANCH  19  26
HETATM   26  O   UNK N   1      35.801  14.826   5.720  0.00  0.00    -0.304 OA
BRANCH  26  27
HETATM   27  C   UNK N   1      36.041  14.135   6.881  0.00  0.00     0.176 C 
HETATM   28  C   UNK N   1      35.288  14.790   8.019  0.00  0.00     0.034 C 
ENDBRANCH  26  27
ENDBRANCH  19  26
TORSDOF 2
ENDMDL
MODEL 7
REMARK VINA RESULT:      -7.1     18.535     21.838
REMARK  2 active torsions:
REMARK  status: ('A' for Active; 'I' for Inactive)
REMARK    1  A    between atoms: O_2  and  C_20 
REMARK    2  A    between atoms: O_2  and  C_27 
REMARK       I    between atoms: N_4  and  C_20 
ROOT
HETATM    1 Cl   UNK N   1      27.623  21.052 -11.502  0.00  0.00    -0.084 Cl
HETATM    2  O   UNK N   1      25.863  28.064  -5.657  0.00  0.00    -0.238 OA
HETATM    3  N   UNK N   1      26.124  26.087  -4.636  0.00  0.00    -0.327 N 
HETATM    4  N   UNK N   1      29.977  23.368  -3.778  0.00  0.00    -0.365 N 
ATOM      5  HN  UNK N   1      29.401  24.199  -3.646  1.00  0.00     0.165 HD
HETATM    6  C   UNK N   1      27.398  23.610  -5.088  0.00  0.00    -0.064 C 
HETATM    7  C   UNK N   1      27.505  24.256  -3.713  0.00  0.00     0.055 C 
HETATM    8  C   UNK N   1      26.097  23.917  -5.786  0.00  0.00     0.055 C 
HETATM    9  C   UNK N   1      28.398  22.800  -5.644  0.00  0.00     0.004 C 
HETATM   10  C   UNK N   1      26.377  25.274  -3.451  0.00  0.00     0.132 C 
HETATM   11  C   UNK N   1      25.925  25.417  -5.912  0.00  0.00     0.132 C 
HETATM   12  C   UNK N   1      28.244  22.261  -7.103  0.00  0.00    -0.017 A 
HETATM   13  C   UNK N   1      29.641  22.500  -4.780  0.00  0.00     0.049 A 
HETATM   14  C   UNK N   1      29.218  21.486  -7.814  0.00  0.00    -0.045 A 
HETATM   15  C   UNK N   1      30.498  21.046  -7.240  0.00  0.00     0.044 C 
HETATM   16  C   UNK N   1      30.217  20.331  -5.964  0.00  0.00     0.045 C 
HETATM   17  C   UNK N   1      30.454  21.345  -4.931  0.00  0.00    -0.030 A 
HETATM   18  C   UNK N   1      27.092  22.606  -7.845  0.00  0.00     0.014 A 
HETATM   19  C   UNK N   1      26.063  27.461  -4.610  0.00  0.00     0.362 C 
HETATM   20  C   UNK N   1      29.004  21.116  -9.150  0.00  0.00     0.031 A 
HETATM   21  C   UNK N   1      31.542  21.139  -4.078  0.00  0.00     0.011 A 
HETATM   22  C   UNK N   1      26.892  22.239  -9.170  0.00  0.00     0.024 A 
HETATM   23  C   UNK N   1      27.852  21.492  -9.826  0.00  0.00     0.034 A 
HETATM   24  C   UNK N   1      31.839  22.058  -3.083  0.00  0.00     0.018 A 
HETATM   25  C   UNK N   1      31.037  23.182  -2.947  0.00  0.00     0.088 A 
ENDROOT
BRANCH  19  26
HETATM   26  O   UNK N   1      26.208  28.206  -3.477  0.00  0.00    -0.304 OA
BRANCH  26  27
HETATM   27  C   UNK N   1      26.680  29.491  -3.384  0.00  0.00     0.176 C 
HETATM   28  C   UNK N   1      27.916  29.509  -2.511  0.00  0.00     0.034 C 
ENDBRANCH  26  27
ENDBRANCH  19  26
TORSDOF 2
ENDMDL
MODEL 8
REMARK VINA RESULT:      -7.0     18.626     21.887
REMARK  2 active torsions:
REMARK  status: ('A' for Active; 'I' for Inactive)
REMARK    1  A    between atoms: O_2  and  C_20 
REMARK    2  A    between atoms: O_2  and  C_27 
REMARK       I    between atoms: N_4  and  C_20 
ROOT
HETATM    1 Cl   UNK N   1      30.563  18.883 -11.269  0.00  0.00    -0.084 Cl
HETATM    2  O   UNK N   1      25.905  26.458  -8.557  0.00  0.00    -0.238 OA
HETATM    3  N   UNK N   1      26.048  24.877  -6.976  0.00  0.00    -0.327 N 
HETATM    4  N   UNK N   1      29.669  23.368  -4.222  0.00  0.00    -0.365 N 
ATOM      5  HN  UNK N   1      28.978  24.055  -4.522  1.00  0.00     0.165 HD
HETATM    6  C   UNK N   1      27.721  22.716  -6.273  0.00  0.00    -0.064 C 
HETATM    7  C   UNK N   1      27.241  23.665  -5.182  0.00  0.00     0.055 C 
HETATM    8  C   UNK N   1      26.726  22.554  -7.394  0.00  0.00     0.055 C 
HETATM    9  C   UNK N   1      28.952  22.048  -6.232  0.00  0.00     0.004 C 
HETATM   10  C   UNK N   1      25.968  24.434  -5.588  0.00  0.00     0.132 C 
HETATM   11  C   UNK N   1      26.409  23.906  -7.998  0.00  0.00     0.132 C 
HETATM   12  C   UNK N   1      29.404  21.170  -7.445  0.00  0.00    -0.017 A 
HETATM   13  C   UNK N   1      29.833  22.242  -4.981  0.00  0.00     0.049 A 
HETATM   14  C   UNK N   1      30.663  20.496  -7.563  0.00  0.00    -0.045 A 
HETATM   15  C   UNK N   1      31.700  20.499  -6.522  0.00  0.00     0.044 C 
HETATM   16  C   UNK N   1      31.082  20.048  -5.244  0.00  0.00     0.045 C 
HETATM   17  C   UNK N   1      30.795  21.297  -4.531  0.00  0.00    -0.030 A 
HETATM   18  C   UNK N   1      28.558  21.068  -8.571  0.00  0.00     0.014 A 
HETATM   19  C   UNK N   1      25.797  26.170  -7.372  0.00  0.00     0.362 C 
HETATM   20  C   UNK N   1      30.992  19.792  -8.731  0.00  0.00     0.031 A 
HETATM   21  C   UNK N   1      31.523  21.543  -3.364  0.00  0.00     0.011 A 
HETATM   22  C   UNK N   1      28.895  20.374  -9.727  0.00  0.00     0.024 A 
HETATM   23  C   UNK N   1      30.118  19.734  -9.808  0.00  0.00     0.034 A 
HETATM   24  C   UNK N   1      31.319  22.707  -2.638  0.00  0.00     0.018 A 
HETATM   25  C   UNK N   1      30.378  23.621  -3.089  0.00  0.00     0.088 A 
ENDROOT
BRANCH  19  26
HETATM   26  O   UNK N   1      25.425  27.167  -6.517  0.00  0.00    -0.304 OA
BRANCH  26  27
HETATM   27  C   UNK N   1      26.234  27.865  -5.656  0.00  0.00     0.176 C 
HETATM   28  C   UNK N   1      25.549  27.986  -4.312  0.00  0.00     0.034 C 
ENDBRANCH  26  27
ENDBRANCH  19  26
TORSDOF 2
ENDMDL
MODEL 9
REMARK VINA RESULT:      -6.9      3.864      6.231
REMARK  2 active torsions:
REMARK  status: ('A' for Active; 'I' for Inactive)
REMARK    1  A    between atoms: O_2  and  C_20 
REMARK    2  A    between atoms: O_2  and  C_27 
REMARK       I    between atoms: N_4  and  C_20 
ROOT
HETATM    1 Cl   UNK N   1      38.493   5.402  16.370  0.00  0.00    -0.084 Cl
HETATM    2  O   UNK N   1      38.045  12.901  10.893  0.00  0.00    -0.238 OA
HETATM    3  N   UNK N   1      36.256  12.647  12.217  0.00  0.00    -0.327 N 
HETATM    4  N   UNK N   1      35.593  13.267  16.923  0.00  0.00    -0.365 N 
ATOM      5  HN  UNK N   1      35.773  13.601  15.976  1.00  0.00     0.165 HD
HETATM    6  C   UNK N   1      35.581  11.433  14.673  0.00  0.00    -0.064 C 
HETATM    7  C   UNK N   1      35.079  12.841  14.382  0.00  0.00     0.055 C 
HETATM    8  C   UNK N   1      35.712  10.584  13.434  0.00  0.00     0.055 C 
HETATM    9  C   UNK N   1      35.876  10.967  15.961  0.00  0.00     0.004 C 
HETATM   10  C   UNK N   1      35.057  13.159  12.873  0.00  0.00     0.132 C 
HETATM   11  C   UNK N   1      36.637  11.262  12.444  0.00  0.00     0.132 C 
HETATM   12  C   UNK N   1      36.481   9.537  16.154  0.00  0.00    -0.017 A 
HETATM   13  C   UNK N   1      35.613  11.918  17.147  0.00  0.00     0.049 A 
HETATM   14  C   UNK N   1      36.893   8.968  17.402  0.00  0.00    -0.045 A 
HETATM   15  C   UNK N   1      36.757   9.643  18.701  0.00  0.00     0.044 C 
HETATM   16  C   UNK N   1      35.339  10.067  18.862  0.00  0.00     0.045 C 
HETATM   17  C   UNK N   1      35.346  11.481  18.473  0.00  0.00    -0.030 A 
HETATM   18  C   UNK N   1      36.726   8.737  15.017  0.00  0.00     0.014 A 
HETATM   19  C   UNK N   1      37.047  13.409  11.388  0.00  0.00     0.362 C 
HETATM   20  C   UNK N   1      37.492   7.700  17.449  0.00  0.00     0.031 A 
HETATM   21  C   UNK N   1      35.084  12.417  19.478  0.00  0.00     0.011 A 
HETATM   22  C   UNK N   1      37.325   7.484  15.072  0.00  0.00     0.024 A 
HETATM   23  C   UNK N   1      37.711   6.964  16.293  0.00  0.00     0.034 A 
HETATM   24  C   UNK N   1      35.085  13.774  19.193  0.00  0.00     0.018 A 
HETATM   25  C   UNK N   1      35.347  14.186  17.894  0.00  0.00     0.088 A 
ENDROOT
BRANCH  19  26
HETATM   26  O   UNK N   1      36.785  14.710  11.075  0.00  0.00    -0.304 OA
BRANCH  26  27
HETATM   27  C   UNK N   1      35.996  15.175  10.053  0.00  0.00     0.176 C 
HETATM   28  C   UNK N   1      35.266  16.419  10.510  0.00  0.00     0.034 C 
ENDBRANCH  26  27
ENDBRANCH  19  26
TORSDOF 2
ENDMDL
