REMARK  2 active torsions:
REMARK  status: ('A' for Active; 'I' for Inactive)
REMARK    1  A    between atoms: O_2  and  C_20 
REMARK    2  A    between atoms: O_2  and  C_27 
REMARK       I    between atoms: N_4  and  C_20 
ROOT
HETATM    1 Cl   UNK N   1      -0.468   4.438   0.082  0.00  0.00    -0.084 Cl
HETATM    2  O   UNK N   1       3.554  -3.903   0.909  0.00  0.00    -0.238 OA
HETATM    3  N   UNK N   1       4.678  -2.491  -0.418  0.00  0.00    -0.327 N 
HETATM    4  N   UNK N   1       7.347   1.384   0.497  0.00  0.00    -0.365 N 
ATOM      5  HN  UNK N   1       7.157   0.382   0.521  1.00  0.00     0.165 HD
HETATM    6  C   UNK N   1       4.987   0.289  -0.791  0.00  0.00    -0.064 C 
HETATM    7  C   UNK N   1       6.223  -0.601  -0.807  0.00  0.00     0.055 C 
HETATM    8  C   UNK N   1       3.755  -0.401  -1.319  0.00  0.00     0.055 C 
HETATM    9  C   UNK N   1       4.995   1.618  -0.346  0.00  0.00     0.004 C 
HETATM   10  C   UNK N   1       5.886  -2.072  -1.122  0.00  0.00     0.132 C 
HETATM   11  C   UNK N   1       3.489  -1.659  -0.518  0.00  0.00     0.132 C 
HETATM   12  C   UNK N   1       3.657   2.424  -0.272  0.00  0.00    -0.017 A 
HETATM   13  C   UNK N   1       6.347   2.222   0.087  0.00  0.00     0.049 A 
HETATM   14  C   UNK N   1       3.514   3.759   0.229  0.00  0.00    -0.045 A 
HETATM   15  C   UNK N   1       4.633   4.584   0.706  0.00  0.00     0.044 C 
HETATM   16  C   UNK N   1       5.671   4.627  -0.361  0.00  0.00     0.045 C 
HETATM   17  C   UNK N   1       6.645   3.611   0.052  0.00  0.00    -0.030 A 
HETATM   18  C   UNK N   1       2.453   1.792  -0.653  0.00  0.00     0.014 A 
HETATM   19  C   UNK N   1       4.604  -3.638   0.338  0.00  0.00     0.362 C 
HETATM   20  C   UNK N   1       2.250   4.361   0.316  0.00  0.00     0.031 A 
HETATM   21  C   UNK N   1       7.912   4.064   0.431  0.00  0.00     0.011 A 
HETATM   22  C   UNK N   1       1.204   2.394  -0.558  0.00  0.00     0.024 A 
HETATM   23  C   UNK N   1       1.102   3.683  -0.070  0.00  0.00     0.034 A 
HETATM   24  C   UNK N   1       8.885   3.167   0.846  0.00  0.00     0.018 A 
HETATM   25  C   UNK N   1       8.580   1.814   0.875  0.00  0.00     0.088 A 
ENDROOT
BRANCH  19  26
HETATM   26  O   UNK N   1       5.638  -4.514   0.491  0.00  0.00    -0.304 OA
BRANCH  26  27
HETATM   27  C   UNK N   1       6.871  -4.455  -0.109  0.00  0.00     0.176 C 
HETATM   28  C   UNK N   1       7.944  -4.392   0.956  0.00  0.00     0.034 C 
ENDBRANCH  26  27
ENDBRANCH  19  26
TORSDOF 2
