REMARK  8 active torsions:
REMARK  status: ('A' for Active; 'I' for Inactive)
REMARK    1  A    between atoms: O_4  and  C_17 
REMARK    2  A    between atoms: O_4  and  C_22 
REMARK    3  A    between atoms: O_5  and  C_19 
REMARK    4  A    between atoms: C_12  and  N_10 
REMARK       I    between atoms: N_10  and  C_18 
REMARK    5  A    between atoms: C_14  and  C_19 
REMARK    6  A    between atoms: C_15  and  C_17 
REMARK    7  A    between atoms: C_18  and  C_20 
REMARK    8  A    between atoms: C_20  and  C_21 
ROOT
HETATM    1  S   UNK N   1       4.062  -2.082  -1.431  0.00  0.00    -0.136 SA
HETATM    2  O   UNK N   1       7.122   1.105  -1.459  0.00  0.00    -0.271 OA
HETATM    3  N   UNK N   1       5.570  -0.198  -0.417  0.00  0.00    -0.293 N 
HETATM    4  C   UNK N   1       5.593  -1.610  -0.607  0.00  0.00     0.187 A 
HETATM    5  C   UNK N   1       6.853  -1.365  -1.593  0.00  0.00     0.210 A 
HETATM    6  C   UNK N   1       6.648   0.035  -1.119  0.00  0.00     0.251 A 
HETATM    7  C   UNK N   1       4.538   0.599   0.183  0.00  0.00     0.117 C 
HETATM    8  C   UNK N   1       3.319  -0.003   0.380  0.00  0.00    -0.013 C 
HETATM    9  C   UNK N   1       3.079  -1.451  -0.013  0.00  0.00     0.115 C 
ENDROOT
BRANCH   5  10
HETATM   10  N   UNK N   1       8.076  -2.063  -1.231  0.00  0.00    -0.345 N 
HETATM   11  C   UNK N   1       8.673  -2.175  -0.019  0.00  0.00     0.223 C 
HETATM   12  O   UNK N   1       8.240  -1.593   0.963  0.00  0.00    -0.273 OA
HETATM   13  H   UNK N   1       8.537  -2.519  -1.972  0.00  0.00     0.163 HD
BRANCH  11  14
HETATM   14  C   UNK N   1       9.860  -3.083   0.098  0.00  0.00     0.148 C 
BRANCH  14  15
HETATM   15  C   UNK N   1      11.135  -2.332   0.266  0.00  0.00    -0.009 A 
HETATM   16  S   UNK N   1      11.735  -1.183  -0.758  0.00  0.00    -0.106 SA
HETATM   17  C   UNK N   1      13.163  -0.836   0.011  0.00  0.00     0.050 A 
HETATM   18  C   UNK N   1      13.204  -1.668   1.141  0.00  0.00     0.008 A 
HETATM   19  C   UNK N   1      12.065  -2.512   1.284  0.00  0.00     0.015 A 
ENDBRANCH  14  15
ENDBRANCH  11  14
ENDBRANCH   5  10
BRANCH   7  20
HETATM   20  C   UNK N   1       4.810   2.023   0.562  0.00  0.00     0.194 C 
HETATM   21  O   UNK N   1       5.944   2.466   0.493  0.00  0.00    -0.645 OA
BRANCH  20  22
HETATM   22  O   UNK N   1       3.830   2.831   1.010  0.00  0.00    -0.772 OA
HETATM   23  H   UNK N   1       3.976   3.703   1.321  0.00  0.00     0.167 HD
ENDBRANCH  20  22
ENDBRANCH   7  20
BRANCH   8  24
HETATM   24  C   UNK N   1       2.162   0.664   1.075  0.00  0.00     0.216 C 
BRANCH  24  25
HETATM   25  O   UNK N   1       1.510   1.583   0.282  0.00  0.00    -0.317 OA
BRANCH  25  26
HETATM   26  C   UNK N   1       0.226   1.405  -0.119  0.00  0.00     0.255 C 
HETATM   27  O   UNK N   1      -0.394   2.346  -0.585  0.00  0.00    -0.266 OA
HETATM   28  C   UNK N   1      -0.450   0.072  -0.010  0.00  0.00     0.126 C 
ENDBRANCH  25  26
ENDBRANCH  24  25
ENDBRANCH   8  24
TORSDOF 8
