MODEL 1
REMARK VINA RESULT:      -6.6      0.000      0.000
REMARK  8 active torsions:
REMARK  status: ('A' for Active; 'I' for Inactive)
REMARK    1  A    between atoms: O_4  and  C_17 
REMARK    2  A    between atoms: O_4  and  C_22 
REMARK    3  A    between atoms: O_5  and  C_19 
REMARK    4  A    between atoms: C_12  and  N_10 
REMARK       I    between atoms: N_10  and  C_18 
REMARK    5  A    between atoms: C_14  and  C_19 
REMARK    6  A    between atoms: C_15  and  C_17 
REMARK    7  A    between atoms: C_18  and  C_20 
REMARK    8  A    between atoms: C_20  and  C_21 
ROOT
HETATM    1  S   UNK N   1      35.424  13.515   8.424  0.00  0.00    -0.136 SA
HETATM    2  O   UNK N   1      35.640  17.448  10.426  0.00  0.00    -0.271 OA
HETATM    3  N   UNK N   1      34.492  15.724   9.474  0.00  0.00    -0.293 N 
HETATM    4  C   UNK N   1      34.780  14.385   9.865  0.00  0.00     0.187 A 
HETATM    5  C   UNK N   1      35.906  15.009  10.846  0.00  0.00     0.210 A 
HETATM    6  C   UNK N   1      35.314  16.277  10.328  0.00  0.00     0.251 A 
HETATM    7  C   UNK N   1      33.707  16.173   8.360  0.00  0.00     0.117 C 
HETATM    8  C   UNK N   1      33.391  15.240   7.402  0.00  0.00    -0.013 C 
HETATM    9  C   UNK N   1      33.847  13.796   7.524  0.00  0.00     0.115 C 
ENDROOT
BRANCH   5  10
HETATM   10  N   UNK N   1      35.759  14.683  12.255  0.00  0.00    -0.345 N 
HETATM   11  C   UNK N   1      36.368  13.712  12.979  0.00  0.00     0.223 C 
HETATM   12  O   UNK N   1      37.116  12.901  12.457  0.00  0.00    -0.273 OA
HETATM   13  H   UNK N   1      35.127  15.248  12.755  0.00  0.00     0.163 HD
BRANCH  11  14
HETATM   14  C   UNK N   1      36.139  13.692  14.460  0.00  0.00     0.148 C 
BRANCH  14  15
HETATM   15  C   UNK N   1      35.437  12.458  14.909  0.00  0.00    -0.009 A 
HETATM   16  S   UNK N   1      35.845  11.517  16.204  0.00  0.00    -0.106 SA
HETATM   17  C   UNK N   1      34.695  10.330  16.066  0.00  0.00     0.050 A 
HETATM   18  C   UNK N   1      33.934  10.661  14.933  0.00  0.00     0.008 A 
HETATM   19  C   UNK N   1      34.352  11.857  14.280  0.00  0.00     0.015 A 
ENDBRANCH  14  15
ENDBRANCH  11  14
ENDBRANCH   5  10
BRANCH   7  20
HETATM   20  C   UNK N   1      33.270  17.604   8.274  0.00  0.00     0.194 C 
HETATM   21  O   UNK N   1      32.136  17.916   8.597  0.00  0.00    -0.645 OA
BRANCH  20  22
HETATM   22  O   UNK N   1      34.096  18.565   7.816  0.00  0.00    -0.772 OA
HETATM   23  H   UNK N   1      33.967  19.480   7.973  0.00  0.00     0.167 HD
ENDBRANCH  20  22
ENDBRANCH   7  20
BRANCH   8  24
HETATM   24  C   UNK N   1      32.504  15.526   6.220  0.00  0.00     0.216 C 
BRANCH  24  25
HETATM   25  O   UNK N   1      33.207  15.826   5.074  0.00  0.00    -0.317 OA
BRANCH  25  26
HETATM   26  C   UNK N   1      33.057  17.008   4.426  0.00  0.00     0.255 C 
HETATM   27  O   UNK N   1      33.517  18.026   4.916  0.00  0.00    -0.266 OA
HETATM   28  C   UNK N   1      32.342  17.094   3.111  0.00  0.00     0.126 C 
ENDBRANCH  25  26
ENDBRANCH  24  25
ENDBRANCH   8  24
TORSDOF 8
ENDMDL
MODEL 2
REMARK VINA RESULT:      -6.4     10.018     12.823
REMARK  8 active torsions:
REMARK  status: ('A' for Active; 'I' for Inactive)
REMARK    1  A    between atoms: O_4  and  C_17 
REMARK    2  A    between atoms: O_4  and  C_22 
REMARK    3  A    between atoms: O_5  and  C_19 
REMARK    4  A    between atoms: C_12  and  N_10 
REMARK       I    between atoms: N_10  and  C_18 
REMARK    5  A    between atoms: C_14  and  C_19 
REMARK    6  A    between atoms: C_15  and  C_17 
REMARK    7  A    between atoms: C_18  and  C_20 
REMARK    8  A    between atoms: C_20  and  C_21 
ROOT
HETATM    1  S   UNK N   1      23.844  15.934   3.665  0.00  0.00    -0.136 SA
HETATM    2  O   UNK N   1      24.319  20.309   3.271  0.00  0.00    -0.271 OA
HETATM    3  N   UNK N   1      23.239  18.453   4.036  0.00  0.00    -0.293 N 
HETATM    4  C   UNK N   1      23.982  17.419   4.675  0.00  0.00     0.187 A 
HETATM    5  C   UNK N   1      25.299  18.317   4.394  0.00  0.00     0.210 A 
HETATM    6  C   UNK N   1      24.259  19.257   3.884  0.00  0.00     0.251 A 
HETATM    7  C   UNK N   1      21.880  18.415   3.577  0.00  0.00     0.117 C 
HETATM    8  C   UNK N   1      21.280  17.181   3.505  0.00  0.00    -0.013 C 
HETATM    9  C   UNK N   1      22.022  15.916   3.903  0.00  0.00     0.115 C 
ENDROOT
BRANCH   5  10
HETATM   10  N   UNK N   1      26.069  18.684   5.571  0.00  0.00    -0.345 N 
HETATM   11  C   UNK N   1      27.222  19.392   5.656  0.00  0.00     0.223 C 
HETATM   12  O   UNK N   1      27.816  19.768   4.657  0.00  0.00    -0.273 OA
HETATM   13  H   UNK N   1      25.702  18.373   6.430  0.00  0.00     0.163 HD
BRANCH  11  14
HETATM   14  C   UNK N   1      27.727  19.752   7.021  0.00  0.00     0.148 C 
BRANCH  14  15
HETATM   15  C   UNK N   1      28.734  18.779   7.528  0.00  0.00    -0.009 A 
HETATM   16  S   UNK N   1      29.374  17.508   6.690  0.00  0.00    -0.106 SA
HETATM   17  C   UNK N   1      30.350  16.858   7.863  0.00  0.00     0.050 A 
HETATM   18  C   UNK N   1      30.174  17.662   9.000  0.00  0.00     0.008 A 
HETATM   19  C   UNK N   1      29.263  18.742   8.814  0.00  0.00     0.015 A 
ENDBRANCH  14  15
ENDBRANCH  11  14
ENDBRANCH   5  10
BRANCH   7  20
HETATM   20  C   UNK N   1      21.176  19.682   3.197  0.00  0.00     0.194 C 
HETATM   21  O   UNK N   1      20.624  20.352   4.052  0.00  0.00    -0.645 OA
BRANCH  20  22
HETATM   22  O   UNK N   1      21.111  20.093   1.916  0.00  0.00    -0.772 OA
HETATM   23  H   UNK N   1      20.523  19.730   1.282  0.00  0.00     0.167 HD
ENDBRANCH  20  22
ENDBRANCH   7  20
BRANCH   8  24
HETATM   24  C   UNK N   1      19.836  16.976   3.130  0.00  0.00     0.216 C 
BRANCH  24  25
HETATM   25  O   UNK N   1      19.524  17.475   1.884  0.00  0.00    -0.317 OA
BRANCH  25  26
HETATM   26  C   UNK N   1      19.955  16.882   0.742  0.00  0.00     0.255 C 
HETATM   27  O   UNK N   1      20.428  17.566  -0.149  0.00  0.00    -0.266 OA
HETATM   28  C   UNK N   1      19.870  15.398   0.552  0.00  0.00     0.126 C 
ENDBRANCH  25  26
ENDBRANCH  24  25
ENDBRANCH   8  24
TORSDOF 8
ENDMDL
MODEL 3
REMARK VINA RESULT:      -6.3      1.524      1.949
REMARK  8 active torsions:
REMARK  status: ('A' for Active; 'I' for Inactive)
REMARK    1  A    between atoms: O_4  and  C_17 
REMARK    2  A    between atoms: O_4  and  C_22 
REMARK    3  A    between atoms: O_5  and  C_19 
REMARK    4  A    between atoms: C_12  and  N_10 
REMARK       I    between atoms: N_10  and  C_18 
REMARK    5  A    between atoms: C_14  and  C_19 
REMARK    6  A    between atoms: C_15  and  C_17 
REMARK    7  A    between atoms: C_18  and  C_20 
REMARK    8  A    between atoms: C_20  and  C_21 
ROOT
HETATM    1  S   UNK N   1      36.056  12.903   8.585  0.00  0.00    -0.136 SA
HETATM    2  O   UNK N   1      35.353  15.901  11.754  0.00  0.00    -0.271 OA
HETATM    3  N   UNK N   1      34.758  14.786   9.857  0.00  0.00    -0.293 N 
HETATM    4  C   UNK N   1      34.831  13.364   9.823  0.00  0.00     0.187 A 
HETATM    5  C   UNK N   1      35.390  13.448  11.340  0.00  0.00     0.210 A 
HETATM    6  C   UNK N   1      35.103  14.894  11.114  0.00  0.00     0.251 A 
HETATM    7  C   UNK N   1      34.567  15.691   8.759  0.00  0.00     0.117 C 
HETATM    8  C   UNK N   1      34.718  15.177   7.494  0.00  0.00    -0.013 C 
HETATM    9  C   UNK N   1      35.063  13.715   7.270  0.00  0.00     0.115 C 
ENDROOT
BRANCH   5  10
HETATM   10  N   UNK N   1      34.617  12.720  12.333  0.00  0.00    -0.345 N 
HETATM   11  C   UNK N   1      34.903  11.548  12.953  0.00  0.00     0.223 C 
HETATM   12  O   UNK N   1      35.895  10.898  12.664  0.00  0.00    -0.273 OA
HETATM   13  H   UNK N   1      33.763  13.136  12.592  0.00  0.00     0.163 HD
BRANCH  11  14
HETATM   14  C   UNK N   1      33.990  11.094  14.052  0.00  0.00     0.148 C 
BRANCH  14  15
HETATM   15  C   UNK N   1      34.503  11.455  15.402  0.00  0.00    -0.009 A 
HETATM   16  S   UNK N   1      35.000  10.402  16.574  0.00  0.00    -0.106 SA
HETATM   17  C   UNK N   1      35.372  11.476  17.781  0.00  0.00     0.050 A 
HETATM   18  C   UNK N   1      35.087  12.750  17.265  0.00  0.00     0.008 A 
HETATM   19  C   UNK N   1      34.595  12.739  15.928  0.00  0.00     0.015 A 
ENDBRANCH  14  15
ENDBRANCH  11  14
ENDBRANCH   5  10
BRANCH   7  20
HETATM   20  C   UNK N   1      34.223  17.126   9.016  0.00  0.00     0.194 C 
HETATM   21  O   UNK N   1      35.110  17.941   9.205  0.00  0.00    -0.645 OA
BRANCH  20  22
HETATM   22  O   UNK N   1      32.943  17.543   9.074  0.00  0.00    -0.772 OA
HETATM   23  H   UNK N   1      32.632  18.326   8.662  0.00  0.00     0.167 HD
ENDBRANCH  20  22
ENDBRANCH   7  20
BRANCH   8  24
HETATM   24  C   UNK N   1      34.466  15.968   6.238  0.00  0.00     0.216 C 
BRANCH  24  25
HETATM   25  O   UNK N   1      33.177  15.844   5.768  0.00  0.00    -0.317 OA
BRANCH  25  26
HETATM   26  C   UNK N   1      32.377  16.921   5.568  0.00  0.00     0.255 C 
HETATM   27  O   UNK N   1      31.695  17.342   6.487  0.00  0.00    -0.266 OA
HETATM   28  C   UNK N   1      32.317  17.616   4.242  0.00  0.00     0.126 C 
ENDBRANCH  25  26
ENDBRANCH  24  25
ENDBRANCH   8  24
TORSDOF 8
ENDMDL
MODEL 4
REMARK VINA RESULT:      -6.3      3.958      5.737
REMARK  8 active torsions:
REMARK  status: ('A' for Active; 'I' for Inactive)
REMARK    1  A    between atoms: O_4  and  C_17 
REMARK    2  A    between atoms: O_4  and  C_22 
REMARK    3  A    between atoms: O_5  and  C_19 
REMARK    4  A    between atoms: C_12  and  N_10 
REMARK       I    between atoms: N_10  and  C_18 
REMARK    5  A    between atoms: C_14  and  C_19 
REMARK    6  A    between atoms: C_15  and  C_17 
REMARK    7  A    between atoms: C_18  and  C_20 
REMARK    8  A    between atoms: C_20  and  C_21 
ROOT
HETATM    1  S   UNK N   1      31.374  16.970   5.560  0.00  0.00    -0.136 SA
HETATM    2  O   UNK N   1      30.748  19.037   9.415  0.00  0.00    -0.271 OA
HETATM    3  N   UNK N   1      30.342  17.352   7.935  0.00  0.00    -0.293 N 
HETATM    4  C   UNK N   1      31.436  16.663   7.334  0.00  0.00     0.187 A 
HETATM    5  C   UNK N   1      32.402  17.659   8.168  0.00  0.00     0.210 A 
HETATM    6  C   UNK N   1      31.084  18.104   8.706  0.00  0.00     0.251 A 
HETATM    7  C   UNK N   1      28.954  17.298   7.574  0.00  0.00     0.117 C 
HETATM    8  C   UNK N   1      28.645  16.724   6.365  0.00  0.00    -0.013 C 
HETATM    9  C   UNK N   1      29.727  16.164   5.456  0.00  0.00     0.115 C 
ENDROOT
BRANCH   5  10
HETATM   10  N   UNK N   1      33.349  17.010   9.061  0.00  0.00    -0.345 N 
HETATM   11  C   UNK N   1      34.615  17.375   9.380  0.00  0.00     0.223 C 
HETATM   12  O   UNK N   1      35.157  18.332   8.851  0.00  0.00    -0.273 OA
HETATM   13  H   UNK N   1      33.024  16.188   9.495  0.00  0.00     0.163 HD
BRANCH  11  14
HETATM   14  C   UNK N   1      35.321  16.596  10.449  0.00  0.00     0.148 C 
BRANCH  14  15
HETATM   15  C   UNK N   1      35.291  15.129  10.197  0.00  0.00    -0.009 A 
HETATM   16  S   UNK N   1      35.916  14.350   8.881  0.00  0.00    -0.106 SA
HETATM   17  C   UNK N   1      35.481  12.791   9.243  0.00  0.00     0.050 A 
HETATM   18  C   UNK N   1      34.791  12.856  10.463  0.00  0.00     0.008 A 
HETATM   19  C   UNK N   1      34.680  14.171  11.000  0.00  0.00     0.015 A 
ENDBRANCH  14  15
ENDBRANCH  11  14
ENDBRANCH   5  10
BRANCH   7  20
HETATM   20  C   UNK N   1      27.913  17.856   8.496  0.00  0.00     0.194 C 
HETATM   21  O   UNK N   1      27.509  17.189   9.434  0.00  0.00    -0.645 OA
BRANCH  20  22
HETATM   22  O   UNK N   1      27.383  19.078   8.301  0.00  0.00    -0.772 OA
HETATM   23  H   UNK N   1      26.762  19.274   7.627  0.00  0.00     0.167 HD
ENDBRANCH  20  22
ENDBRANCH   7  20
BRANCH   8  24
HETATM   24  C   UNK N   1      27.237  16.510   5.879  0.00  0.00     0.216 C 
BRANCH  24  25
HETATM   25  O   UNK N   1      26.939  17.234   4.745  0.00  0.00    -0.317 OA
BRANCH  25  26
HETATM   26  C   UNK N   1      26.543  18.530   4.802  0.00  0.00     0.255 C 
HETATM   27  O   UNK N   1      25.386  18.793   5.082  0.00  0.00    -0.266 OA
HETATM   28  C   UNK N   1      27.499  19.653   4.535  0.00  0.00     0.126 C 
ENDBRANCH  25  26
ENDBRANCH  24  25
ENDBRANCH   8  24
TORSDOF 8
ENDMDL
MODEL 5
REMARK VINA RESULT:      -6.1      2.871      8.327
REMARK  8 active torsions:
REMARK  status: ('A' for Active; 'I' for Inactive)
REMARK    1  A    between atoms: O_4  and  C_17 
REMARK    2  A    between atoms: O_4  and  C_22 
REMARK    3  A    between atoms: O_5  and  C_19 
REMARK    4  A    between atoms: C_12  and  N_10 
REMARK       I    between atoms: N_10  and  C_18 
REMARK    5  A    between atoms: C_14  and  C_19 
REMARK    6  A    between atoms: C_15  and  C_17 
REMARK    7  A    between atoms: C_18  and  C_20 
REMARK    8  A    between atoms: C_20  and  C_21 
ROOT
HETATM    1  S   UNK N   1      36.029  16.006  10.866  0.00  0.00    -0.136 SA
HETATM    2  O   UNK N   1      35.116  12.805   7.960  0.00  0.00    -0.271 OA
HETATM    3  N   UNK N   1      34.801  13.887   9.941  0.00  0.00    -0.293 N 
HETATM    4  C   UNK N   1      34.644  15.303   9.953  0.00  0.00     0.187 A 
HETATM    5  C   UNK N   1      34.840  15.248   8.347  0.00  0.00     0.210 A 
HETATM    6  C   UNK N   1      34.858  13.784   8.639  0.00  0.00     0.251 A 
HETATM    7  C   UNK N   1      35.024  13.011  11.055  0.00  0.00     0.117 C 
HETATM    8  C   UNK N   1      35.377  13.594  12.248  0.00  0.00    -0.013 C 
HETATM    9  C   UNK N   1      35.518  15.101  12.380  0.00  0.00     0.115 C 
ENDROOT
BRANCH   5  10
HETATM   10  N   UNK N   1      33.748  15.800   7.563  0.00  0.00    -0.345 N 
HETATM   11  C   UNK N   1      33.683  16.975   6.890  0.00  0.00     0.223 C 
HETATM   12  O   UNK N   1      34.593  17.789   6.936  0.00  0.00    -0.273 OA
HETATM   13  H   UNK N   1      32.938  15.241   7.514  0.00  0.00     0.163 HD
BRANCH  11  14
HETATM   14  C   UNK N   1      32.477  17.231   6.038  0.00  0.00     0.148 C 
BRANCH  14  15
HETATM   15  C   UNK N   1      31.224  17.315   6.838  0.00  0.00    -0.009 A 
HETATM   16  S   UNK N   1      31.108  17.731   8.432  0.00  0.00    -0.106 SA
HETATM   17  C   UNK N   1      29.472  17.563   8.650  0.00  0.00     0.050 A 
HETATM   18  C   UNK N   1      28.959  17.145   7.412  0.00  0.00     0.008 A 
HETATM   19  C   UNK N   1      29.944  17.002   6.392  0.00  0.00     0.015 A 
ENDBRANCH  14  15
ENDBRANCH  11  14
ENDBRANCH   5  10
BRANCH   7  20
HETATM   20  C   UNK N   1      34.873  11.529  10.890  0.00  0.00     0.194 C 
HETATM   21  O   UNK N   1      35.826  10.855  10.538  0.00  0.00    -0.645 OA
BRANCH  20  22
HETATM   22  O   UNK N   1      33.691  10.915  11.094  0.00  0.00    -0.772 OA
HETATM   23  H   UNK N   1      33.608  10.055  11.458  0.00  0.00     0.167 HD
ENDBRANCH  20  22
ENDBRANCH   7  20
BRANCH   8  24
HETATM   24  C   UNK N   1      35.560  12.826  13.530  0.00  0.00     0.216 C 
BRANCH  24  25
HETATM   25  O   UNK N   1      34.374  12.572  14.184  0.00  0.00    -0.317 OA
BRANCH  25  26
HETATM   26  C   UNK N   1      34.046  11.332  14.625  0.00  0.00     0.255 C 
HETATM   27  O   UNK N   1      33.214  10.679  14.019  0.00  0.00    -0.266 OA
HETATM   28  C   UNK N   1      34.691  10.738  15.840  0.00  0.00     0.126 C 
ENDBRANCH  25  26
ENDBRANCH  24  25
ENDBRANCH   8  24
TORSDOF 8
ENDMDL
MODEL 6
REMARK VINA RESULT:      -6.0      2.193      3.548
REMARK  8 active torsions:
REMARK  status: ('A' for Active; 'I' for Inactive)
REMARK    1  A    between atoms: O_4  and  C_17 
REMARK    2  A    between atoms: O_4  and  C_22 
REMARK    3  A    between atoms: O_5  and  C_19 
REMARK    4  A    between atoms: C_12  and  N_10 
REMARK       I    between atoms: N_10  and  C_18 
REMARK    5  A    between atoms: C_14  and  C_19 
REMARK    6  A    between atoms: C_15  and  C_17 
REMARK    7  A    between atoms: C_18  and  C_20 
REMARK    8  A    between atoms: C_20  and  C_21 
ROOT
HETATM    1  S   UNK N   1      34.781  11.561   9.552  0.00  0.00    -0.136 SA
HETATM    2  O   UNK N   1      37.082  13.628  12.707  0.00  0.00    -0.271 OA
HETATM    3  N   UNK N   1      35.300  13.439  11.299  0.00  0.00    -0.293 N 
HETATM    4  C   UNK N   1      34.590  12.207  11.223  0.00  0.00     0.187 A 
HETATM    5  C   UNK N   1      35.650  11.634  12.303  0.00  0.00     0.210 A 
HETATM    6  C   UNK N   1      36.110  13.052  12.249  0.00  0.00     0.251 A 
HETATM    7  C   UNK N   1      35.204  14.574  10.425  0.00  0.00     0.117 C 
HETATM    8  C   UNK N   1      34.549  14.389   9.231  0.00  0.00    -0.013 C 
HETATM    9  C   UNK N   1      33.947  13.044   8.859  0.00  0.00     0.115 C 
ENDROOT
BRANCH   5  10
HETATM   10  N   UNK N   1      35.073  11.123  13.536  0.00  0.00    -0.345 N 
HETATM   11  C   UNK N   1      35.696  10.657  14.646  0.00  0.00     0.223 C 
HETATM   12  O   UNK N   1      36.911  10.548  14.699  0.00  0.00    -0.273 OA
HETATM   13  H   UNK N   1      34.089  11.114  13.570  0.00  0.00     0.163 HD
BRANCH  11  14
HETATM   14  C   UNK N   1      34.851  10.326  15.839  0.00  0.00     0.148 C 
BRANCH  14  15
HETATM   15  C   UNK N   1      35.040  11.294  16.955  0.00  0.00    -0.009 A 
HETATM   16  S   UNK N   1      35.276  10.917  18.546  0.00  0.00    -0.106 SA
HETATM   17  C   UNK N   1      35.350  12.444  19.191  0.00  0.00     0.050 A 
HETATM   18  C   UNK N   1      35.170  13.326  18.114  0.00  0.00     0.008 A 
HETATM   19  C   UNK N   1      34.993  12.680  16.856  0.00  0.00     0.015 A 
ENDBRANCH  14  15
ENDBRANCH  11  14
ENDBRANCH   5  10
BRANCH   7  20
HETATM   20  C   UNK N   1      35.805  15.887  10.825  0.00  0.00     0.194 C 
HETATM   21  O   UNK N   1      35.083  16.817  11.141  0.00  0.00    -0.645 OA
BRANCH  20  22
HETATM   22  O   UNK N   1      37.138  16.081  10.817  0.00  0.00    -0.772 OA
HETATM   23  H   UNK N   1      37.754  15.478  11.187  0.00  0.00     0.167 HD
ENDBRANCH  20  22
ENDBRANCH   7  20
BRANCH   8  24
HETATM   24  C   UNK N   1      34.285  15.495   8.245  0.00  0.00     0.216 C 
BRANCH  24  25
HETATM   25  O   UNK N   1      33.051  16.085   8.410  0.00  0.00    -0.317 OA
BRANCH  25  26
HETATM   26  C   UNK N   1      32.891  17.433   8.394  0.00  0.00     0.255 C 
HETATM   27  O   UNK N   1      33.869  18.153   8.295  0.00  0.00    -0.266 OA
HETATM   28  C   UNK N   1      31.533  18.060   8.488  0.00  0.00     0.126 C 
ENDBRANCH  25  26
ENDBRANCH  24  25
ENDBRANCH   8  24
TORSDOF 8
ENDMDL
MODEL 7
REMARK VINA RESULT:      -5.8      7.082     10.696
REMARK  8 active torsions:
REMARK  status: ('A' for Active; 'I' for Inactive)
REMARK    1  A    between atoms: O_4  and  C_17 
REMARK    2  A    between atoms: O_4  and  C_22 
REMARK    3  A    between atoms: O_5  and  C_19 
REMARK    4  A    between atoms: C_12  and  N_10 
REMARK       I    between atoms: N_10  and  C_18 
REMARK    5  A    between atoms: C_14  and  C_19 
REMARK    6  A    between atoms: C_15  and  C_17 
REMARK    7  A    between atoms: C_18  and  C_20 
REMARK    8  A    between atoms: C_20  and  C_21 
ROOT
HETATM    1  S   UNK N   1      28.206  19.156   7.910  0.00  0.00    -0.136 SA
HETATM    2  O   UNK N   1      28.727  17.292   3.938  0.00  0.00    -0.271 OA
HETATM    3  N   UNK N   1      28.876  17.280   6.212  0.00  0.00    -0.293 N 
HETATM    4  C   UNK N   1      27.751  17.673   6.994  0.00  0.00     0.187 A 
HETATM    5  C   UNK N   1      26.987  17.942   5.593  0.00  0.00     0.210 A 
HETATM    6  C   UNK N   1      28.263  17.382   5.061  0.00  0.00     0.251 A 
HETATM    7  C   UNK N   1      30.229  17.075   6.645  0.00  0.00     0.117 C 
HETATM    8  C   UNK N   1      30.562  17.542   7.893  0.00  0.00    -0.013 C 
HETATM    9  C   UNK N   1      29.540  18.237   8.777  0.00  0.00     0.115 C 
ENDROOT
BRANCH   5  10
HETATM   10  N   UNK N   1      25.752  17.198   5.400  0.00  0.00    -0.345 N 
HETATM   11  C   UNK N   1      24.560  17.625   4.917  0.00  0.00     0.223 C 
HETATM   12  O   UNK N   1      24.368  18.797   4.633  0.00  0.00    -0.273 OA
HETATM   13  H   UNK N   1      25.787  16.249   5.658  0.00  0.00     0.163 HD
BRANCH  11  14
HETATM   14  C   UNK N   1      23.488  16.603   4.687  0.00  0.00     0.148 C 
BRANCH  14  15
HETATM   15  C   UNK N   1      22.462  16.604   5.767  0.00  0.00    -0.009 A 
HETATM   16  S   UNK N   1      21.350  17.791   6.058  0.00  0.00    -0.106 SA
HETATM   17  C   UNK N   1      20.605  17.159   7.397  0.00  0.00     0.050 A 
HETATM   18  C   UNK N   1      21.256  15.944   7.663  0.00  0.00     0.008 A 
HETATM   19  C   UNK N   1      22.303  15.632   6.748  0.00  0.00     0.015 A 
ENDBRANCH  14  15
ENDBRANCH  11  14
ENDBRANCH   5  10
BRANCH   7  20
HETATM   20  C   UNK N   1      31.210  16.383   5.749  0.00  0.00     0.194 C 
HETATM   21  O   UNK N   1      31.889  17.033   4.972  0.00  0.00    -0.645 OA
BRANCH  20  22
HETATM   22  O   UNK N   1      31.346  15.043   5.757  0.00  0.00    -0.772 OA
HETATM   23  H   UNK N   1      32.157  14.603   5.925  0.00  0.00     0.167 HD
ENDBRANCH  20  22
ENDBRANCH   7  20
BRANCH   8  24
HETATM   24  C   UNK N   1      31.910  17.331   8.530  0.00  0.00     0.216 C 
BRANCH  24  25
HETATM   25  O   UNK N   1      32.764  18.398   8.357  0.00  0.00    -0.317 OA
BRANCH  25  26
HETATM   26  C   UNK N   1      34.062  18.231   7.999  0.00  0.00     0.255 C 
HETATM   27  O   UNK N   1      34.887  19.071   8.317  0.00  0.00    -0.266 OA
HETATM   28  C   UNK N   1      34.511  17.029   7.225  0.00  0.00     0.126 C 
ENDBRANCH  25  26
ENDBRANCH  24  25
ENDBRANCH   8  24
TORSDOF 8
ENDMDL
MODEL 8
REMARK VINA RESULT:      -5.7     10.335     13.527
REMARK  8 active torsions:
REMARK  status: ('A' for Active; 'I' for Inactive)
REMARK    1  A    between atoms: O_4  and  C_17 
REMARK    2  A    between atoms: O_4  and  C_22 
REMARK    3  A    between atoms: O_5  and  C_19 
REMARK    4  A    between atoms: C_12  and  N_10 
REMARK       I    between atoms: N_10  and  C_18 
REMARK    5  A    between atoms: C_14  and  C_19 
REMARK    6  A    between atoms: C_15  and  C_17 
REMARK    7  A    between atoms: C_18  and  C_20 
REMARK    8  A    between atoms: C_20  and  C_21 
ROOT
HETATM    1  S   UNK N   1      23.837  13.901   5.275  0.00  0.00    -0.136 SA
HETATM    2  O   UNK N   1      21.088  17.360   5.321  0.00  0.00    -0.271 OA
HETATM    3  N   UNK N   1      22.498  15.884   6.335  0.00  0.00    -0.293 N 
HETATM    4  C   UNK N   1      23.781  15.633   5.770  0.00  0.00     0.187 A 
HETATM    5  C   UNK N   1      23.365  16.666   4.595  0.00  0.00     0.210 A 
HETATM    6  C   UNK N   1      22.163  16.804   5.468  0.00  0.00     0.251 A 
HETATM    7  C   UNK N   1      21.829  15.156   7.376  0.00  0.00     0.117 C 
HETATM    8  C   UNK N   1      22.348  13.929   7.711  0.00  0.00    -0.013 C 
HETATM    9  C   UNK N   1      23.579  13.373   7.016  0.00  0.00     0.115 C 
ENDROOT
BRANCH   5  10
HETATM   10  N   UNK N   1      24.249  17.807   4.424  0.00  0.00    -0.345 N 
HETATM   11  C   UNK N   1      25.329  17.941   3.615  0.00  0.00     0.223 C 
HETATM   12  O   UNK N   1      25.742  17.011   2.941  0.00  0.00    -0.273 OA
HETATM   13  H   UNK N   1      24.034  18.595   4.974  0.00  0.00     0.163 HD
BRANCH  11  14
HETATM   14  C   UNK N   1      25.979  19.290   3.528  0.00  0.00     0.148 C 
BRANCH  14  15
HETATM   15  C   UNK N   1      26.614  19.698   4.812  0.00  0.00    -0.009 A 
HETATM   16  S   UNK N   1      27.499  18.730   5.816  0.00  0.00    -0.106 SA
HETATM   17  C   UNK N   1      27.828  19.808   7.032  0.00  0.00     0.050 A 
HETATM   18  C   UNK N   1      27.205  21.010   6.660  0.00  0.00     0.008 A 
HETATM   19  C   UNK N   1      26.520  20.948   5.413  0.00  0.00     0.015 A 
ENDBRANCH  14  15
ENDBRANCH  11  14
ENDBRANCH   5  10
BRANCH   7  20
HETATM   20  C   UNK N   1      20.619  15.735   8.044  0.00  0.00     0.194 C 
HETATM   21  O   UNK N   1      19.511  15.302   7.777  0.00  0.00    -0.645 OA
BRANCH  20  22
HETATM   22  O   UNK N   1      20.719  16.753   8.920  0.00  0.00    -0.772 OA
HETATM   23  H   UNK N   1      20.885  17.641   8.670  0.00  0.00     0.167 HD
ENDBRANCH  20  22
ENDBRANCH   7  20
BRANCH   8  24
HETATM   24  C   UNK N   1      21.820  13.080   8.837  0.00  0.00     0.216 C 
BRANCH  24  25
HETATM   25  O   UNK N   1      22.721  12.131   9.269  0.00  0.00    -0.317 OA
BRANCH  25  26
HETATM   26  C   UNK N   1      23.391  12.256  10.443  0.00  0.00     0.255 C 
HETATM   27  O   UNK N   1      24.571  12.562  10.432  0.00  0.00    -0.266 OA
HETATM   28  C   UNK N   1      22.710  12.034  11.759  0.00  0.00     0.126 C 
ENDBRANCH  25  26
ENDBRANCH  24  25
ENDBRANCH   8  24
TORSDOF 8
ENDMDL
MODEL 9
REMARK VINA RESULT:      -5.7      2.567      8.909
REMARK  8 active torsions:
REMARK  status: ('A' for Active; 'I' for Inactive)
REMARK    1  A    between atoms: O_4  and  C_17 
REMARK    2  A    between atoms: O_4  and  C_22 
REMARK    3  A    between atoms: O_5  and  C_19 
REMARK    4  A    between atoms: C_12  and  N_10 
REMARK       I    between atoms: N_10  and  C_18 
REMARK    5  A    between atoms: C_14  and  C_19 
REMARK    6  A    between atoms: C_15  and  C_17 
REMARK    7  A    between atoms: C_18  and  C_20 
REMARK    8  A    between atoms: C_20  and  C_21 
ROOT
HETATM    1  S   UNK N   1      35.696  16.179  10.692  0.00  0.00    -0.136 SA
HETATM    2  O   UNK N   1      34.444  12.947   7.953  0.00  0.00    -0.271 OA
HETATM    3  N   UNK N   1      34.416  14.015   9.966  0.00  0.00    -0.293 N 
HETATM    4  C   UNK N   1      34.208  15.424  10.014  0.00  0.00     0.187 A 
HETATM    5  C   UNK N   1      34.141  15.377   8.397  0.00  0.00     0.210 A 
HETATM    6  C   UNK N   1      34.263  13.915   8.671  0.00  0.00     0.251 A 
HETATM    7  C   UNK N   1      34.852  13.147  11.022  0.00  0.00     0.117 C 
HETATM    8  C   UNK N   1      35.373  13.742  12.145  0.00  0.00    -0.013 C 
HETATM    9  C   UNK N   1      35.475  15.253  12.264  0.00  0.00     0.115 C 
ENDROOT
BRANCH   5  10
HETATM   10  N   UNK N   1      32.915  15.887   7.806  0.00  0.00    -0.345 N 
HETATM   11  C   UNK N   1      32.546  17.169   7.568  0.00  0.00     0.223 C 
HETATM   12  O   UNK N   1      33.241  18.110   7.919  0.00  0.00    -0.273 OA
HETATM   13  H   UNK N   1      32.257  15.203   7.542  0.00  0.00     0.163 HD
BRANCH  11  14
HETATM   14  C   UNK N   1      31.275  17.405   6.809  0.00  0.00     0.148 C 
BRANCH  14  15
HETATM   15  C   UNK N   1      31.429  17.145   5.350  0.00  0.00    -0.009 A 
HETATM   16  S   UNK N   1      30.365  16.330   4.385  0.00  0.00    -0.106 SA
HETATM   17  C   UNK N   1      31.189  16.383   2.947  0.00  0.00     0.050 A 
HETATM   18  C   UNK N   1      32.385  17.069   3.213  0.00  0.00     0.008 A 
HETATM   19  C   UNK N   1      32.522  17.496   4.566  0.00  0.00     0.015 A 
ENDBRANCH  14  15
ENDBRANCH  11  14
ENDBRANCH   5  10
BRANCH   7  20
HETATM   20  C   UNK N   1      34.733  11.660  10.874  0.00  0.00     0.194 C 
HETATM   21  O   UNK N   1      35.729  10.987  10.667  0.00  0.00    -0.645 OA
BRANCH  20  22
HETATM   22  O   UNK N   1      33.539  11.041  10.934  0.00  0.00    -0.772 OA
HETATM   23  H   UNK N   1      33.432  10.111  10.888  0.00  0.00     0.167 HD
ENDBRANCH  20  22
ENDBRANCH   7  20
BRANCH   8  24
HETATM   24  C   UNK N   1      35.793  12.981  13.374  0.00  0.00     0.216 C 
BRANCH  24  25
HETATM   25  O   UNK N   1      36.842  13.571  14.045  0.00  0.00    -0.317 OA
BRANCH  25  26
HETATM   26  C   UNK N   1      36.750  13.931  15.350  0.00  0.00     0.255 C 
HETATM   27  O   UNK N   1      37.503  14.782  15.793  0.00  0.00    -0.266 OA
HETATM   28  C   UNK N   1      35.735  13.313  16.263  0.00  0.00     0.126 C 
ENDBRANCH  25  26
ENDBRANCH  24  25
ENDBRANCH   8  24
TORSDOF 8
ENDMDL
