MODEL 1
REMARK VINA RESULT:      -7.2      0.000      0.000
REMARK  4 active torsions:
REMARK  status: ('A' for Active; 'I' for Inactive)
REMARK    1  A    between atoms: O_3  and  C_25 
REMARK    2  A    between atoms: O_4  and  C_26 
REMARK       I    between atoms: N_5  and  C_16 
REMARK       I    between atoms: N_6  and  C_17 
REMARK    3  A    between atoms: N_11  and  C_21 
REMARK    4  A    between atoms: C_17  and  C_19 
ROOT
HETATM    1  O   UNK N   1      36.145  12.461   7.621  0.00  0.00    -0.265 OA
HETATM    2  N   UNK N   1      32.628  15.335   8.232  0.00  0.00    -0.214 N 
HETATM    3  N   UNK N   1      35.153  14.367   8.256  0.00  0.00    -0.343 N 
HETATM    4  N   UNK N   1      30.955  16.412   6.882  0.00  0.00    -0.191 N 
ATOM      5  HN  UNK N   1      31.258  15.846   6.089  1.00  0.00     0.184 HD
HETATM    6  N   UNK N   1      31.178  17.027   9.146  0.00  0.00    -0.176 N 
ATOM      7  HN  UNK N   1      31.653  16.918  10.042  1.00  0.00     0.186 HD
HETATM    8  C   UNK N   1      33.294  15.195   9.508  0.00  0.00     0.161 C 
HETATM    9  C   UNK N   1      33.040  14.498   7.117  0.00  0.00     0.161 C 
HETATM   10  C   UNK N   1      34.793  15.307   9.294  0.00  0.00     0.146 C 
HETATM   11  C   UNK N   1      34.560  14.565   6.951  0.00  0.00     0.146 C 
HETATM   12  C   UNK N   1      31.580  16.276   8.082  0.00  0.00     0.682 A 
HETATM   13  C   UNK N   1      35.900  13.253   8.521  0.00  0.00     0.277 C 
HETATM   14  C   UNK N   1      29.935  17.291   6.723  0.00  0.00     0.066 A 
HETATM   15  C   UNK N   1      29.507  18.072   7.808  0.00  0.00     0.038 A 
HETATM   16  C   UNK N   1      30.160  17.919   9.037  0.00  0.00     0.127 A 
HETATM   17  C   UNK N   1      29.315  17.416   5.486  0.00  0.00     0.070 A 
HETATM   18  C   UNK N   1      28.454  18.974   7.640  0.00  0.00     0.057 A 
HETATM   19  C   UNK N   1      28.257  18.323   5.301  0.00  0.00     0.103 A 
HETATM   20  C   UNK N   1      27.818  19.114   6.401  0.00  0.00     0.102 A 
ENDROOT
BRANCH  16  21
HETATM   21  N   UNK N   1      29.773  18.676  10.164  0.00  0.00    -0.384 N 
HETATM   22  H   UNK N   1      28.821  18.755  10.402  0.00  0.00     0.157 HD
HETATM   23  H   UNK N   1      30.456  19.125  10.712  0.00  0.00     0.157 HD
ENDBRANCH  16  21
BRANCH  19  24
HETATM   24  O   UNK N   1      27.664  18.439   4.087  0.00  0.00    -0.353 OA
HETATM   25  C   UNK N   1      26.570  17.696   3.702  0.00  0.00     0.210 C 
ENDBRANCH  19  24
BRANCH  13  26
HETATM   26  C   UNK N   1      36.373  12.940   9.894  0.00  0.00     0.142 A 
HETATM   27  O   UNK N   1      35.657  12.351  10.820  0.00  0.00    -0.317 OA
HETATM   28  C   UNK N   1      36.387  12.180  11.895  0.00  0.00     0.143 A 
HETATM   29  C   UNK N   1      37.653  12.681  11.660  0.00  0.00     0.027 A 
HETATM   30  C   UNK N   1      37.646  13.172  10.367  0.00  0.00     0.045 A 
ENDBRANCH  13  26
BRANCH  20  31
HETATM   31  O   UNK N   1      26.803  20.015   6.319  0.00  0.00    -0.353 OA
HETATM   32  C   UNK N   1      26.949  21.369   6.127  0.00  0.00     0.210 C 
ENDBRANCH  20  31
TORSDOF 4
ENDMDL
MODEL 2
REMARK VINA RESULT:      -7.0      4.060     10.177
REMARK  4 active torsions:
REMARK  status: ('A' for Active; 'I' for Inactive)
REMARK    1  A    between atoms: O_3  and  C_25 
REMARK    2  A    between atoms: O_4  and  C_26 
REMARK       I    between atoms: N_5  and  C_16 
REMARK       I    between atoms: N_6  and  C_17 
REMARK    3  A    between atoms: N_11  and  C_21 
REMARK    4  A    between atoms: C_17  and  C_19 
ROOT
HETATM    1  O   UNK N   1      34.501  18.624   8.705  0.00  0.00    -0.265 OA
HETATM    2  N   UNK N   1      34.255  14.377  10.411  0.00  0.00    -0.214 N 
HETATM    3  N   UNK N   1      34.877  16.415   8.746  0.00  0.00    -0.343 N 
HETATM    4  N   UNK N   1      34.891  13.230  12.427  0.00  0.00    -0.191 N 
ATOM      5  HN  UNK N   1      35.130  14.131  12.841  1.00  0.00     0.184 HD
HETATM    6  N   UNK N   1      34.103  11.980  10.590  0.00  0.00    -0.176 N 
ATOM      7  HN  UNK N   1      33.755  11.954   9.631  1.00  0.00     0.186 HD
HETATM    8  C   UNK N   1      33.766  14.322   9.051  0.00  0.00     0.161 C 
HETATM    9  C   UNK N   1      34.558  15.667  11.008  0.00  0.00     0.161 C 
HETATM   10  C   UNK N   1      34.712  15.105   8.158  0.00  0.00     0.146 C 
HETATM   11  C   UNK N   1      35.458  16.476  10.069  0.00  0.00     0.146 C 
HETATM   12  C   UNK N   1      34.427  13.181  11.149  0.00  0.00     0.682 A 
HETATM   13  C   UNK N   1      34.377  17.540   8.151  0.00  0.00     0.277 C 
HETATM   14  C   UNK N   1      35.042  12.098  13.156  0.00  0.00     0.066 A 
HETATM   15  C   UNK N   1      34.711  10.853  12.598  0.00  0.00     0.038 A 
HETATM   16  C   UNK N   1      34.234  10.820  11.282  0.00  0.00     0.127 A 
HETATM   17  C   UNK N   1      35.523  12.173  14.458  0.00  0.00     0.070 A 
HETATM   18  C   UNK N   1      34.867   9.690  13.356  0.00  0.00     0.057 A 
HETATM   19  C   UNK N   1      35.687  11.010  15.232  0.00  0.00     0.103 A 
HETATM   20  C   UNK N   1      35.350   9.746  14.668  0.00  0.00     0.102 A 
ENDROOT
BRANCH  16  21
HETATM   21  N   UNK N   1      33.885   9.598  10.668  0.00  0.00    -0.384 N 
HETATM   22  H   UNK N   1      34.389   9.278   9.884  0.00  0.00     0.157 HD
HETATM   23  H   UNK N   1      33.138   9.065  11.023  0.00  0.00     0.157 HD
ENDBRANCH  16  21
BRANCH  19  24
HETATM   24  O   UNK N   1      36.162  11.097  16.498  0.00  0.00    -0.353 OA
HETATM   25  C   UNK N   1      35.352  11.228  17.605  0.00  0.00     0.210 C 
ENDBRANCH  19  24
BRANCH  13  26
HETATM   26  C   UNK N   1      33.623  17.476   6.872  0.00  0.00     0.142 A 
HETATM   27  O   UNK N   1      34.155  17.588   5.680  0.00  0.00    -0.317 OA
HETATM   28  C   UNK N   1      33.224  17.437   4.770  0.00  0.00     0.143 A 
HETATM   29  C   UNK N   1      32.015  17.209   5.400  0.00  0.00     0.027 A 
HETATM   30  C   UNK N   1      32.272  17.233   6.759  0.00  0.00     0.045 A 
ENDBRANCH  13  26
BRANCH  20  31
HETATM   31  O   UNK N   1      35.473   8.570  15.339  0.00  0.00    -0.353 OA
HETATM   32  C   UNK N   1      36.599   7.780  15.367  0.00  0.00     0.210 C 
ENDBRANCH  20  31
TORSDOF 4
ENDMDL
MODEL 3
REMARK VINA RESULT:      -6.9      3.471      5.147
REMARK  4 active torsions:
REMARK  status: ('A' for Active; 'I' for Inactive)
REMARK    1  A    between atoms: O_3  and  C_25 
REMARK    2  A    between atoms: O_4  and  C_26 
REMARK       I    between atoms: N_5  and  C_16 
REMARK       I    between atoms: N_6  and  C_17 
REMARK    3  A    between atoms: N_11  and  C_21 
REMARK    4  A    between atoms: C_17  and  C_19 
ROOT
HETATM    1  O   UNK N   1      37.389  11.642  13.213  0.00  0.00    -0.265 OA
HETATM    2  N   UNK N   1      34.901  14.213  10.349  0.00  0.00    -0.214 N 
HETATM    3  N   UNK N   1      36.620  13.552  12.329  0.00  0.00    -0.343 N 
HETATM    4  N   UNK N   1      34.669  14.516   7.975  0.00  0.00    -0.191 N 
ATOM      5  HN  UNK N   1      35.276  13.709   7.832  1.00  0.00     0.184 HD
HETATM    6  N   UNK N   1      33.567  16.000   9.437  0.00  0.00    -0.176 N 
ATOM      7  HN  UNK N   1      33.356  16.298  10.390  1.00  0.00     0.186 HD
HETATM    8  C   UNK N   1      34.595  14.650  11.693  0.00  0.00     0.161 C 
HETATM    9  C   UNK N   1      35.735  13.039  10.153  0.00  0.00     0.161 C 
HETATM   10  C   UNK N   1      35.893  14.793  12.469  0.00  0.00     0.146 C 
HETATM   11  C   UNK N   1      37.010  13.162  10.992  0.00  0.00     0.146 C 
HETATM   12  C   UNK N   1      34.380  14.923   9.240  0.00  0.00     0.682 A 
HETATM   13  C   UNK N   1      36.806  12.704  13.385  0.00  0.00     0.277 C 
HETATM   14  C   UNK N   1      34.163  15.170   6.900  0.00  0.00     0.066 A 
HETATM   15  C   UNK N   1      33.324  16.279   7.085  0.00  0.00     0.038 A 
HETATM   16  C   UNK N   1      33.035  16.685   8.393  0.00  0.00     0.127 A 
HETATM   17  C   UNK N   1      34.477  14.738   5.617  0.00  0.00     0.070 A 
HETATM   18  C   UNK N   1      32.803  16.947   5.974  0.00  0.00     0.057 A 
HETATM   19  C   UNK N   1      33.963  15.403   4.490  0.00  0.00     0.103 A 
HETATM   20  C   UNK N   1      33.109  16.527   4.674  0.00  0.00     0.102 A 
ENDROOT
BRANCH  16  21
HETATM   21  N   UNK N   1      32.197  17.793   8.641  0.00  0.00    -0.384 N 
HETATM   22  H   UNK N   1      31.281  17.654   8.974  0.00  0.00     0.157 HD
HETATM   23  H   UNK N   1      32.529  18.706   8.482  0.00  0.00     0.157 HD
ENDBRANCH  16  21
BRANCH  19  24
HETATM   24  O   UNK N   1      34.282  14.975   3.243  0.00  0.00    -0.353 OA
HETATM   25  C   UNK N   1      33.633  13.938   2.608  0.00  0.00     0.210 C 
ENDBRANCH  19  24
BRANCH  13  26
HETATM   26  C   UNK N   1      36.259  13.005  14.733  0.00  0.00     0.142 A 
HETATM   27  O   UNK N   1      36.814  13.811  15.606  0.00  0.00    -0.317 OA
HETATM   28  C   UNK N   1      36.053  13.893  16.670  0.00  0.00     0.143 A 
HETATM   29  C   UNK N   1      34.935  13.102  16.483  0.00  0.00     0.027 A 
HETATM   30  C   UNK N   1      35.067  12.528  15.231  0.00  0.00     0.045 A 
ENDBRANCH  13  26
BRANCH  20  31
HETATM   31  O   UNK N   1      32.564  17.231   3.647  0.00  0.00    -0.353 OA
HETATM   32  C   UNK N   1      31.404  16.907   2.982  0.00  0.00     0.210 C 
ENDBRANCH  20  31
TORSDOF 4
ENDMDL
MODEL 4
REMARK VINA RESULT:      -6.7      3.079      9.484
REMARK  4 active torsions:
REMARK  status: ('A' for Active; 'I' for Inactive)
REMARK    1  A    between atoms: O_3  and  C_25 
REMARK    2  A    between atoms: O_4  and  C_26 
REMARK       I    between atoms: N_5  and  C_16 
REMARK       I    between atoms: N_6  and  C_17 
REMARK    3  A    between atoms: N_11  and  C_21 
REMARK    4  A    between atoms: C_17  and  C_19 
ROOT
HETATM    1  O   UNK N   1      25.235  15.683   2.281  0.00  0.00    -0.265 OA
HETATM    2  N   UNK N   1      28.300  17.027   5.412  0.00  0.00    -0.214 N 
HETATM    3  N   UNK N   1      26.092  15.891   4.341  0.00  0.00    -0.343 N 
HETATM    4  N   UNK N   1      30.644  16.720   5.854  0.00  0.00    -0.191 N 
ATOM      5  HN  UNK N   1      30.734  16.258   4.949  1.00  0.00     0.184 HD
HETATM    6  N   UNK N   1      29.300  17.795   7.464  0.00  0.00    -0.176 N 
ATOM      7  HN  UNK N   1      28.383  18.133   7.757  1.00  0.00     0.186 HD
HETATM    8  C   UNK N   1      27.006  17.508   5.844  0.00  0.00     0.161 C 
HETATM    9  C   UNK N   1      28.429  16.404   4.105  0.00  0.00     0.161 C 
HETATM   10  C   UNK N   1      25.992  16.387   5.695  0.00  0.00     0.146 C 
HETATM   11  C   UNK N   1      27.359  15.321   3.938  0.00  0.00     0.146 C 
HETATM   12  C   UNK N   1      29.427  17.174   6.257  0.00  0.00     0.682 A 
HETATM   13  C   UNK N   1      25.091  16.081   3.429  0.00  0.00     0.277 C 
HETATM   14  C   UNK N   1      31.739  16.870   6.639  0.00  0.00     0.066 A 
HETATM   15  C   UNK N   1      31.627  17.509   7.884  0.00  0.00     0.038 A 
HETATM   16  C   UNK N   1      30.368  17.972   8.283  0.00  0.00     0.127 A 
HETATM   17  C   UNK N   1      32.971  16.393   6.208  0.00  0.00     0.070 A 
HETATM   18  C   UNK N   1      32.759  17.663   8.688  0.00  0.00     0.057 A 
HETATM   19  C   UNK N   1      34.118  16.539   7.007  0.00  0.00     0.103 A 
HETATM   20  C   UNK N   1      34.008  17.188   8.270  0.00  0.00     0.102 A 
ENDROOT
BRANCH  16  21
HETATM   21  N   UNK N   1      30.194  18.622   9.524  0.00  0.00    -0.384 N 
HETATM   22  H   UNK N   1      30.017  18.095  10.337  0.00  0.00     0.157 HD
HETATM   23  H   UNK N   1      30.251  19.603   9.577  0.00  0.00     0.157 HD
ENDBRANCH  16  21
BRANCH  19  24
HETATM   24  O   UNK N   1      35.312  16.063   6.577  0.00  0.00    -0.353 OA
HETATM   25  C   UNK N   1      35.502  14.770   6.141  0.00  0.00     0.210 C 
ENDBRANCH  19  24
BRANCH  13  26
HETATM   26  C   UNK N   1      23.850  16.819   3.777  0.00  0.00     0.142 A 
HETATM   27  O   UNK N   1      23.737  18.125   3.813  0.00  0.00    -0.317 OA
HETATM   28  C   UNK N   1      22.501  18.449   4.105  0.00  0.00     0.143 A 
HETATM   29  C   UNK N   1      21.761  17.292   4.264  0.00  0.00     0.027 A 
HETATM   30  C   UNK N   1      22.631  16.238   4.051  0.00  0.00     0.045 A 
ENDBRANCH  13  26
BRANCH  20  31
HETATM   31  O   UNK N   1      35.060  17.377   9.110  0.00  0.00    -0.353 OA
HETATM   32  C   UNK N   1      35.302  16.663  10.261  0.00  0.00     0.210 C 
ENDBRANCH  20  31
TORSDOF 4
ENDMDL
MODEL 5
REMARK VINA RESULT:      -6.5      5.835      9.704
REMARK  4 active torsions:
REMARK  status: ('A' for Active; 'I' for Inactive)
REMARK    1  A    between atoms: O_3  and  C_25 
REMARK    2  A    between atoms: O_4  and  C_26 
REMARK       I    between atoms: N_5  and  C_16 
REMARK       I    between atoms: N_6  and  C_17 
REMARK    3  A    between atoms: N_11  and  C_21 
REMARK    4  A    between atoms: C_17  and  C_19 
ROOT
HETATM    1  O   UNK N   1      35.530  12.853  20.054  0.00  0.00    -0.265 OA
HETATM    2  N   UNK N   1      36.113  12.610  15.515  0.00  0.00    -0.214 N 
HETATM    3  N   UNK N   1      35.163  12.067  17.988  0.00  0.00    -0.343 N 
HETATM    4  N   UNK N   1      35.909  14.069  13.614  0.00  0.00    -0.191 N 
ATOM      5  HN  UNK N   1      35.765  14.851  14.253  1.00  0.00     0.184 HD
HETATM    6  N   UNK N   1      36.291  11.770  13.264  0.00  0.00    -0.176 N 
ATOM      7  HN  UNK N   1      36.430  10.835  13.649  1.00  0.00     0.186 HD
HETATM    8  C   UNK N   1      36.307  11.278  16.044  0.00  0.00     0.161 C 
HETATM    9  C   UNK N   1      35.946  13.725  16.432  0.00  0.00     0.161 C 
HETATM   10  C   UNK N   1      35.198  10.979  17.037  0.00  0.00     0.146 C 
HETATM   11  C   UNK N   1      34.873  13.387  17.471  0.00  0.00     0.146 C 
HETATM   12  C   UNK N   1      36.095  12.818  14.114  0.00  0.00     0.682 A 
HETATM   13  C   UNK N   1      35.533  11.895  19.293  0.00  0.00     0.277 C 
HETATM   14  C   UNK N   1      35.910  14.292  12.277  0.00  0.00     0.066 A 
HETATM   15  C   UNK N   1      36.112  13.225  11.388  0.00  0.00     0.038 A 
HETATM   16  C   UNK N   1      36.303  11.944  11.918  0.00  0.00     0.127 A 
HETATM   17  C   UNK N   1      35.712  15.579  11.789  0.00  0.00     0.070 A 
HETATM   18  C   UNK N   1      36.114  13.461  10.011  0.00  0.00     0.057 A 
HETATM   19  C   UNK N   1      35.709  15.831  10.407  0.00  0.00     0.103 A 
HETATM   20  C   UNK N   1      35.916  14.750   9.502  0.00  0.00     0.102 A 
ENDROOT
BRANCH  16  21
HETATM   21  N   UNK N   1      36.511  10.833  11.074  0.00  0.00    -0.384 N 
HETATM   22  H   UNK N   1      37.405  10.426  11.005  0.00  0.00     0.157 HD
HETATM   23  H   UNK N   1      35.761  10.464  10.553  0.00  0.00     0.157 HD
ENDBRANCH  16  21
BRANCH  19  24
HETATM   24  O   UNK N   1      35.510  17.090   9.944  0.00  0.00    -0.353 OA
HETATM   25  C   UNK N   1      34.457  17.440   9.128  0.00  0.00     0.210 C 
ENDBRANCH  19  24
BRANCH  13  26
HETATM   26  C   UNK N   1      36.002  10.581  19.803  0.00  0.00     0.142 A 
HETATM   27  O   UNK N   1      37.233  10.138  19.718  0.00  0.00    -0.317 OA
HETATM   28  C   UNK N   1      37.319   8.971  20.308  0.00  0.00     0.143 A 
HETATM   29  C   UNK N   1      36.077   8.632  20.813  0.00  0.00     0.027 A 
HETATM   30  C   UNK N   1      35.226   9.672  20.488  0.00  0.00     0.045 A 
ENDBRANCH  13  26
BRANCH  20  31
HETATM   31  O   UNK N   1      35.932  14.897   8.150  0.00  0.00    -0.353 OA
HETATM   32  C   UNK N   1      35.106  14.243   7.265  0.00  0.00     0.210 C 
ENDBRANCH  20  31
TORSDOF 4
ENDMDL
MODEL 6
REMARK VINA RESULT:      -6.5      3.431      9.875
REMARK  4 active torsions:
REMARK  status: ('A' for Active; 'I' for Inactive)
REMARK    1  A    between atoms: O_3  and  C_25 
REMARK    2  A    between atoms: O_4  and  C_26 
REMARK       I    between atoms: N_5  and  C_16 
REMARK       I    between atoms: N_6  and  C_17 
REMARK    3  A    between atoms: N_11  and  C_21 
REMARK    4  A    between atoms: C_17  and  C_19 
ROOT
HETATM    1  O   UNK N   1      31.108  17.547   6.973  0.00  0.00    -0.265 OA
HETATM    2  N   UNK N   1      34.048  14.662   8.982  0.00  0.00    -0.214 N 
HETATM    3  N   UNK N   1      33.118  16.658   7.412  0.00  0.00    -0.343 N 
HETATM    4  N   UNK N   1      34.722  14.077  11.215  0.00  0.00    -0.191 N 
ATOM      5  HN  UNK N   1      33.961  14.654  11.575  1.00  0.00     0.184 HD
HETATM    6  N   UNK N   1      35.928  13.211   9.385  0.00  0.00    -0.176 N 
ATOM      7  HN  UNK N   1      36.065  13.146   8.376  1.00  0.00     0.186 HD
HETATM    8  C   UNK N   1      34.258  14.563   7.555  0.00  0.00     0.161 C 
HETATM    9  C   UNK N   1      32.939  15.455   9.487  0.00  0.00     0.161 C 
HETATM   10  C   UNK N   1      34.304  15.963   6.968  0.00  0.00     0.146 C 
HETATM   11  C   UNK N   1      32.956  16.842   8.838  0.00  0.00     0.146 C 
HETATM   12  C   UNK N   1      34.915  13.983   9.873  0.00  0.00     0.682 A 
HETATM   13  C   UNK N   1      32.116  16.998   6.547  0.00  0.00     0.277 C 
HETATM   14  C   UNK N   1      35.527  13.418  12.083  0.00  0.00     0.066 A 
HETATM   15  C   UNK N   1      36.574  12.617  11.599  0.00  0.00     0.038 A 
HETATM   16  C   UNK N   1      36.759  12.529  10.215  0.00  0.00     0.127 A 
HETATM   17  C   UNK N   1      35.314  13.534  13.452  0.00  0.00     0.070 A 
HETATM   18  C   UNK N   1      37.399  11.938  12.498  0.00  0.00     0.057 A 
HETATM   19  C   UNK N   1      36.138  12.858  14.368  0.00  0.00     0.103 A 
HETATM   20  C   UNK N   1      37.199  12.044  13.880  0.00  0.00     0.102 A 
ENDROOT
BRANCH  16  21
HETATM   21  N   UNK N   1      37.794  11.740   9.669  0.00  0.00    -0.384 N 
HETATM   22  H   UNK N   1      38.573  12.170   9.248  0.00  0.00     0.157 HD
HETATM   23  H   UNK N   1      37.736  10.758   9.711  0.00  0.00     0.157 HD
ENDBRANCH  16  21
BRANCH  19  24
HETATM   24  O   UNK N   1      35.922  12.985  15.700  0.00  0.00    -0.353 OA
HETATM   25  C   UNK N   1      34.831  12.447  16.347  0.00  0.00     0.210 C 
ENDBRANCH  19  24
BRANCH  13  26
HETATM   26  C   UNK N   1      32.186  16.661   5.101  0.00  0.00     0.142 A 
HETATM   27  O   UNK N   1      31.853  15.504   4.582  0.00  0.00    -0.317 OA
HETATM   28  C   UNK N   1      31.985  15.556   3.280  0.00  0.00     0.143 A 
HETATM   29  C   UNK N   1      32.424  16.817   2.924  0.00  0.00     0.027 A 
HETATM   30  C   UNK N   1      32.553  17.533   4.100  0.00  0.00     0.045 A 
ENDBRANCH  13  26
BRANCH  20  31
HETATM   31  O   UNK N   1      38.046  11.352  14.687  0.00  0.00    -0.353 OA
HETATM   32  C   UNK N   1      38.237   9.990  14.667  0.00  0.00     0.210 C 
ENDBRANCH  20  31
TORSDOF 4
ENDMDL
MODEL 7
REMARK VINA RESULT:      -6.5      2.040      2.837
REMARK  4 active torsions:
REMARK  status: ('A' for Active; 'I' for Inactive)
REMARK    1  A    between atoms: O_3  and  C_25 
REMARK    2  A    between atoms: O_4  and  C_26 
REMARK       I    between atoms: N_5  and  C_16 
REMARK       I    between atoms: N_6  and  C_17 
REMARK    3  A    between atoms: N_11  and  C_21 
REMARK    4  A    between atoms: C_17  and  C_19 
ROOT
HETATM    1  O   UNK N   1      37.521  12.494  10.846  0.00  0.00    -0.265 OA
HETATM    2  N   UNK N   1      33.762  14.749   9.509  0.00  0.00    -0.214 N 
HETATM    3  N   UNK N   1      36.175  14.273  10.632  0.00  0.00    -0.343 N 
HETATM    4  N   UNK N   1      32.621  15.244   7.450  0.00  0.00    -0.191 N 
ATOM      5  HN  UNK N   1      33.257  14.608   6.968  1.00  0.00     0.184 HD
HETATM    6  N   UNK N   1      31.910  16.288   9.440  0.00  0.00    -0.176 N 
ATOM      7  HN  UNK N   1      32.020  16.429  10.445  1.00  0.00     0.186 HD
HETATM    8  C   UNK N   1      33.908  14.963  10.932  0.00  0.00     0.161 C 
HETATM    9  C   UNK N   1      34.646  13.813   8.835  0.00  0.00     0.161 C 
HETATM   10  C   UNK N   1      35.357  15.304  11.230  0.00  0.00     0.146 C 
HETATM   11  C   UNK N   1      36.102  14.122   9.195  0.00  0.00     0.146 C 
HETATM   12  C   UNK N   1      32.758  15.441   8.789  0.00  0.00     0.682 A 
HETATM   13  C   UNK N   1      36.876  13.379  11.393  0.00  0.00     0.277 C 
HETATM   14  C   UNK N   1      31.654  15.881   6.747  0.00  0.00     0.066 A 
HETATM   15  C   UNK N   1      30.771  16.754   7.402  0.00  0.00     0.038 A 
HETATM   16  C   UNK N   1      30.924  16.946   8.780  0.00  0.00     0.127 A 
HETATM   17  C   UNK N   1      31.537  15.667   5.379  0.00  0.00     0.070 A 
HETATM   18  C   UNK N   1      29.774  17.406   6.672  0.00  0.00     0.057 A 
HETATM   19  C   UNK N   1      30.541  16.319   4.632  0.00  0.00     0.103 A 
HETATM   20  C   UNK N   1      29.642  17.203   5.294  0.00  0.00     0.102 A 
ENDROOT
BRANCH  16  21
HETATM   21  N   UNK N   1      30.066  17.811   9.492  0.00  0.00    -0.384 N 
HETATM   22  H   UNK N   1      29.895  18.721   9.158  0.00  0.00     0.157 HD
HETATM   23  H   UNK N   1      29.637  17.503  10.323  0.00  0.00     0.157 HD
ENDBRANCH  16  21
BRANCH  19  24
HETATM   24  O   UNK N   1      30.442  16.105   3.297  0.00  0.00    -0.353 OA
HETATM   25  C   UNK N   1      30.044  14.906   2.748  0.00  0.00     0.210 C 
ENDBRANCH  19  24
BRANCH  13  26
HETATM   26  C   UNK N   1      36.825  13.409  12.877  0.00  0.00     0.142 A 
HETATM   27  O   UNK N   1      36.602  14.479  13.600  0.00  0.00    -0.317 OA
HETATM   28  C   UNK N   1      36.574  14.152  14.869  0.00  0.00     0.143 A 
HETATM   29  C   UNK N   1      36.786  12.791  14.984  0.00  0.00     0.027 A 
HETATM   30  C   UNK N   1      36.947  12.309  13.698  0.00  0.00     0.045 A 
ENDBRANCH  13  26
BRANCH  20  31
HETATM   31  O   UNK N   1      28.647  17.876   4.656  0.00  0.00    -0.353 OA
HETATM   32  C   UNK N   1      27.361  17.420   4.476  0.00  0.00     0.210 C 
ENDBRANCH  20  31
TORSDOF 4
ENDMDL
MODEL 8
REMARK VINA RESULT:      -6.4      4.500     10.243
REMARK  4 active torsions:
REMARK  status: ('A' for Active; 'I' for Inactive)
REMARK    1  A    between atoms: O_3  and  C_25 
REMARK    2  A    between atoms: O_4  and  C_26 
REMARK       I    between atoms: N_5  and  C_16 
REMARK       I    between atoms: N_6  and  C_17 
REMARK    3  A    between atoms: N_11  and  C_21 
REMARK    4  A    between atoms: C_17  and  C_19 
ROOT
HETATM    1  O   UNK N   1      23.185  14.884   1.758  0.00  0.00    -0.265 OA
HETATM    2  N   UNK N   1      26.113  16.532   4.875  0.00  0.00    -0.214 N 
HETATM    3  N   UNK N   1      24.039  15.161   3.811  0.00  0.00    -0.343 N 
HETATM    4  N   UNK N   1      28.482  16.495   5.285  0.00  0.00    -0.191 N 
ATOM      5  HN  UNK N   1      28.614  16.060   4.372  1.00  0.00     0.184 HD
HETATM    6  N   UNK N   1      27.043  17.382   6.928  0.00  0.00    -0.176 N 
ATOM      7  HN  UNK N   1      26.097  17.606   7.237  1.00  0.00     0.186 HD
HETATM    8  C   UNK N   1      24.778  16.851   5.329  0.00  0.00     0.161 C 
HETATM    9  C   UNK N   1      26.297  15.947   3.557  0.00  0.00     0.161 C 
HETATM   10  C   UNK N   1      23.900  15.622   5.174  0.00  0.00     0.146 C 
HETATM   11  C   UNK N   1      25.359  14.749   3.385  0.00  0.00     0.146 C 
HETATM   12  C   UNK N   1      27.226  16.798   5.709  0.00  0.00     0.682 A 
HETATM   13  C   UNK N   1      23.011  15.245   2.914  0.00  0.00     0.277 C 
HETATM   14  C   UNK N   1      29.562  16.761   6.061  0.00  0.00     0.066 A 
HETATM   15  C   UNK N   1      29.392  17.364   7.317  0.00  0.00     0.038 A 
HETATM   16  C   UNK N   1      28.093  17.670   7.738  0.00  0.00     0.127 A 
HETATM   17  C   UNK N   1      30.836  16.437   5.608  0.00  0.00     0.070 A 
HETATM   18  C   UNK N   1      30.509  17.638   8.110  0.00  0.00     0.057 A 
HETATM   19  C   UNK N   1      31.968  16.705   6.397  0.00  0.00     0.103 A 
HETATM   20  C   UNK N   1      31.799  17.318   7.671  0.00  0.00     0.102 A 
ENDROOT
BRANCH  16  21
HETATM   21  N   UNK N   1      27.861  18.277   8.991  0.00  0.00    -0.384 N 
HETATM   22  H   UNK N   1      27.998  17.765   9.820  0.00  0.00     0.157 HD
HETATM   23  H   UNK N   1      27.562  19.214   9.035  0.00  0.00     0.157 HD
ENDBRANCH  16  21
BRANCH  19  24
HETATM   24  O   UNK N   1      33.204  16.379   5.945  0.00  0.00    -0.353 OA
HETATM   25  C   UNK N   1      33.486  16.122   4.621  0.00  0.00     0.210 C 
ENDBRANCH  19  24
BRANCH  13  26
HETATM   26  C   UNK N   1      21.696  15.828   3.287  0.00  0.00     0.142 A 
HETATM   27  O   UNK N   1      20.721  15.173   3.868  0.00  0.00    -0.317 OA
HETATM   28  C   UNK N   1      19.724  15.990   4.102  0.00  0.00     0.143 A 
HETATM   29  C   UNK N   1      20.065  17.253   3.655  0.00  0.00     0.027 A 
HETATM   30  C   UNK N   1      21.340  17.150   3.128  0.00  0.00     0.045 A 
ENDBRANCH  13  26
BRANCH  20  31
HETATM   31  O   UNK N   1      32.833  17.617   8.502  0.00  0.00    -0.353 OA
HETATM   32  C   UNK N   1      33.925  18.387   8.176  0.00  0.00     0.210 C 
ENDBRANCH  20  31
TORSDOF 4
ENDMDL
MODEL 9
REMARK VINA RESULT:      -6.4      4.335      6.246
REMARK  4 active torsions:
REMARK  status: ('A' for Active; 'I' for Inactive)
REMARK    1  A    between atoms: O_3  and  C_25 
REMARK    2  A    between atoms: O_4  and  C_26 
REMARK       I    between atoms: N_5  and  C_16 
REMARK       I    between atoms: N_6  and  C_17 
REMARK    3  A    between atoms: N_11  and  C_21 
REMARK    4  A    between atoms: C_17  and  C_19 
ROOT
HETATM    1  O   UNK N   1      35.553   8.403  13.579  0.00  0.00    -0.265 OA
HETATM    2  N   UNK N   1      34.931  12.430  11.482  0.00  0.00    -0.214 N 
HETATM    3  N   UNK N   1      36.070  10.505  13.002  0.00  0.00    -0.343 N 
HETATM    4  N   UNK N   1      34.645  13.241   9.236  0.00  0.00    -0.191 N 
ATOM      5  HN  UNK N   1      34.576  12.275   8.917  1.00  0.00     0.184 HD
HETATM    6  N   UNK N   1      34.937  14.788  10.990  0.00  0.00    -0.176 N 
ATOM      7  HN  UNK N   1      35.086  14.971  11.983  1.00  0.00     0.186 HD
HETATM    8  C   UNK N   1      35.147  12.706  12.885  0.00  0.00     0.161 C 
HETATM    9  C   UNK N   1      34.794  11.052  11.039  0.00  0.00     0.161 C 
HETATM   10  C   UNK N   1      36.325  11.879  13.371  0.00  0.00     0.146 C 
HETATM   11  C   UNK N   1      35.950  10.212  11.590  0.00  0.00     0.146 C 
HETATM   12  C   UNK N   1      34.845  13.498  10.556  0.00  0.00     0.682 A 
HETATM   13  C   UNK N   1      35.806   9.545  13.938  0.00  0.00     0.277 C 
HETATM   14  C   UNK N   1      34.540  14.251   8.338  0.00  0.00     0.066 A 
HETATM   15  C   UNK N   1      34.630  15.584   8.767  0.00  0.00     0.038 A 
HETATM   16  C   UNK N   1      34.834  15.832  10.129  0.00  0.00     0.127 A 
HETATM   17  C   UNK N   1      34.341  13.963   6.993  0.00  0.00     0.070 A 
HETATM   18  C   UNK N   1      34.517  16.620   7.837  0.00  0.00     0.057 A 
HETATM   19  C   UNK N   1      34.229  14.995   6.046  0.00  0.00     0.103 A 
HETATM   20  C   UNK N   1      34.318  16.349   6.479  0.00  0.00     0.102 A 
ENDROOT
BRANCH  16  21
HETATM   21  N   UNK N   1      34.932  17.152  10.620  0.00  0.00    -0.384 N 
HETATM   22  H   UNK N   1      34.942  17.318  11.590  0.00  0.00     0.157 HD
HETATM   23  H   UNK N   1      34.991  17.907   9.991  0.00  0.00     0.157 HD
ENDBRANCH  16  21
BRANCH  19  24
HETATM   24  O   UNK N   1      34.041  14.700   4.736  0.00  0.00    -0.353 OA
HETATM   25  C   UNK N   1      33.048  13.859   4.283  0.00  0.00     0.210 C 
ENDBRANCH  19  24
BRANCH  13  26
HETATM   26  C   UNK N   1      35.754   9.864  15.389  0.00  0.00     0.142 A 
HETATM   27  O   UNK N   1      36.799   9.998  16.167  0.00  0.00    -0.317 OA
HETATM   28  C   UNK N   1      36.407  10.327  17.374  0.00  0.00     0.143 A 
HETATM   29  C   UNK N   1      35.028  10.418  17.386  0.00  0.00     0.027 A 
HETATM   30  C   UNK N   1      34.604  10.120  16.104  0.00  0.00     0.045 A 
ENDBRANCH  13  26
BRANCH  20  31
HETATM   31  O   UNK N   1      34.220  17.413   5.638  0.00  0.00    -0.353 OA
HETATM   32  C   UNK N   1      33.100  17.765   4.920  0.00  0.00     0.210 C 
ENDBRANCH  20  31
TORSDOF 4
ENDMDL
