MODEL 1
REMARK VINA RESULT:      -6.4      0.000      0.000
REMARK  4 active torsions:
REMARK  status: ('A' for Active; 'I' for Inactive)
REMARK    1  A    between atoms: N_1  and  C_3 
REMARK    2  A    between atoms: N_2  and  C_11 
REMARK    3  A    between atoms: C_3  and  C_10 
REMARK    4  A    between atoms: C_10  and  C_11 
ROOT
HETATM    1  N   UNK N   1      36.478  12.609  14.645  0.00  0.00    -0.346 N 
HETATM    2  C   UNK N   1      36.146  11.192  14.775  0.00  0.00     0.041 A 
HETATM    3  C   UNK N   1      36.458  13.613  15.704  0.00  0.00     0.041 A 
HETATM    4  C   UNK N   1      35.850  11.176  17.317  0.00  0.00     0.045 C 
HETATM    5  C   UNK N   1      34.900  12.318  17.241  0.00  0.00     0.045 C 
HETATM    6  C   UNK N   1      35.854  10.517  16.003  0.00  0.00    -0.031 A 
HETATM    7  C   UNK N   1      35.726  13.490  16.920  0.00  0.00    -0.031 A 
HETATM    8  C   UNK N   1      36.123  10.406  13.600  0.00  0.00     0.030 A 
HETATM    9  C   UNK N   1      37.175  14.813  15.517  0.00  0.00     0.030 A 
HETATM   10  C   UNK N   1      35.541   9.153  16.003  0.00  0.00     0.009 A 
HETATM   11  C   UNK N   1      35.758  14.512  17.877  0.00  0.00     0.009 A 
HETATM   12  C   UNK N   1      35.817   9.045  13.619  0.00  0.00     0.002 A 
HETATM   13  C   UNK N   1      37.211  15.819  16.480  0.00  0.00     0.002 A 
HETATM   14  C   UNK N   1      35.520   8.419  14.822  0.00  0.00     0.001 A 
HETATM   15  C   UNK N   1      36.504  15.667  17.665  0.00  0.00     0.001 A 
ENDROOT
BRANCH   1  16
HETATM   16  C   UNK N   1      36.744  13.070  13.274  0.00  0.00     0.131 C 
BRANCH  16  17
HETATM   17  C   UNK N   1      35.580  13.741  12.545  0.00  0.00     0.050 C 
BRANCH  17  18
HETATM   18  C   UNK N   1      35.885  15.151  12.042  0.00  0.00     0.273 C 
BRANCH  18  19
HETATM   19  N   UNK N   1      34.791  15.700  11.228  0.00  0.00     0.080 N 
HETATM   20  C   UNK N   1      35.293  16.733  10.332  0.00  0.00     0.309 C 
HETATM   21  C   UNK N   1      34.181  14.651  10.421  0.00  0.00     0.309 C 
ENDBRANCH  18  19
ENDBRANCH  17  18
ENDBRANCH  16  17
ENDBRANCH   1  16
TORSDOF 4
ENDMDL
MODEL 2
REMARK VINA RESULT:      -6.4     20.936     25.676
REMARK  4 active torsions:
REMARK  status: ('A' for Active; 'I' for Inactive)
REMARK    1  A    between atoms: N_1  and  C_3 
REMARK    2  A    between atoms: N_2  and  C_11 
REMARK    3  A    between atoms: C_3  and  C_10 
REMARK    4  A    between atoms: C_10  and  C_11 
ROOT
HETATM    1  N   UNK N   1      26.126  25.092  -5.121  0.00  0.00    -0.346 N 
HETATM    2  C   UNK N   1      25.930  24.361  -6.371  0.00  0.00     0.041 A 
HETATM    3  C   UNK N   1      26.348  26.527  -4.972  0.00  0.00     0.041 A 
HETATM    4  C   UNK N   1      25.859  26.401  -7.914  0.00  0.00     0.045 C 
HETATM    5  C   UNK N   1      27.144  26.901  -7.358  0.00  0.00     0.045 C 
HETATM    6  C   UNK N   1      25.805  24.953  -7.667  0.00  0.00    -0.031 A 
HETATM    7  C   UNK N   1      26.822  27.383  -6.008  0.00  0.00    -0.031 A 
HETATM    8  C   UNK N   1      25.839  22.951  -6.308  0.00  0.00     0.030 A 
HETATM    9  C   UNK N   1      26.118  27.123  -3.714  0.00  0.00     0.030 A 
HETATM   10  C   UNK N   1      25.628  24.147  -8.799  0.00  0.00     0.009 A 
HETATM   11  C   UNK N   1      27.015  28.750  -5.769  0.00  0.00     0.009 A 
HETATM   12  C   UNK N   1      25.654  22.164  -7.444  0.00  0.00     0.002 A 
HETATM   13  C   UNK N   1      26.301  28.486  -3.490  0.00  0.00     0.002 A 
HETATM   14  C   UNK N   1      25.553  22.763  -8.692  0.00  0.00     0.001 A 
HETATM   15  C   UNK N   1      26.747  29.302  -4.521  0.00  0.00     0.001 A 
ENDROOT
BRANCH   1  16
HETATM   16  C   UNK N   1      26.221  24.259  -3.913  0.00  0.00     0.131 C 
BRANCH  16  17
HETATM   17  C   UNK N   1      27.599  24.169  -3.256  0.00  0.00     0.050 C 
BRANCH  17  18
HETATM   18  C   UNK N   1      28.728  23.800  -4.216  0.00  0.00     0.273 C 
BRANCH  18  19
HETATM   19  N   UNK N   1      29.867  23.182  -3.523  0.00  0.00     0.080 N 
HETATM   20  C   UNK N   1      29.562  22.990  -2.112  0.00  0.00     0.309 C 
HETATM   21  C   UNK N   1      30.175  21.883  -4.107  0.00  0.00     0.309 C 
ENDBRANCH  18  19
ENDBRANCH  17  18
ENDBRANCH  16  17
ENDBRANCH   1  16
TORSDOF 4
ENDMDL
MODEL 3
REMARK VINA RESULT:      -6.3      1.473      4.462
REMARK  4 active torsions:
REMARK  status: ('A' for Active; 'I' for Inactive)
REMARK    1  A    between atoms: N_1  and  C_3 
REMARK    2  A    between atoms: N_2  and  C_11 
REMARK    3  A    between atoms: C_3  and  C_10 
REMARK    4  A    between atoms: C_10  and  C_11 
ROOT
HETATM    1  N   UNK N   1      35.091  11.864  15.176  0.00  0.00    -0.346 N 
HETATM    2  C   UNK N   1      35.157  12.033  16.626  0.00  0.00     0.041 A 
HETATM    3  C   UNK N   1      35.181  10.609  14.437  0.00  0.00     0.041 A 
HETATM    4  C   UNK N   1      35.192   9.546  17.226  0.00  0.00     0.045 C 
HETATM    5  C   UNK N   1      36.330   9.309  16.297  0.00  0.00     0.045 C 
HETATM    6  C   UNK N   1      35.204  10.971  17.584  0.00  0.00    -0.031 A 
HETATM    7  C   UNK N   1      35.756   9.409  14.948  0.00  0.00    -0.031 A 
HETATM    8  C   UNK N   1      35.159  13.350  17.141  0.00  0.00     0.030 A 
HETATM    9  C   UNK N   1      34.706  10.566  13.109  0.00  0.00     0.030 A 
HETATM   10  C   UNK N   1      35.273  11.256  18.953  0.00  0.00     0.009 A 
HETATM   11  C   UNK N   1      35.807   8.253  14.159  0.00  0.00     0.009 A 
HETATM   12  C   UNK N   1      35.221  13.616  18.508  0.00  0.00     0.002 A 
HETATM   13  C   UNK N   1      34.750   9.408  12.337  0.00  0.00     0.002 A 
HETATM   14  C   UNK N   1      35.283  12.567  19.416  0.00  0.00     0.001 A 
HETATM   15  C   UNK N   1      35.299   8.247  12.865  0.00  0.00     0.001 A 
ENDROOT
BRANCH   1  16
HETATM   16  C   UNK N   1      35.048  13.111  14.398  0.00  0.00     0.131 C 
BRANCH  16  17
HETATM   17  C   UNK N   1      36.384  13.629  13.867  0.00  0.00     0.050 C 
BRANCH  17  18
HETATM   18  C   UNK N   1      36.416  13.845  12.355  0.00  0.00     0.273 C 
BRANCH  18  19
HETATM   19  N   UNK N   1      35.220  14.547  11.868  0.00  0.00     0.080 N 
HETATM   20  C   UNK N   1      35.564  15.891  11.422  0.00  0.00     0.309 C 
HETATM   21  C   UNK N   1      34.629  13.829  10.747  0.00  0.00     0.309 C 
ENDBRANCH  18  19
ENDBRANCH  17  18
ENDBRANCH  16  17
ENDBRANCH   1  16
TORSDOF 4
ENDMDL
MODEL 4
REMARK VINA RESULT:      -6.2      5.818     11.104
REMARK  4 active torsions:
REMARK  status: ('A' for Active; 'I' for Inactive)
REMARK    1  A    between atoms: N_1  and  C_3 
REMARK    2  A    between atoms: N_2  and  C_11 
REMARK    3  A    between atoms: C_3  and  C_10 
REMARK    4  A    between atoms: C_10  and  C_11 
ROOT
HETATM    1  N   UNK N   1      31.779  17.384   6.903  0.00  0.00    -0.346 N 
HETATM    2  C   UNK N   1      30.537  17.591   7.645  0.00  0.00     0.041 A 
HETATM    3  C   UNK N   1      31.921  16.746   5.598  0.00  0.00     0.041 A 
HETATM    4  C   UNK N   1      28.945  16.754   5.826  0.00  0.00     0.045 C 
HETATM    5  C   UNK N   1      29.714  15.487   5.697  0.00  0.00     0.045 C 
HETATM    6  C   UNK N   1      29.222  17.305   7.160  0.00  0.00    -0.031 A 
HETATM    7  C   UNK N   1      30.965  15.859   5.023  0.00  0.00    -0.031 A 
HETATM    8  C   UNK N   1      30.627  18.134   8.948  0.00  0.00     0.030 A 
HETATM    9  C   UNK N   1      33.096  16.979   4.852  0.00  0.00     0.030 A 
HETATM   10  C   UNK N   1      28.103  17.538   7.968  0.00  0.00     0.009 A 
HETATM   11  C   UNK N   1      31.193  15.285   3.766  0.00  0.00     0.009 A 
HETATM   12  C   UNK N   1      29.501  18.368   9.737  0.00  0.00     0.002 A 
HETATM   13  C   UNK N   1      33.307  16.413   3.597  0.00  0.00     0.002 A 
HETATM   14  C   UNK N   1      28.237  18.065   9.248  0.00  0.00     0.001 A 
HETATM   15  C   UNK N   1      32.352  15.567   3.051  0.00  0.00     0.001 A 
ENDROOT
BRANCH   1  16
HETATM   16  C   UNK N   1      33.009  17.759   7.616  0.00  0.00     0.131 C 
BRANCH  16  17
HETATM   17  C   UNK N   1      33.755  16.630   8.326  0.00  0.00     0.050 C 
BRANCH  17  18
HETATM   18  C   UNK N   1      34.765  17.105   9.369  0.00  0.00     0.273 C 
BRANCH  18  19
HETATM   19  N   UNK N   1      34.782  16.243  10.559  0.00  0.00     0.080 N 
HETATM   20  C   UNK N   1      34.053  15.008  10.304  0.00  0.00     0.309 C 
HETATM   21  C   UNK N   1      36.152  15.900  10.919  0.00  0.00     0.309 C 
ENDBRANCH  18  19
ENDBRANCH  17  18
ENDBRANCH  16  17
ENDBRANCH   1  16
TORSDOF 4
ENDMDL
MODEL 5
REMARK VINA RESULT:      -6.0      3.370      7.408
REMARK  4 active torsions:
REMARK  status: ('A' for Active; 'I' for Inactive)
REMARK    1  A    between atoms: N_1  and  C_3 
REMARK    2  A    between atoms: N_2  and  C_11 
REMARK    3  A    between atoms: C_3  and  C_10 
REMARK    4  A    between atoms: C_10  and  C_11 
ROOT
HETATM    1  N   UNK N   1      35.581   9.767  16.909  0.00  0.00    -0.346 N 
HETATM    2  C   UNK N   1      35.417  11.085  17.520  0.00  0.00     0.041 A 
HETATM    3  C   UNK N   1      35.398   9.427  15.501  0.00  0.00     0.041 A 
HETATM    4  C   UNK N   1      35.025  12.385  15.351  0.00  0.00     0.045 C 
HETATM    5  C   UNK N   1      33.948  11.442  14.947  0.00  0.00     0.045 C 
HETATM    6  C   UNK N   1      35.160  12.301  16.812  0.00  0.00    -0.031 A 
HETATM    7  C   UNK N   1      34.639  10.199  14.575  0.00  0.00    -0.031 A 
HETATM    8  C   UNK N   1      35.534  11.182  18.926  0.00  0.00     0.030 A 
HETATM    9  C   UNK N   1      35.972   8.236  15.009  0.00  0.00     0.030 A 
HETATM   10  C   UNK N   1      35.013  13.507  17.509  0.00  0.00     0.009 A 
HETATM   11  C   UNK N   1      34.511   9.788  13.242  0.00  0.00     0.009 A 
HETATM   12  C   UNK N   1      35.393  12.393  19.603  0.00  0.00     0.002 A 
HETATM   13  C   UNK N   1      35.849   7.842  13.679  0.00  0.00     0.002 A 
HETATM   14  C   UNK N   1      35.127  13.556  18.894  0.00  0.00     0.001 A 
HETATM   15  C   UNK N   1      35.120   8.622  12.792  0.00  0.00     0.001 A 
ENDROOT
BRANCH   1  16
HETATM   16  C   UNK N   1      35.842   8.666  17.847  0.00  0.00     0.131 C 
BRANCH  16  17
HETATM   17  C   UNK N   1      34.621   7.899  18.353  0.00  0.00     0.050 C 
BRANCH  17  18
HETATM   18  C   UNK N   1      34.733   7.427  19.802  0.00  0.00     0.273 C 
BRANCH  18  19
HETATM   19  N   UNK N   1      33.659   7.968  20.648  0.00  0.00     0.080 N 
HETATM   20  C   UNK N   1      34.195   8.943  21.588  0.00  0.00     0.309 C 
HETATM   21  C   UNK N   1      32.649   8.626  19.830  0.00  0.00     0.309 C 
ENDBRANCH  18  19
ENDBRANCH  17  18
ENDBRANCH  16  17
ENDBRANCH   1  16
TORSDOF 4
ENDMDL
MODEL 6
REMARK VINA RESULT:      -5.9     10.177     14.777
REMARK  4 active torsions:
REMARK  status: ('A' for Active; 'I' for Inactive)
REMARK    1  A    between atoms: N_1  and  C_3 
REMARK    2  A    between atoms: N_2  and  C_11 
REMARK    3  A    between atoms: C_3  and  C_10 
REMARK    4  A    between atoms: C_10  and  C_11 
ROOT
HETATM    1  N   UNK N   1      28.391  17.807   4.626  0.00  0.00    -0.346 N 
HETATM    2  C   UNK N   1      27.645  19.002   5.017  0.00  0.00     0.041 A 
HETATM    3  C   UNK N   1      27.974  16.792   3.663  0.00  0.00     0.041 A 
HETATM    4  C   UNK N   1      25.735  18.739   3.335  0.00  0.00     0.045 C 
HETATM    5  C   UNK N   1      25.494  17.341   3.784  0.00  0.00     0.045 C 
HETATM    6  C   UNK N   1      26.418  19.443   4.429  0.00  0.00    -0.031 A 
HETATM    7  C   UNK N   1      26.626  16.564   3.262  0.00  0.00    -0.031 A 
HETATM    8  C   UNK N   1      28.177  19.806   6.052  0.00  0.00     0.030 A 
HETATM    9  C   UNK N   1      28.952  15.941   3.106  0.00  0.00     0.030 A 
HETATM   10  C   UNK N   1      25.788  20.604   4.895  0.00  0.00     0.009 A 
HETATM   11  C   UNK N   1      26.319  15.558   2.337  0.00  0.00     0.009 A 
HETATM   12  C   UNK N   1      27.541  20.963   6.498  0.00  0.00     0.002 A 
HETATM   13  C   UNK N   1      28.638  14.951   2.178  0.00  0.00     0.002 A 
HETATM   14  C   UNK N   1      26.342  21.360   5.922  0.00  0.00     0.001 A 
HETATM   15  C   UNK N   1      27.319  14.761   1.789  0.00  0.00     0.001 A 
ENDROOT
BRANCH   1  16
HETATM   16  C   UNK N   1      29.631  17.564   5.378  0.00  0.00     0.131 C 
BRANCH  16  17
HETATM   17  C   UNK N   1      29.503  16.725   6.648  0.00  0.00     0.050 C 
BRANCH  17  18
HETATM   18  C   UNK N   1      30.308  17.254   7.833  0.00  0.00     0.273 C 
BRANCH  18  19
HETATM   19  N   UNK N   1      29.490  17.388   9.047  0.00  0.00     0.080 N 
HETATM   20  C   UNK N   1      29.736  18.673   9.688  0.00  0.00     0.309 C 
HETATM   21  C   UNK N   1      28.073  17.304   8.717  0.00  0.00     0.309 C 
ENDBRANCH  18  19
ENDBRANCH  17  18
ENDBRANCH  16  17
ENDBRANCH   1  16
TORSDOF 4
ENDMDL
MODEL 7
REMARK VINA RESULT:      -5.9     22.808     25.328
REMARK  4 active torsions:
REMARK  status: ('A' for Active; 'I' for Inactive)
REMARK    1  A    between atoms: N_1  and  C_3 
REMARK    2  A    between atoms: N_2  and  C_11 
REMARK    3  A    between atoms: C_3  and  C_10 
REMARK    4  A    between atoms: C_10  and  C_11 
ROOT
HETATM    1  N   UNK N   1      27.030  23.671  -5.603  0.00  0.00    -0.346 N 
HETATM    2  C   UNK N   1      28.371  23.852  -5.049  0.00  0.00     0.041 A 
HETATM    3  C   UNK N   1      26.622  22.690  -6.604  0.00  0.00     0.041 A 
HETATM    4  C   UNK N   1      29.452  21.833  -6.192  0.00  0.00     0.045 C 
HETATM    5  C   UNK N   1      28.960  22.287  -7.521  0.00  0.00     0.045 C 
HETATM    6  C   UNK N   1      29.498  23.011  -5.313  0.00  0.00    -0.031 A 
HETATM    7  C   UNK N   1      27.512  22.037  -7.505  0.00  0.00    -0.031 A 
HETATM    8  C   UNK N   1      28.583  24.935  -4.166  0.00  0.00     0.030 A 
HETATM    9  C   UNK N   1      25.252  22.379  -6.732  0.00  0.00     0.030 A 
HETATM   10  C   UNK N   1      30.740  23.288  -4.730  0.00  0.00     0.009 A 
HETATM   11  C   UNK N   1      27.026  21.115  -8.441  0.00  0.00     0.009 A 
HETATM   12  C   UNK N   1      29.825  25.193  -3.587  0.00  0.00     0.002 A 
HETATM   13  C   UNK N   1      24.780  21.452  -7.657  0.00  0.00     0.002 A 
HETATM   14  C   UNK N   1      30.907  24.371  -3.873  0.00  0.00     0.001 A 
HETATM   15  C   UNK N   1      25.670  20.815  -8.511  0.00  0.00     0.001 A 
ENDROOT
BRANCH   1  16
HETATM   16  C   UNK N   1      26.035  24.667  -5.178  0.00  0.00     0.131 C 
BRANCH  16  17
HETATM   17  C   UNK N   1      25.798  25.839  -6.129  0.00  0.00     0.050 C 
BRANCH  17  18
HETATM   18  C   UNK N   1      24.873  26.920  -5.573  0.00  0.00     0.273 C 
BRANCH  18  19
HETATM   19  N   UNK N   1      25.616  28.076  -5.054  0.00  0.00     0.080 N 
HETATM   20  C   UNK N   1      25.778  27.970  -3.610  0.00  0.00     0.309 C 
HETATM   21  C   UNK N   1      26.940  28.144  -5.659  0.00  0.00     0.309 C 
ENDBRANCH  18  19
ENDBRANCH  17  18
ENDBRANCH  16  17
ENDBRANCH   1  16
TORSDOF 4
ENDMDL
MODEL 8
REMARK VINA RESULT:      -5.9     20.387     25.014
REMARK  4 active torsions:
REMARK  status: ('A' for Active; 'I' for Inactive)
REMARK    1  A    between atoms: N_1  and  C_3 
REMARK    2  A    between atoms: N_2  and  C_11 
REMARK    3  A    between atoms: C_3  and  C_10 
REMARK    4  A    between atoms: C_10  and  C_11 
ROOT
HETATM    1  N   UNK N   1      27.686  24.184  -5.003  0.00  0.00    -0.346 N 
HETATM    2  C   UNK N   1      26.817  25.360  -5.005  0.00  0.00     0.041 A 
HETATM    3  C   UNK N   1      27.805  23.183  -6.059  0.00  0.00     0.041 A 
HETATM    4  C   UNK N   1      25.956  25.105  -7.401  0.00  0.00     0.045 C 
HETATM    5  C   UNK N   1      25.560  23.695  -7.138  0.00  0.00     0.045 C 
HETATM    6  C   UNK N   1      26.014  25.796  -6.105  0.00  0.00    -0.031 A 
HETATM    7  C   UNK N   1      26.821  22.945  -7.061  0.00  0.00    -0.031 A 
HETATM    8  C   UNK N   1      26.769  26.150  -3.833  0.00  0.00     0.030 A 
HETATM    9  C   UNK N   1      28.948  22.357  -6.087  0.00  0.00     0.030 A 
HETATM   10  C   UNK N   1      25.212  26.938  -5.986  0.00  0.00     0.009 A 
HETATM   11  C   UNK N   1      27.018  21.953  -8.031  0.00  0.00     0.009 A 
HETATM   12  C   UNK N   1      25.971  27.289  -3.734  0.00  0.00     0.002 A 
HETATM   13  C   UNK N   1      29.141  21.382  -7.062  0.00  0.00     0.002 A 
HETATM   14  C   UNK N   1      25.187  27.681  -4.811  0.00  0.00     0.001 A 
HETATM   15  C   UNK N   1      28.175  21.183  -8.039  0.00  0.00     0.001 A 
ENDROOT
BRANCH   1  16
HETATM   16  C   UNK N   1      28.417  23.944  -3.750  0.00  0.00     0.131 C 
BRANCH  16  17
HETATM   17  C   UNK N   1      29.845  24.486  -3.681  0.00  0.00     0.050 C 
BRANCH  17  18
HETATM   18  C   UNK N   1      30.813  23.604  -2.895  0.00  0.00     0.273 C 
BRANCH  18  19
HETATM   19  N   UNK N   1      31.474  22.606  -3.747  0.00  0.00     0.080 N 
HETATM   20  C   UNK N   1      32.364  23.259  -4.699  0.00  0.00     0.309 C 
HETATM   21  C   UNK N   1      32.263  21.688  -2.938  0.00  0.00     0.309 C 
ENDBRANCH  18  19
ENDBRANCH  17  18
ENDBRANCH  16  17
ENDBRANCH   1  16
TORSDOF 4
ENDMDL
MODEL 9
REMARK VINA RESULT:      -5.9      2.211      3.195
REMARK  4 active torsions:
REMARK  status: ('A' for Active; 'I' for Inactive)
REMARK    1  A    between atoms: N_1  and  C_3 
REMARK    2  A    between atoms: N_2  and  C_11 
REMARK    3  A    between atoms: C_3  and  C_10 
REMARK    4  A    between atoms: C_10  and  C_11 
ROOT
HETATM    1  N   UNK N   1      35.280  12.684  12.352  0.00  0.00    -0.346 N 
HETATM    2  C   UNK N   1      34.690  11.517  11.700  0.00  0.00     0.041 A 
HETATM    3  C   UNK N   1      35.452  12.889  13.787  0.00  0.00     0.041 A 
HETATM    4  C   UNK N   1      34.409  10.093  13.807  0.00  0.00     0.045 C 
HETATM    5  C   UNK N   1      33.688  11.199  14.492  0.00  0.00     0.045 C 
HETATM    6  C   UNK N   1      34.284  10.314  12.359  0.00  0.00    -0.031 A 
HETATM    7  C   UNK N   1      34.717  12.203  14.796  0.00  0.00    -0.031 A 
HETATM    8  C   UNK N   1      34.514  11.560  10.297  0.00  0.00     0.030 A 
HETATM    9  C   UNK N   1      36.380  13.856  14.229  0.00  0.00     0.030 A 
HETATM   10  C   UNK N   1      33.721   9.261  11.627  0.00  0.00     0.009 A 
HETATM   11  C   UNK N   1      34.944  12.474  16.151  0.00  0.00     0.009 A 
HETATM   12  C   UNK N   1      33.959  10.499   9.582  0.00  0.00     0.002 A 
HETATM   13  C   UNK N   1      36.608  14.110  15.579  0.00  0.00     0.002 A 
HETATM   14  C   UNK N   1      33.557   9.350  10.249  0.00  0.00     0.001 A 
HETATM   15  C   UNK N   1      35.891  13.414  16.543  0.00  0.00     0.001 A 
ENDROOT
BRANCH   1  16
HETATM   16  C   UNK N   1      35.619  13.801  11.458  0.00  0.00     0.131 C 
BRANCH  16  17
HETATM   17  C   UNK N   1      34.590  14.926  11.354  0.00  0.00     0.050 C 
BRANCH  17  18
HETATM   18  C   UNK N   1      35.082  16.158  10.596  0.00  0.00     0.273 C 
BRANCH  18  19
HETATM   19  N   UNK N   1      34.601  16.186   9.208  0.00  0.00     0.080 N 
HETATM   20  C   UNK N   1      33.274  15.590   9.117  0.00  0.00     0.309 C 
HETATM   21  C   UNK N   1      34.521  17.558   8.725  0.00  0.00     0.309 C 
ENDBRANCH  18  19
ENDBRANCH  17  18
ENDBRANCH  16  17
ENDBRANCH   1  16
TORSDOF 4
ENDMDL
