REMARK  4 active torsions:
REMARK  status: ('A' for Active; 'I' for Inactive)
REMARK    1  A    between atoms: O_1  and  C_13 
REMARK    2  A    between atoms: C_3  and  C_4 
REMARK    3  A    between atoms: C_4  and  C_8 
REMARK    4  A    between atoms: C_8  and  C_15 
ROOT
HETATM    1  C   UNK N   1       3.733  -0.431  -0.057  0.00  0.00    -0.057 A 
HETATM    2  C   UNK N   1       6.148  -0.323   0.051  0.00  0.00    -0.025 A 
HETATM    3  C   UNK N   1       6.086   1.088  -0.009  0.00  0.00    -0.023 A 
HETATM    4  C   UNK N   1       4.971  -1.074   0.030  0.00  0.00     0.019 A 
HETATM    5  C   UNK N   1       3.673   0.969  -0.126  0.00  0.00     0.008 A 
HETATM    6  C   UNK N   1       4.847   1.727  -0.091  0.00  0.00     0.013 A 
HETATM    7  C   UNK N   1       7.386  -0.963   0.117  0.00  0.00     0.015 A 
HETATM    8  C   UNK N   1       7.264   1.838   0.002  0.00  0.00     0.049 A 
HETATM    9  C   UNK N   1       8.507   1.198   0.069  0.00  0.00     0.069 A 
HETATM   10  C   UNK N   1       8.561  -0.207   0.125  0.00  0.00     0.037 A 
ENDROOT
BRANCH   1  11
HETATM   11  C   UNK N   1       2.491  -1.247  -0.165  0.00  0.00     0.046 C 
BRANCH  11  12
HETATM   12  C   UNK N   1       1.433  -0.807   0.829  0.00  0.00     0.082 C 
BRANCH  12  13
HETATM   13  C   UNK N   1       0.094  -0.959   0.190  0.00  0.00     0.123 C 
HETATM   14  O   UNK N   1      -0.328  -2.067  -0.100  0.00  0.00    -0.298 OA
HETATM   15  C   UNK N   1      -0.714   0.250  -0.132  0.00  0.00     0.091 C 
ENDBRANCH  12  13
ENDBRANCH  11  12
ENDBRANCH   1  11
BRANCH   9  16
HETATM   16  O   UNK N   1       9.632   1.951   0.080  0.00  0.00    -0.356 OA
HETATM   17  C   UNK N   1      10.897   1.413   0.155  0.00  0.00     0.210 C 
ENDBRANCH   9  16
TORSDOF 4
