MODEL 1
REMARK VINA RESULT:      -6.0      0.000      0.000
REMARK  4 active torsions:
REMARK  status: ('A' for Active; 'I' for Inactive)
REMARK    1  A    between atoms: O_1  and  C_13 
REMARK    2  A    between atoms: C_3  and  C_4 
REMARK    3  A    between atoms: C_4  and  C_8 
REMARK    4  A    between atoms: C_8  and  C_15 
ROOT
HETATM    1  C   UNK N   1      35.161  11.109  19.440  0.00  0.00    -0.057 A 
HETATM    2  C   UNK N   1      34.893  11.007  17.037  0.00  0.00    -0.025 A 
HETATM    3  C   UNK N   1      35.011  12.414  16.966  0.00  0.00    -0.023 A 
HETATM    4  C   UNK N   1      34.972  10.363  18.273  0.00  0.00     0.019 A 
HETATM    5  C   UNK N   1      35.269  12.506  19.370  0.00  0.00     0.008 A 
HETATM    6  C   UNK N   1      35.205  13.156  18.134  0.00  0.00     0.013 A 
HETATM    7  C   UNK N   1      34.684  10.267  15.874  0.00  0.00     0.015 A 
HETATM    8  C   UNK N   1      34.922  13.059  15.731  0.00  0.00     0.049 A 
HETATM    9  C   UNK N   1      34.713  12.318  14.562  0.00  0.00     0.069 A 
HETATM   10  C   UNK N   1      34.593  10.919  14.641  0.00  0.00     0.037 A 
ENDROOT
BRANCH   1  11
HETATM   11  C   UNK N   1      35.158  10.417  20.760  0.00  0.00     0.046 C 
BRANCH  11  12
HETATM   12  C   UNK N   1      34.289   9.174  20.748  0.00  0.00     0.082 C 
BRANCH  12  13
HETATM   13  C   UNK N   1      32.939   9.537  21.267  0.00  0.00     0.123 C 
HETATM   14  O   UNK N   1      31.939   9.012  20.805  0.00  0.00    -0.298 OA
HETATM   15  C   UNK N   1      32.809  10.575  22.327  0.00  0.00     0.091 C 
ENDBRANCH  12  13
ENDBRANCH  11  12
ENDBRANCH   1  11
BRANCH   9  16
HETATM   16  O   UNK N   1      34.632  12.970  13.378  0.00  0.00    -0.356 OA
HETATM   17  C   UNK N   1      35.648  13.756  12.881  0.00  0.00     0.210 C 
ENDBRANCH   9  16
TORSDOF 4
ENDMDL
MODEL 2
REMARK VINA RESULT:      -5.9     11.671     16.226
REMARK  4 active torsions:
REMARK  status: ('A' for Active; 'I' for Inactive)
REMARK    1  A    between atoms: O_1  and  C_13 
REMARK    2  A    between atoms: C_3  and  C_4 
REMARK    3  A    between atoms: C_4  and  C_8 
REMARK    4  A    between atoms: C_8  and  C_15 
ROOT
HETATM    1  C   UNK N   1      27.495  19.644   5.483  0.00  0.00    -0.057 A 
HETATM    2  C   UNK N   1      28.659  18.741   7.402  0.00  0.00    -0.025 A 
HETATM    3  C   UNK N   1      29.374  17.865   6.554  0.00  0.00    -0.023 A 
HETATM    4  C   UNK N   1      27.725  19.627   6.861  0.00  0.00     0.019 A 
HETATM    5  C   UNK N   1      28.199  18.768   4.643  0.00  0.00     0.008 A 
HETATM    6  C   UNK N   1      29.145  17.888   5.177  0.00  0.00     0.013 A 
HETATM    7  C   UNK N   1      28.876  18.708   8.780  0.00  0.00     0.015 A 
HETATM    8  C   UNK N   1      30.300  16.972   7.097  0.00  0.00     0.049 A 
HETATM    9  C   UNK N   1      30.521  16.938   8.479  0.00  0.00     0.069 A 
HETATM   10  C   UNK N   1      29.802  17.810   9.317  0.00  0.00     0.037 A 
ENDROOT
BRANCH   1  11
HETATM   11  C   UNK N   1      26.436  20.534   4.929  0.00  0.00     0.046 C 
BRANCH  11  12
HETATM   12  C   UNK N   1      26.360  20.456   3.416  0.00  0.00     0.082 C 
BRANCH  12  13
HETATM   13  C   UNK N   1      24.934  20.263   3.025  0.00  0.00     0.123 C 
HETATM   14  O   UNK N   1      24.455  20.907   2.106  0.00  0.00    -0.298 OA
HETATM   15  C   UNK N   1      24.080  19.308   3.786  0.00  0.00     0.091 C 
ENDBRANCH  12  13
ENDBRANCH  11  12
ENDBRANCH   1  11
BRANCH   9  16
HETATM   16  O   UNK N   1      31.426  16.062   8.977  0.00  0.00    -0.356 OA
HETATM   17  C   UNK N   1      32.781  16.180   8.765  0.00  0.00     0.210 C 
ENDBRANCH   9  16
TORSDOF 4
ENDMDL
MODEL 3
REMARK VINA RESULT:      -5.8     14.136     17.638
REMARK  4 active torsions:
REMARK  status: ('A' for Active; 'I' for Inactive)
REMARK    1  A    between atoms: O_1  and  C_13 
REMARK    2  A    between atoms: C_3  and  C_4 
REMARK    3  A    between atoms: C_4  and  C_8 
REMARK    4  A    between atoms: C_8  and  C_15 
ROOT
HETATM    1  C   UNK N   1      27.412  18.535   5.143  0.00  0.00    -0.057 A 
HETATM    2  C   UNK N   1      25.114  18.794   4.429  0.00  0.00    -0.025 A 
HETATM    3  C   UNK N   1      25.475  19.944   3.692  0.00  0.00    -0.023 A 
HETATM    4  C   UNK N   1      26.086  18.094   5.148  0.00  0.00     0.019 A 
HETATM    5  C   UNK N   1      27.767  19.682   4.419  0.00  0.00     0.008 A 
HETATM    6  C   UNK N   1      26.802  20.379   3.685  0.00  0.00     0.013 A 
HETATM    7  C   UNK N   1      23.786  18.368   4.449  0.00  0.00     0.015 A 
HETATM    8  C   UNK N   1      24.502  20.650   2.981  0.00  0.00     0.049 A 
HETATM    9  C   UNK N   1      23.168  20.224   2.999  0.00  0.00     0.069 A 
HETATM   10  C   UNK N   1      22.816  19.079   3.738  0.00  0.00     0.037 A 
ENDROOT
BRANCH   1  11
HETATM   11  C   UNK N   1      28.420  17.829   5.983  0.00  0.00     0.046 C 
BRANCH  11  12
HETATM   12  C   UNK N   1      27.771  16.995   7.071  0.00  0.00     0.082 C 
BRANCH  12  13
HETATM   13  C   UNK N   1      28.234  17.505   8.394  0.00  0.00     0.123 C 
HETATM   14  O   UNK N   1      27.594  17.264   9.406  0.00  0.00    -0.298 OA
HETATM   15  C   UNK N   1      29.462  18.344   8.476  0.00  0.00     0.091 C 
ENDBRANCH  12  13
ENDBRANCH  11  12
ENDBRANCH   1  11
BRANCH   9  16
HETATM   16  O   UNK N   1      22.247  20.926   2.299  0.00  0.00    -0.356 OA
HETATM   17  C   UNK N   1      21.129  20.351   1.737  0.00  0.00     0.210 C 
ENDBRANCH   9  16
TORSDOF 4
ENDMDL
MODEL 4
REMARK VINA RESULT:      -5.7     28.593     30.074
REMARK  4 active torsions:
REMARK  status: ('A' for Active; 'I' for Inactive)
REMARK    1  A    between atoms: O_1  and  C_13 
REMARK    2  A    between atoms: C_3  and  C_4 
REMARK    3  A    between atoms: C_4  and  C_8 
REMARK    4  A    between atoms: C_8  and  C_15 
ROOT
HETATM    1  C   UNK N   1      26.193  25.804  -7.901  0.00  0.00    -0.057 A 
HETATM    2  C   UNK N   1      25.983  27.131  -5.888  0.00  0.00    -0.025 A 
HETATM    3  C   UNK N   1      27.062  27.939  -6.310  0.00  0.00    -0.023 A 
HETATM    4  C   UNK N   1      25.552  26.070  -6.687  0.00  0.00     0.019 A 
HETATM    5  C   UNK N   1      27.270  26.602  -8.314  0.00  0.00     0.008 A 
HETATM    6  C   UNK N   1      27.697  27.674  -7.525  0.00  0.00     0.013 A 
HETATM    7  C   UNK N   1      25.358  27.385  -4.666  0.00  0.00     0.015 A 
HETATM    8  C   UNK N   1      27.499  28.994  -5.505  0.00  0.00     0.049 A 
HETATM    9  C   UNK N   1      26.874  29.251  -4.279  0.00  0.00     0.069 A 
HETATM   10  C   UNK N   1      25.801  28.440  -3.864  0.00  0.00     0.037 A 
ENDROOT
BRANCH   1  11
HETATM   11  C   UNK N   1      25.779  24.618  -8.702  0.00  0.00     0.046 C 
BRANCH  11  12
HETATM   12  C   UNK N   1      26.350  23.328  -8.146  0.00  0.00     0.082 C 
BRANCH  12  13
HETATM   13  C   UNK N   1      25.286  22.285  -8.187  0.00  0.00     0.123 C 
HETATM   14  O   UNK N   1      24.108  22.606  -8.187  0.00  0.00    -0.298 OA
HETATM   15  C   UNK N   1      25.662  20.843  -8.188  0.00  0.00     0.091 C 
ENDBRANCH  12  13
ENDBRANCH  11  12
ENDBRANCH   1  11
BRANCH   9  16
HETATM   16  O   UNK N   1      27.317  30.282  -3.521  0.00  0.00    -0.356 OA
HETATM   17  C   UNK N   1      27.816  30.119  -2.248  0.00  0.00     0.210 C 
ENDBRANCH   9  16
TORSDOF 4
ENDMDL
MODEL 5
REMARK VINA RESULT:      -5.7     22.912     26.812
REMARK  4 active torsions:
REMARK  status: ('A' for Active; 'I' for Inactive)
REMARK    1  A    between atoms: O_1  and  C_13 
REMARK    2  A    between atoms: C_3  and  C_4 
REMARK    3  A    between atoms: C_4  and  C_8 
REMARK    4  A    between atoms: C_8  and  C_15 
ROOT
HETATM    1  C   UNK N   1      26.906  24.236  -4.905  0.00  0.00    -0.057 A 
HETATM    2  C   UNK N   1      29.070  23.181  -4.658  0.00  0.00    -0.025 A 
HETATM    3  C   UNK N   1      28.959  23.286  -3.253  0.00  0.00    -0.023 A 
HETATM    4  C   UNK N   1      28.041  23.654  -5.476  0.00  0.00     0.019 A 
HETATM    5  C   UNK N   1      26.801  24.348  -3.510  0.00  0.00     0.008 A 
HETATM    6  C   UNK N   1      27.821  23.864  -2.686  0.00  0.00     0.013 A 
HETATM    7  C   UNK N   1      30.213  22.618  -5.227  0.00  0.00     0.015 A 
HETATM    8  C   UNK N   1      29.993  22.822  -2.437  0.00  0.00     0.049 A 
HETATM    9  C   UNK N   1      31.140  22.256  -3.004  0.00  0.00     0.069 A 
HETATM   10  C   UNK N   1      31.245  22.158  -4.404  0.00  0.00     0.037 A 
ENDROOT
BRANCH   1  11
HETATM   11  C   UNK N   1      25.856  24.813  -5.790  0.00  0.00     0.046 C 
BRANCH  11  12
HETATM   12  C   UNK N   1      26.417  25.867  -6.726  0.00  0.00     0.082 C 
BRANCH  12  13
HETATM   13  C   UNK N   1      26.190  27.208  -6.115  0.00  0.00     0.123 C 
HETATM   14  O   UNK N   1      26.951  28.132  -6.355  0.00  0.00    -0.298 OA
HETATM   15  C   UNK N   1      25.051  27.411  -5.176  0.00  0.00     0.091 C 
ENDBRANCH  12  13
ENDBRANCH  11  12
ENDBRANCH   1  11
BRANCH   9  16
HETATM   16  O   UNK N   1      32.125  21.813  -2.188  0.00  0.00    -0.356 OA
HETATM   17  C   UNK N   1      33.212  21.099  -2.639  0.00  0.00     0.210 C 
ENDBRANCH   9  16
TORSDOF 4
ENDMDL
MODEL 6
REMARK VINA RESULT:      -5.6     10.176     13.883
REMARK  4 active torsions:
REMARK  status: ('A' for Active; 'I' for Inactive)
REMARK    1  A    between atoms: O_1  and  C_13 
REMARK    2  A    between atoms: C_3  and  C_4 
REMARK    3  A    between atoms: C_4  and  C_8 
REMARK    4  A    between atoms: C_8  and  C_15 
ROOT
HETATM    1  C   UNK N   1      32.864  17.252   6.281  0.00  0.00    -0.057 A 
HETATM    2  C   UNK N   1      30.452  17.246   6.483  0.00  0.00    -0.025 A 
HETATM    3  C   UNK N   1      30.337  17.429   5.086  0.00  0.00    -0.023 A 
HETATM    4  C   UNK N   1      31.715  17.155   7.072  0.00  0.00     0.019 A 
HETATM    5  C   UNK N   1      32.748  17.444   4.896  0.00  0.00     0.008 A 
HETATM    6  C   UNK N   1      31.486  17.521   4.298  0.00  0.00     0.013 A 
HETATM    7  C   UNK N   1      29.304  17.170   7.272  0.00  0.00     0.015 A 
HETATM    8  C   UNK N   1      29.073  17.530   4.499  0.00  0.00     0.049 A 
HETATM    9  C   UNK N   1      27.920  17.453   5.289  0.00  0.00     0.069 A 
HETATM   10  C   UNK N   1      28.044  17.274   6.679  0.00  0.00     0.037 A 
ENDROOT
BRANCH   1  11
HETATM   11  C   UNK N   1      34.204  17.240   6.933  0.00  0.00     0.046 C 
BRANCH  11  12
HETATM   12  C   UNK N   1      34.214  18.032   8.226  0.00  0.00     0.082 C 
BRANCH  12  13
HETATM   13  C   UNK N   1      34.763  17.163   9.307  0.00  0.00     0.123 C 
HETATM   14  O   UNK N   1      35.480  17.636  10.173  0.00  0.00    -0.298 OA
HETATM   15  C   UNK N   1      34.465  15.703   9.305  0.00  0.00     0.091 C 
ENDBRANCH  12  13
ENDBRANCH  11  12
ENDBRANCH   1  11
BRANCH   9  16
HETATM   16  O   UNK N   1      26.709  17.552   4.692  0.00  0.00    -0.356 OA
HETATM   17  C   UNK N   1      25.854  18.612   4.896  0.00  0.00     0.210 C 
ENDBRANCH   9  16
TORSDOF 4
ENDMDL
MODEL 7
REMARK VINA RESULT:      -5.5     10.093     14.252
REMARK  4 active torsions:
REMARK  status: ('A' for Active; 'I' for Inactive)
REMARK    1  A    between atoms: O_1  and  C_13 
REMARK    2  A    between atoms: C_3  and  C_4 
REMARK    3  A    between atoms: C_4  and  C_8 
REMARK    4  A    between atoms: C_8  and  C_15 
ROOT
HETATM    1  C   UNK N   1      29.332  17.530   6.290  0.00  0.00    -0.057 A 
HETATM    2  C   UNK N   1      31.733  17.381   6.546  0.00  0.00    -0.025 A 
HETATM    3  C   UNK N   1      31.595  17.568   7.940  0.00  0.00    -0.023 A 
HETATM    4  C   UNK N   1      30.601  17.360   5.729  0.00  0.00     0.019 A 
HETATM    5  C   UNK N   1      29.196  17.724   7.672  0.00  0.00     0.008 A 
HETATM    6  C   UNK N   1      30.325  17.733   8.497  0.00  0.00     0.013 A 
HETATM    7  C   UNK N   1      33.003  17.233   5.986  0.00  0.00     0.015 A 
HETATM    8  C   UNK N   1      32.728  17.599   8.755  0.00  0.00     0.049 A 
HETATM    9  C   UNK N   1      34.003  17.450   8.196  0.00  0.00     0.069 A 
HETATM   10  C   UNK N   1      34.133  17.268   6.806  0.00  0.00     0.037 A 
ENDROOT
BRANCH   1  11
HETATM   11  C   UNK N   1      28.140  17.591   5.397  0.00  0.00     0.046 C 
BRANCH  11  12
HETATM   12  C   UNK N   1      28.060  18.905   4.644  0.00  0.00     0.082 C 
BRANCH  12  13
HETATM   13  C   UNK N   1      27.066  19.781   5.331  0.00  0.00     0.123 C 
HETATM   14  O   UNK N   1      25.870  19.585   5.189  0.00  0.00    -0.298 OA
HETATM   15  C   UNK N   1      27.537  20.925   6.160  0.00  0.00     0.091 C 
ENDBRANCH  12  13
ENDBRANCH  11  12
ENDBRANCH   1  11
BRANCH   9  16
HETATM   16  O   UNK N   1      35.084  17.482   9.010  0.00  0.00    -0.356 OA
HETATM   17  C   UNK N   1      35.189  16.719  10.151  0.00  0.00     0.210 C 
ENDBRANCH   9  16
TORSDOF 4
ENDMDL
MODEL 8
REMARK VINA RESULT:      -5.5     11.736     14.283
REMARK  4 active torsions:
REMARK  status: ('A' for Active; 'I' for Inactive)
REMARK    1  A    between atoms: O_1  and  C_13 
REMARK    2  A    between atoms: C_3  and  C_4 
REMARK    3  A    between atoms: C_4  and  C_8 
REMARK    4  A    between atoms: C_8  and  C_15 
ROOT
HETATM    1  C   UNK N   1      31.065  16.981   7.882  0.00  0.00    -0.057 A 
HETATM    2  C   UNK N   1      29.391  17.726   6.302  0.00  0.00    -0.025 A 
HETATM    3  C   UNK N   1      28.852  18.590   7.283  0.00  0.00    -0.023 A 
HETATM    4  C   UNK N   1      30.496  16.929   6.607  0.00  0.00     0.019 A 
HETATM    5  C   UNK N   1      30.523  17.831   8.858  0.00  0.00     0.008 A 
HETATM    6  C   UNK N   1      29.426  18.642   8.555  0.00  0.00     0.013 A 
HETATM    7  C   UNK N   1      28.809  17.662   5.036  0.00  0.00     0.015 A 
HETATM    8  C   UNK N   1      27.741  19.380   6.980  0.00  0.00     0.049 A 
HETATM    9  C   UNK N   1      27.155  19.317   5.710  0.00  0.00     0.069 A 
HETATM   10  C   UNK N   1      27.695  18.452   4.740  0.00  0.00     0.037 A 
ENDROOT
BRANCH   1  11
HETATM   11  C   UNK N   1      32.189  16.063   8.220  0.00  0.00     0.046 C 
BRANCH  11  12
HETATM   12  C   UNK N   1      33.259  16.054   7.145  0.00  0.00     0.082 C 
BRANCH  12  13
HETATM   13  C   UNK N   1      33.981  17.359   7.188  0.00  0.00     0.123 C 
HETATM   14  O   UNK N   1      34.180  17.987   6.161  0.00  0.00    -0.298 OA
HETATM   15  C   UNK N   1      34.495  17.877   8.486  0.00  0.00     0.091 C 
ENDBRANCH  12  13
ENDBRANCH  11  12
ENDBRANCH   1  11
BRANCH   9  16
HETATM   16  O   UNK N   1      26.080  20.096   5.445  0.00  0.00    -0.356 OA
HETATM   17  C   UNK N   1      25.329  19.976   4.298  0.00  0.00     0.210 C 
ENDBRANCH   9  16
TORSDOF 4
ENDMDL
MODEL 9
REMARK VINA RESULT:      -5.4      1.753      6.546
REMARK  4 active torsions:
REMARK  status: ('A' for Active; 'I' for Inactive)
REMARK    1  A    between atoms: O_1  and  C_13 
REMARK    2  A    between atoms: C_3  and  C_4 
REMARK    3  A    between atoms: C_4  and  C_8 
REMARK    4  A    between atoms: C_8  and  C_15 
ROOT
HETATM    1  C   UNK N   1      35.186  12.324  16.816  0.00  0.00    -0.057 A 
HETATM    2  C   UNK N   1      34.962  10.338  18.180  0.00  0.00    -0.025 A 
HETATM    3  C   UNK N   1      35.070  11.129  19.346  0.00  0.00    -0.023 A 
HETATM    4  C   UNK N   1      35.017  10.941  16.921  0.00  0.00     0.019 A 
HETATM    5  C   UNK N   1      35.303  13.107  17.974  0.00  0.00     0.008 A 
HETATM    6  C   UNK N   1      35.234  12.511  19.237  0.00  0.00     0.013 A 
HETATM    7  C   UNK N   1      34.814   8.955  18.288  0.00  0.00     0.015 A 
HETATM    8  C   UNK N   1      35.024  10.524  20.604  0.00  0.00     0.049 A 
HETATM    9  C   UNK N   1      34.875   9.137  20.715  0.00  0.00     0.069 A 
HETATM   10  C   UNK N   1      34.771   8.355  19.549  0.00  0.00     0.037 A 
ENDROOT
BRANCH   1  11
HETATM   11  C   UNK N   1      35.329  12.943  15.468  0.00  0.00     0.046 C 
BRANCH  11  12
HETATM   12  C   UNK N   1      36.773  13.282  15.148  0.00  0.00     0.082 C 
BRANCH  12  13
HETATM   13  C   UNK N   1      36.874  14.754  14.934  0.00  0.00     0.123 C 
HETATM   14  O   UNK N   1      36.548  15.246  13.866  0.00  0.00    -0.298 OA
HETATM   15  C   UNK N   1      37.415  15.624  16.016  0.00  0.00     0.091 C 
ENDBRANCH  12  13
ENDBRANCH  11  12
ENDBRANCH   1  11
BRANCH   9  16
HETATM   16  O   UNK N   1      34.832   8.578  21.948  0.00  0.00    -0.356 OA
HETATM   17  C   UNK N   1      33.746   7.876  22.419  0.00  0.00     0.210 C 
ENDBRANCH   9  16
TORSDOF 4
ENDMDL
