REMARK  4 active torsions:
REMARK  status: ('A' for Active; 'I' for Inactive)
REMARK    1  A    between atoms: O_1  and  C_12 
REMARK    2  A    between atoms: C_5  and  C_12 
REMARK    3  A    between atoms: C_9  and  C_13 
REMARK    4  A    between atoms: C_13  and  C_14 
ROOT
HETATM    1  N   UNK N   1       5.673   0.088  -0.075  0.00  0.00    -0.346 N 
HETATM    2  C   UNK N   1       7.019  -1.732  -0.678  0.00  0.00     0.135 A 
HETATM    3  C   UNK N   1       7.904  -0.462  -0.502  0.00  0.00     0.042 A 
HETATM    4  C   UNK N   1       6.963   0.727  -0.158  0.00  0.00     0.130 A 
HETATM    5  C   UNK N   1       5.695  -1.195  -0.324  0.00  0.00     0.026 A 
HETATM    6  C   UNK N   1       4.403   0.463   0.129  0.00  0.00     0.086 A 
HETATM    7  C   UNK N   1       4.426  -1.736  -0.271  0.00  0.00     0.028 A 
HETATM    8  C   UNK N   1       3.584  -0.661   0.024  0.00  0.00     0.036 A 
ENDROOT
BRANCH   6   9
HETATM    9  C   UNK N   1       3.964   1.867   0.349  0.00  0.00     0.208 C 
HETATM   10  O   UNK N   1       4.812   2.717   0.584  0.00  0.00    -0.285 OA
BRANCH   9  11
HETATM   11  C   UNK N   1       2.541   2.288   0.206  0.00  0.00     0.016 A 
HETATM   12  C   UNK N   1       1.544   1.373  -0.171  0.00  0.00     0.015 A 
HETATM   13  C   UNK N   1       0.227   1.793  -0.370  0.00  0.00     0.001 A 
HETATM   14  C   UNK N   1      -0.109   3.137  -0.201  0.00  0.00     0.000 A 
HETATM   15  C   UNK N   1       0.871   4.059   0.174  0.00  0.00     0.001 A 
HETATM   16  C   UNK N   1       2.191   3.638   0.373  0.00  0.00     0.015 A 
ENDBRANCH   9  11
ENDBRANCH   6   9
BRANCH   2  17
HETATM   17  C   UNK N   1       7.444  -2.878   0.195  0.00  0.00     0.149 C 
HETATM   18  O   UNK N   1       6.803  -3.917   0.182  0.00  0.00    -0.649 OA
BRANCH  17  19
HETATM   19  O   UNK N   1       8.550  -2.788   0.958  0.00  0.00    -0.776 OA
HETATM   20  H   UNK N   1       8.989  -3.424   1.489  0.00  0.00     0.167 HD
ENDBRANCH  17  19
ENDBRANCH   2  17
TORSDOF 4
