MODEL 1
REMARK VINA RESULT:      -6.6      0.000      0.000
REMARK  4 active torsions:
REMARK  status: ('A' for Active; 'I' for Inactive)
REMARK    1  A    between atoms: O_1  and  C_12 
REMARK    2  A    between atoms: C_5  and  C_12 
REMARK    3  A    between atoms: C_9  and  C_13 
REMARK    4  A    between atoms: C_13  and  C_14 
ROOT
HETATM    1  N   UNK N   1      31.646  17.203   6.766  0.00  0.00    -0.346 N 
HETATM    2  C   UNK N   1      33.807  16.870   7.606  0.00  0.00     0.135 A 
HETATM    3  C   UNK N   1      33.875  17.116   6.069  0.00  0.00     0.042 A 
HETATM    4  C   UNK N   1      32.418  17.275   5.550  0.00  0.00     0.130 A 
HETATM    5  C   UNK N   1      32.362  17.013   7.843  0.00  0.00     0.026 A 
HETATM    6  C   UNK N   1      30.351  17.212   7.109  0.00  0.00     0.086 A 
HETATM    7  C   UNK N   1      31.561  16.910   8.963  0.00  0.00     0.028 A 
HETATM    8  C   UNK N   1      30.253  17.040   8.489  0.00  0.00     0.036 A 
ENDROOT
BRANCH   6   9
HETATM    9  C   UNK N   1      29.224  17.311   6.142  0.00  0.00     0.208 C 
HETATM   10  O   UNK N   1      28.856  16.297   5.565  0.00  0.00    -0.285 OA
BRANCH   9  11
HETATM   11  C   UNK N   1      28.475  18.580   5.920  0.00  0.00     0.016 A 
HETATM   12  C   UNK N   1      27.957  19.319   6.996  0.00  0.00     0.015 A 
HETATM   13  C   UNK N   1      27.196  20.469   6.773  0.00  0.00     0.001 A 
HETATM   14  C   UNK N   1      26.937  20.892   5.468  0.00  0.00     0.000 A 
HETATM   15  C   UNK N   1      27.446  20.167   4.387  0.00  0.00     0.001 A 
HETATM   16  C   UNK N   1      28.207  19.015   4.611  0.00  0.00     0.015 A 
ENDBRANCH   9  11
ENDBRANCH   6   9
BRANCH   2  17
HETATM   17  C   UNK N   1      34.635  17.840   8.400  0.00  0.00     0.149 C 
HETATM   18  O   UNK N   1      35.004  17.540   9.524  0.00  0.00    -0.649 OA
BRANCH  17  19
HETATM   19  O   UNK N   1      35.012  19.018   7.868  0.00  0.00    -0.776 OA
HETATM   20  H   UNK N   1      35.205  19.265   6.985  0.00  0.00     0.167 HD
ENDBRANCH  17  19
ENDBRANCH   2  17
TORSDOF 4
ENDMDL
MODEL 2
REMARK VINA RESULT:      -6.6      1.604      2.057
REMARK  4 active torsions:
REMARK  status: ('A' for Active; 'I' for Inactive)
REMARK    1  A    between atoms: O_1  and  C_12 
REMARK    2  A    between atoms: C_5  and  C_12 
REMARK    3  A    between atoms: C_9  and  C_13 
REMARK    4  A    between atoms: C_13  and  C_14 
ROOT
HETATM    1  N   UNK N   1      30.797  16.839   6.980  0.00  0.00    -0.346 N 
HETATM    2  C   UNK N   1      32.941  15.911   6.807  0.00  0.00     0.135 A 
HETATM    3  C   UNK N   1      32.033  15.344   5.676  0.00  0.00     0.042 A 
HETATM    4  C   UNK N   1      30.611  15.944   5.864  0.00  0.00     0.130 A 
HETATM    5  C   UNK N   1      32.011  16.844   7.464  0.00  0.00     0.026 A 
HETATM    6  C   UNK N   1      30.034  17.648   7.727  0.00  0.00     0.086 A 
HETATM    7  C   UNK N   1      32.110  17.686   8.554  0.00  0.00     0.028 A 
HETATM    8  C   UNK N   1      30.827  18.210   8.727  0.00  0.00     0.036 A 
ENDROOT
BRANCH   6   9
HETATM    9  C   UNK N   1      28.569  17.831   7.545  0.00  0.00     0.208 C 
HETATM   10  O   UNK N   1      27.805  17.172   8.237  0.00  0.00    -0.285 OA
BRANCH   9  11
HETATM   11  C   UNK N   1      28.004  18.848   6.613  0.00  0.00     0.016 A 
HETATM   12  C   UNK N   1      28.068  18.678   5.220  0.00  0.00     0.015 A 
HETATM   13  C   UNK N   1      27.599  19.669   4.357  0.00  0.00     0.001 A 
HETATM   14  C   UNK N   1      27.064  20.849   4.875  0.00  0.00     0.000 A 
HETATM   15  C   UNK N   1      26.992  21.034   6.258  0.00  0.00     0.001 A 
HETATM   16  C   UNK N   1      27.464  20.040   7.124  0.00  0.00     0.015 A 
ENDBRANCH   9  11
ENDBRANCH   6   9
BRANCH   2  17
HETATM   17  C   UNK N   1      34.183  16.580   6.293  0.00  0.00     0.149 C 
HETATM   18  O   UNK N   1      35.183  15.913   6.078  0.00  0.00    -0.649 OA
BRANCH  17  19
HETATM   19  O   UNK N   1      34.192  17.899   6.024  0.00  0.00    -0.776 OA
HETATM   20  H   UNK N   1      34.753  18.415   5.477  0.00  0.00     0.167 HD
ENDBRANCH  17  19
ENDBRANCH   2  17
TORSDOF 4
ENDMDL
MODEL 3
REMARK VINA RESULT:      -6.5      8.674     10.100
REMARK  4 active torsions:
REMARK  status: ('A' for Active; 'I' for Inactive)
REMARK    1  A    between atoms: O_1  and  C_12 
REMARK    2  A    between atoms: C_5  and  C_12 
REMARK    3  A    between atoms: C_9  and  C_13 
REMARK    4  A    between atoms: C_13  and  C_14 
ROOT
HETATM    1  N   UNK N   1      22.054  12.953   8.795  0.00  0.00    -0.346 N 
HETATM    2  C   UNK N   1      22.986  11.553  10.425  0.00  0.00     0.135 A 
HETATM    3  C   UNK N   1      23.853  11.500   9.132  0.00  0.00     0.042 A 
HETATM    4  C   UNK N   1      23.167  12.398   8.065  0.00  0.00     0.130 A 
HETATM    5  C   UNK N   1      21.963  12.535  10.030  0.00  0.00     0.026 A 
HETATM    6  C   UNK N   1      21.012  13.755   8.536  0.00  0.00     0.086 A 
HETATM    7  C   UNK N   1      20.855  13.068  10.658  0.00  0.00     0.028 A 
HETATM    8  C   UNK N   1      20.236  13.862   9.690  0.00  0.00     0.036 A 
ENDROOT
BRANCH   6   9
HETATM    9  C   UNK N   1      20.718  14.351   7.206  0.00  0.00     0.208 C 
HETATM   10  O   UNK N   1      19.862  13.828   6.505  0.00  0.00    -0.285 OA
BRANCH   9  11
HETATM   11  C   UNK N   1      21.363  15.611   6.737  0.00  0.00     0.016 A 
HETATM   12  C   UNK N   1      20.729  16.855   6.888  0.00  0.00     0.015 A 
HETATM   13  C   UNK N   1      21.312  18.020   6.383  0.00  0.00     0.001 A 
HETATM   14  C   UNK N   1      22.534  17.953   5.713  0.00  0.00     0.000 A 
HETATM   15  C   UNK N   1      23.177  16.723   5.555  0.00  0.00     0.001 A 
HETATM   16  C   UNK N   1      22.593  15.556   6.061  0.00  0.00     0.015 A 
ENDBRANCH   9  11
ENDBRANCH   6   9
BRANCH   2  17
HETATM   17  C   UNK N   1      23.761  11.965  11.644  0.00  0.00     0.149 C 
HETATM   18  O   UNK N   1      23.246  11.872  12.747  0.00  0.00    -0.649 OA
BRANCH  17  19
HETATM   19  O   UNK N   1      25.033  12.395  11.538  0.00  0.00    -0.776 OA
HETATM   20  H   UNK N   1      25.402  13.255  11.590  0.00  0.00     0.167 HD
ENDBRANCH  17  19
ENDBRANCH   2  17
TORSDOF 4
ENDMDL
MODEL 4
REMARK VINA RESULT:      -6.5     10.973     13.692
REMARK  4 active torsions:
REMARK  status: ('A' for Active; 'I' for Inactive)
REMARK    1  A    between atoms: O_1  and  C_12 
REMARK    2  A    between atoms: C_5  and  C_12 
REMARK    3  A    between atoms: C_9  and  C_13 
REMARK    4  A    between atoms: C_13  and  C_14 
ROOT
HETATM    1  N   UNK N   1      28.688  24.591  -3.433  0.00  0.00    -0.346 N 
HETATM    2  C   UNK N   1      27.201  26.053  -4.500  0.00  0.00     0.135 A 
HETATM    3  C   UNK N   1      26.412  24.854  -3.896  0.00  0.00     0.042 A 
HETATM    4  C   UNK N   1      27.443  23.886  -3.249  0.00  0.00     0.130 A 
HETATM    5  C   UNK N   1      28.569  25.729  -4.065  0.00  0.00     0.026 A 
HETATM    6  C   UNK N   1      29.986  24.371  -3.187  0.00  0.00     0.086 A 
HETATM    7  C   UNK N   1      29.799  26.331  -4.246  0.00  0.00     0.028 A 
HETATM    8  C   UNK N   1      30.722  25.450  -3.676  0.00  0.00     0.036 A 
ENDROOT
BRANCH   6   9
HETATM    9  C   UNK N   1      30.528  23.133  -2.566  0.00  0.00     0.208 C 
HETATM   10  O   UNK N   1      30.419  22.986  -1.357  0.00  0.00    -0.285 OA
BRANCH   9  11
HETATM   11  C   UNK N   1      31.118  22.028  -3.376  0.00  0.00     0.016 A 
HETATM   12  C   UNK N   1      32.410  21.542  -3.114  0.00  0.00     0.015 A 
HETATM   13  C   UNK N   1      32.979  20.556  -3.923  0.00  0.00     0.001 A 
HETATM   14  C   UNK N   1      32.266  20.048  -5.009  0.00  0.00     0.000 A 
HETATM   15  C   UNK N   1      30.981  20.521  -5.283  0.00  0.00     0.001 A 
HETATM   16  C   UNK N   1      30.410  21.510  -4.472  0.00  0.00     0.015 A 
ENDBRANCH   9  11
ENDBRANCH   6   9
BRANCH   2  17
HETATM   17  C   UNK N   1      26.724  27.389  -4.004  0.00  0.00     0.149 C 
HETATM   18  O   UNK N   1      26.855  28.377  -4.709  0.00  0.00    -0.649 OA
BRANCH  17  19
HETATM   19  O   UNK N   1      26.114  27.500  -2.809  0.00  0.00    -0.776 OA
HETATM   20  H   UNK N   1      25.381  28.017  -2.534  0.00  0.00     0.167 HD
ENDBRANCH  17  19
ENDBRANCH   2  17
TORSDOF 4
ENDMDL
MODEL 5
REMARK VINA RESULT:      -6.5      3.147      5.221
REMARK  4 active torsions:
REMARK  status: ('A' for Active; 'I' for Inactive)
REMARK    1  A    between atoms: O_1  and  C_12 
REMARK    2  A    between atoms: C_5  and  C_12 
REMARK    3  A    between atoms: C_9  and  C_13 
REMARK    4  A    between atoms: C_13  and  C_14 
ROOT
HETATM    1  N   UNK N   1      35.037  16.022   9.174  0.00  0.00    -0.346 N 
HETATM    2  C   UNK N   1      36.071  14.577  10.700  0.00  0.00     0.135 A 
HETATM    3  C   UNK N   1      35.778  15.944  11.389  0.00  0.00     0.042 A 
HETATM    4  C   UNK N   1      35.145  16.884  10.325  0.00  0.00     0.130 A 
HETATM    5  C   UNK N   1      35.497  14.814   9.366  0.00  0.00     0.026 A 
HETATM    6  C   UNK N   1      34.643  16.133   7.898  0.00  0.00     0.086 A 
HETATM    7  C   UNK N   1      35.404  14.056   8.216  0.00  0.00     0.028 A 
HETATM    8  C   UNK N   1      34.848  14.910   7.260  0.00  0.00     0.036 A 
ENDROOT
BRANCH   6   9
HETATM    9  C   UNK N   1      34.148  17.390   7.275  0.00  0.00     0.208 C 
HETATM   10  O   UNK N   1      34.755  18.430   7.490  0.00  0.00    -0.285 OA
BRANCH   9  11
HETATM   11  C   UNK N   1      32.994  17.410   6.331  0.00  0.00     0.016 A 
HETATM   12  C   UNK N   1      31.684  17.162   6.775  0.00  0.00     0.015 A 
HETATM   13  C   UNK N   1      30.621  17.113   5.870  0.00  0.00     0.001 A 
HETATM   14  C   UNK N   1      30.855  17.306   4.508  0.00  0.00     0.000 A 
HETATM   15  C   UNK N   1      32.152  17.554   4.052  0.00  0.00     0.001 A 
HETATM   16  C   UNK N   1      33.217  17.602   4.958  0.00  0.00     0.015 A 
ENDBRANCH   9  11
ENDBRANCH   6   9
BRANCH   2  17
HETATM   17  C   UNK N   1      35.450  13.409  11.411  0.00  0.00     0.149 C 
HETATM   18  O   UNK N   1      36.025  12.331  11.417  0.00  0.00    -0.649 OA
BRANCH  17  19
HETATM   19  O   UNK N   1      34.289  13.548  12.079  0.00  0.00    -0.776 OA
HETATM   20  H   UNK N   1      34.073  13.407  12.980  0.00  0.00     0.167 HD
ENDBRANCH  17  19
ENDBRANCH   2  17
TORSDOF 4
ENDMDL
MODEL 6
REMARK VINA RESULT:      -6.4      1.296      2.050
REMARK  4 active torsions:
REMARK  status: ('A' for Active; 'I' for Inactive)
REMARK    1  A    between atoms: O_1  and  C_12 
REMARK    2  A    between atoms: C_5  and  C_12 
REMARK    3  A    between atoms: C_9  and  C_13 
REMARK    4  A    between atoms: C_13  and  C_14 
ROOT
HETATM    1  N   UNK N   1      31.305  17.330   6.747  0.00  0.00    -0.346 N 
HETATM    2  C   UNK N   1      33.624  17.401   7.072  0.00  0.00     0.135 A 
HETATM    3  C   UNK N   1      32.898  17.567   8.441  0.00  0.00     0.042 A 
HETATM    4  C   UNK N   1      31.367  17.569   8.168  0.00  0.00     0.130 A 
HETATM    5  C   UNK N   1      32.473  17.221   6.171  0.00  0.00     0.026 A 
HETATM    6  C   UNK N   1      30.355  17.249   5.806  0.00  0.00     0.086 A 
HETATM    7  C   UNK N   1      32.344  17.038   4.809  0.00  0.00     0.028 A 
HETATM    8  C   UNK N   1      30.968  17.055   4.569  0.00  0.00     0.036 A 
ENDROOT
BRANCH   6   9
HETATM    9  C   UNK N   1      28.900  17.423   6.061  0.00  0.00     0.208 C 
HETATM   10  O   UNK N   1      28.272  16.488   6.538  0.00  0.00    -0.285 OA
BRANCH   9  11
HETATM   11  C   UNK N   1      28.202  18.722   5.838  0.00  0.00     0.016 A 
HETATM   12  C   UNK N   1      27.843  19.551   6.913  0.00  0.00     0.015 A 
HETATM   13  C   UNK N   1      27.127  20.731   6.698  0.00  0.00     0.001 A 
HETATM   14  C   UNK N   1      26.756  21.094   5.403  0.00  0.00     0.000 A 
HETATM   15  C   UNK N   1      27.106  20.280   4.323  0.00  0.00     0.001 A 
HETATM   16  C   UNK N   1      27.822  19.097   4.539  0.00  0.00     0.015 A 
ENDBRANCH   9  11
ENDBRANCH   6   9
BRANCH   2  17
HETATM   17  C   UNK N   1      34.583  16.246   7.044  0.00  0.00     0.149 C 
HETATM   18  O   UNK N   1      34.651  15.494   8.003  0.00  0.00    -0.649 OA
BRANCH  17  19
HETATM   19  O   UNK N   1      35.336  16.003   5.954  0.00  0.00    -0.776 OA
HETATM   20  H   UNK N   1      35.237  15.382   5.259  0.00  0.00     0.167 HD
ENDBRANCH  17  19
ENDBRANCH   2  17
TORSDOF 4
ENDMDL
MODEL 7
REMARK VINA RESULT:      -6.3      9.091     11.026
REMARK  4 active torsions:
REMARK  status: ('A' for Active; 'I' for Inactive)
REMARK    1  A    between atoms: O_1  and  C_12 
REMARK    2  A    between atoms: C_5  and  C_12 
REMARK    3  A    between atoms: C_9  and  C_13 
REMARK    4  A    between atoms: C_13  and  C_14 
ROOT
HETATM    1  N   UNK N   1      21.794  15.390   6.962  0.00  0.00    -0.346 N 
HETATM    2  C   UNK N   1      22.171  17.506   6.030  0.00  0.00     0.135 A 
HETATM    3  C   UNK N   1      23.082  16.456   5.328  0.00  0.00     0.042 A 
HETATM    4  C   UNK N   1      22.838  15.083   6.016  0.00  0.00     0.130 A 
HETATM    5  C   UNK N   1      21.426  16.644   6.962  0.00  0.00     0.026 A 
HETATM    6  C   UNK N   1      21.116  14.744   7.920  0.00  0.00     0.086 A 
HETATM    7  C   UNK N   1      20.458  16.880   7.918  0.00  0.00     0.028 A 
HETATM    8  C   UNK N   1      20.254  15.647   8.541  0.00  0.00     0.036 A 
ENDROOT
BRANCH   6   9
HETATM    9  C   UNK N   1      21.329  13.319   8.288  0.00  0.00     0.208 C 
HETATM   10  O   UNK N   1      20.823  12.451   7.591  0.00  0.00    -0.285 OA
BRANCH   9  11
HETATM   11  C   UNK N   1      22.209  12.913   9.422  0.00  0.00     0.016 A 
HETATM   12  C   UNK N   1      23.605  12.853   9.277  0.00  0.00     0.015 A 
HETATM   13  C   UNK N   1      24.413  12.404  10.323  0.00  0.00     0.001 A 
HETATM   14  C   UNK N   1      23.834  12.001  11.528  0.00  0.00     0.000 A 
HETATM   15  C   UNK N   1      22.448  12.054  11.687  0.00  0.00     0.001 A 
HETATM   16  C   UNK N   1      21.638  12.504  10.638  0.00  0.00     0.015 A 
ENDBRANCH   9  11
ENDBRANCH   6   9
BRANCH   2  17
HETATM   17  C   UNK N   1      21.281  18.252   5.077  0.00  0.00     0.149 C 
HETATM   18  O   UNK N   1      21.050  19.435   5.267  0.00  0.00    -0.649 OA
BRANCH  17  19
HETATM   19  O   UNK N   1      20.772  17.641   3.990  0.00  0.00    -0.776 OA
HETATM   20  H   UNK N   1      19.973  17.168   3.864  0.00  0.00     0.167 HD
ENDBRANCH  17  19
ENDBRANCH   2  17
TORSDOF 4
ENDMDL
MODEL 8
REMARK VINA RESULT:      -6.3     11.685     14.621
REMARK  4 active torsions:
REMARK  status: ('A' for Active; 'I' for Inactive)
REMARK    1  A    between atoms: O_1  and  C_12 
REMARK    2  A    between atoms: C_5  and  C_12 
REMARK    3  A    between atoms: C_9  and  C_13 
REMARK    4  A    between atoms: C_13  and  C_14 
ROOT
HETATM    1  N   UNK N   1      35.765  11.441  17.447  0.00  0.00    -0.346 N 
HETATM    2  C   UNK N   1      36.180  12.385  15.344  0.00  0.00     0.135 A 
HETATM    3  C   UNK N   1      36.500  10.860  15.306  0.00  0.00     0.042 A 
HETATM    4  C   UNK N   1      36.263  10.291  16.733  0.00  0.00     0.130 A 
HETATM    5  C   UNK N   1      35.699  12.530  16.727  0.00  0.00     0.026 A 
HETATM    6  C   UNK N   1      35.399  11.734  18.702  0.00  0.00     0.086 A 
HETATM    7  C   UNK N   1      35.257  13.600  17.480  0.00  0.00     0.028 A 
HETATM    8  C   UNK N   1      35.060  13.085  18.763  0.00  0.00     0.036 A 
ENDROOT
BRANCH   6   9
HETATM    9  C   UNK N   1      35.435  10.773  19.837  0.00  0.00     0.208 C 
HETATM   10  O   UNK N   1      36.474  10.653  20.472  0.00  0.00    -0.285 OA
BRANCH   9  11
HETATM   11  C   UNK N   1      34.228  10.018  20.280  0.00  0.00     0.016 A 
HETATM   12  C   UNK N   1      33.637   9.041  19.462  0.00  0.00     0.015 A 
HETATM   13  C   UNK N   1      32.466   8.390  19.858  0.00  0.00     0.001 A 
HETATM   14  C   UNK N   1      31.866   8.715  21.075  0.00  0.00     0.000 A 
HETATM   15  C   UNK N   1      32.441   9.684  21.900  0.00  0.00     0.001 A 
HETATM   16  C   UNK N   1      33.615  10.337  21.503  0.00  0.00     0.015 A 
ENDBRANCH   9  11
ENDBRANCH   6   9
BRANCH   2  17
HETATM   17  C   UNK N   1      35.166  12.805  14.319  0.00  0.00     0.149 C 
HETATM   18  O   UNK N   1      34.157  12.136  14.158  0.00  0.00    -0.649 OA
BRANCH  17  19
HETATM   19  O   UNK N   1      35.335  13.935  13.607  0.00  0.00    -0.776 OA
HETATM   20  H   UNK N   1      35.189  14.834  13.830  0.00  0.00     0.167 HD
ENDBRANCH  17  19
ENDBRANCH   2  17
TORSDOF 4
ENDMDL
MODEL 9
REMARK VINA RESULT:      -6.3      4.326      6.681
REMARK  4 active torsions:
REMARK  status: ('A' for Active; 'I' for Inactive)
REMARK    1  A    between atoms: O_1  and  C_12 
REMARK    2  A    between atoms: C_5  and  C_12 
REMARK    3  A    between atoms: C_9  and  C_13 
REMARK    4  A    between atoms: C_13  and  C_14 
ROOT
HETATM    1  N   UNK N   1      26.266  19.876   4.827  0.00  0.00    -0.346 N 
HETATM    2  C   UNK N   1      28.078  19.436   6.244  0.00  0.00     0.135 A 
HETATM    3  C   UNK N   1      27.539  20.873   6.514  0.00  0.00     0.042 A 
HETATM    4  C   UNK N   1      26.378  21.138   5.515  0.00  0.00     0.130 A 
HETATM    5  C   UNK N   1      27.132  18.978   5.214  0.00  0.00     0.026 A 
HETATM    6  C   UNK N   1      25.540  19.367   3.822  0.00  0.00     0.086 A 
HETATM    7  C   UNK N   1      27.000  17.811   4.487  0.00  0.00     0.028 A 
HETATM    8  C   UNK N   1      25.965  18.061   3.583  0.00  0.00     0.036 A 
ENDROOT
BRANCH   6   9
HETATM    9  C   UNK N   1      24.514  20.124   3.056  0.00  0.00     0.208 C 
HETATM   10  O   UNK N   1      24.885  20.924   2.209  0.00  0.00    -0.285 OA
BRANCH   9  11
HETATM   11  C   UNK N   1      23.053  19.877   3.224  0.00  0.00     0.016 A 
HETATM   12  C   UNK N   1      22.578  18.846   4.051  0.00  0.00     0.015 A 
HETATM   13  C   UNK N   1      21.210  18.579   4.146  0.00  0.00     0.001 A 
HETATM   14  C   UNK N   1      20.299  19.337   3.408  0.00  0.00     0.000 A 
HETATM   15  C   UNK N   1      20.756  20.365   2.581  0.00  0.00     0.001 A 
HETATM   16  C   UNK N   1      22.127  20.633   2.486  0.00  0.00     0.015 A 
ENDBRANCH   9  11
ENDBRANCH   6   9
BRANCH   2  17
HETATM   17  C   UNK N   1      28.085  18.565   7.468  0.00  0.00     0.149 C 
HETATM   18  O   UNK N   1      28.722  17.523   7.464  0.00  0.00    -0.649 OA
BRANCH  17  19
HETATM   19  O   UNK N   1      27.434  18.942   8.585  0.00  0.00    -0.776 OA
HETATM   20  H   UNK N   1      27.518  19.705   9.123  0.00  0.00     0.167 HD
ENDBRANCH  17  19
ENDBRANCH   2  17
TORSDOF 4
ENDMDL
