MODEL 1
REMARK VINA RESULT:      -7.3      0.000      0.000
REMARK  4 active torsions:
REMARK  status: ('A' for Active; 'I' for Inactive)
REMARK    1  A    between atoms: O_3  and  C_24 
REMARK    2  A    between atoms: N_5  and  C_14 
REMARK    3  A    between atoms: N_7  and  C_19 
REMARK    4  A    between atoms: C_22  and  C_24 
ROOT
HETATM    1  F   UNK N   1      30.753  16.594   2.548  0.00  0.00    -0.202 F 
HETATM    2  O   UNK N   1      34.310  17.683   5.845  0.00  0.00    -0.286 OA
HETATM    3  N   UNK N   1      30.928  17.417   7.995  0.00  0.00    -0.342 N 
HETATM    4  N   UNK N   1      29.707  16.924   6.024  0.00  0.00    -0.325 N 
ATOM      5  HN  UNK N   1      28.862  16.868   6.591  1.00  0.00     0.169 HD
HETATM    6  C   UNK N   1      29.608  16.702   4.681  0.00  0.00     0.144 A 
HETATM    7  C   UNK N   1      30.888  17.217   6.641  0.00  0.00     0.123 A 
HETATM    8  C   UNK N   1      32.066  17.308   5.873  0.00  0.00     0.062 A 
HETATM    9  C   UNK N   1      30.778  16.789   3.889  0.00  0.00     0.161 A 
HETATM   10  C   UNK N   1      31.995  17.095   4.495  0.00  0.00     0.065 A 
HETATM   11  C   UNK N   1      33.284  17.602   6.505  0.00  0.00     0.204 A 
HETATM   12  C   UNK N   1      32.113  17.698   8.615  0.00  0.00     0.115 A 
HETATM   13  C   UNK N   1      33.312  17.797   7.901  0.00  0.00     0.104 A 
ENDROOT
BRANCH   6  14
HETATM   14  N   UNK N   1      28.325  16.397   4.121  0.00  0.00    -0.362 N 
HETATM   15  C   UNK N   1      27.993  15.023   3.811  0.00  0.00     0.143 C 
HETATM   16  C   UNK N   1      27.425  14.951   2.394  0.00  0.00     0.133 C 
HETATM   17  N   UNK N   1      26.336  15.915   2.143  0.00  0.00    -0.418 N 
HETATM   18  C   UNK N   1      26.058  16.819   3.268  0.00  0.00     0.133 C 
HETATM   19  H   UNK N   1      25.821  15.951   1.264  0.00  0.00     0.153 HD
HETATM   20  C   UNK N   1      27.345  17.429   3.832  0.00  0.00     0.143 C 
ENDBRANCH   6  14
BRANCH   3  21
HETATM   21  C   UNK N   1      29.682  17.316   8.771  0.00  0.00     0.125 C 
HETATM   22  C   UNK N   1      29.444  18.482   9.726  0.00  0.00     0.027 C 
ENDBRANCH   3  21
BRANCH  13  23
HETATM   23  C   UNK N   1      34.564  18.091   8.646  0.00  0.00     0.181 C 
HETATM   24  O   UNK N   1      34.948  17.355   9.541  0.00  0.00    -0.646 OA
BRANCH  23  25
HETATM   25  O   UNK N   1      35.283  19.189   8.343  0.00  0.00    -0.772 OA
HETATM   26  H   UNK N   1      34.915  19.852   7.791  0.00  0.00     0.167 HD
ENDBRANCH  23  25
ENDBRANCH  13  23
TORSDOF 4
ENDMDL
MODEL 2
REMARK VINA RESULT:      -7.3      5.677      8.712
REMARK  4 active torsions:
REMARK  status: ('A' for Active; 'I' for Inactive)
REMARK    1  A    between atoms: O_3  and  C_24 
REMARK    2  A    between atoms: N_5  and  C_14 
REMARK    3  A    between atoms: N_7  and  C_19 
REMARK    4  A    between atoms: C_22  and  C_24 
ROOT
HETATM    1  F   UNK N   1      28.658  20.107   4.445  0.00  0.00    -0.202 F 
HETATM    2  O   UNK N   1      24.266  21.269   2.427  0.00  0.00    -0.286 OA
HETATM    3  N   UNK N   1      23.546  18.069   4.745  0.00  0.00    -0.342 N 
HETATM    4  N   UNK N   1      25.831  18.002   5.372  0.00  0.00    -0.325 N 
ATOM      5  HN  UNK N   1      25.624  17.187   5.948  1.00  0.00     0.169 HD
HETATM    6  C   UNK N   1      27.112  18.471   5.341  0.00  0.00     0.144 A 
HETATM    7  C   UNK N   1      24.815  18.575   4.665  0.00  0.00     0.123 A 
HETATM    8  C   UNK N   1      25.084  19.697   3.855  0.00  0.00     0.062 A 
HETATM    9  C   UNK N   1      27.407  19.595   4.534  0.00  0.00     0.161 A 
HETATM   10  C   UNK N   1      26.387  20.195   3.795  0.00  0.00     0.065 A 
HETATM   11  C   UNK N   1      24.041  20.296   3.131  0.00  0.00     0.204 A 
HETATM   12  C   UNK N   1      22.526  18.652   4.046  0.00  0.00     0.115 A 
HETATM   13  C   UNK N   1      22.737  19.768   3.230  0.00  0.00     0.104 A 
ENDROOT
BRANCH   6  14
HETATM   14  N   UNK N   1      28.113  17.804   6.120  0.00  0.00    -0.362 N 
HETATM   15  C   UNK N   1      28.015  17.817   7.564  0.00  0.00     0.143 C 
HETATM   16  C   UNK N   1      29.366  18.220   8.155  0.00  0.00     0.133 C 
HETATM   17  N   UNK N   1      30.501  17.439   7.626  0.00  0.00    -0.418 N 
HETATM   18  C   UNK N   1      30.137  16.482   6.571  0.00  0.00     0.133 C 
HETATM   19  H   UNK N   1      31.456  17.554   7.962  0.00  0.00     0.153 HD
HETATM   20  C   UNK N   1      29.243  17.128   5.508  0.00  0.00     0.143 C 
ENDBRANCH   6  14
BRANCH   3  21
HETATM   21  C   UNK N   1      23.295  16.897   5.598  0.00  0.00     0.125 C 
HETATM   22  C   UNK N   1      21.931  16.901   6.282  0.00  0.00     0.027 C 
ENDBRANCH   3  21
BRANCH  13  23
HETATM   23  C   UNK N   1      21.576  20.357   2.513  0.00  0.00     0.181 C 
HETATM   24  O   UNK N   1      20.838  19.659   1.836  0.00  0.00    -0.646 OA
BRANCH  23  25
HETATM   25  O   UNK N   1      21.335  21.680   2.598  0.00  0.00    -0.772 OA
HETATM   26  H   UNK N   1      20.745  22.008   3.249  0.00  0.00     0.167 HD
ENDBRANCH  23  25
ENDBRANCH  13  23
TORSDOF 4
ENDMDL
MODEL 3
REMARK VINA RESULT:      -7.1      6.316      9.307
REMARK  4 active torsions:
REMARK  status: ('A' for Active; 'I' for Inactive)
REMARK    1  A    between atoms: O_3  and  C_24 
REMARK    2  A    between atoms: N_5  and  C_14 
REMARK    3  A    between atoms: N_7  and  C_19 
REMARK    4  A    between atoms: C_22  and  C_24 
ROOT
HETATM    1  F   UNK N   1      36.515  14.292  13.932  0.00  0.00    -0.202 F 
HETATM    2  O   UNK N   1      35.912  17.728  10.391  0.00  0.00    -0.286 OA
HETATM    3  N   UNK N   1      33.780  14.557   9.154  0.00  0.00    -0.342 N 
HETATM    4  N   UNK N   1      34.419  13.362  11.100  0.00  0.00    -0.325 N 
ATOM      5  HN  UNK N   1      33.875  12.568  10.761  1.00  0.00     0.169 HD
HETATM    6  C   UNK N   1      35.069  13.245  12.294  0.00  0.00     0.144 A 
HETATM    7  C   UNK N   1      34.464  14.493  10.338  0.00  0.00     0.123 A 
HETATM    8  C   UNK N   1      35.217  15.598  10.785  0.00  0.00     0.062 A 
HETATM    9  C   UNK N   1      35.833  14.340  12.762  0.00  0.00     0.161 A 
HETATM   10  C   UNK N   1      35.901  15.506  12.000  0.00  0.00     0.065 A 
HETATM   11  C   UNK N   1      35.261  16.767  10.010  0.00  0.00     0.204 A 
HETATM   12  C   UNK N   1      33.815  15.695   8.399  0.00  0.00     0.115 A 
HETATM   13  C   UNK N   1      34.544  16.820   8.797  0.00  0.00     0.104 A 
ENDROOT
BRANCH   6  14
HETATM   14  N   UNK N   1      34.961  12.018  13.025  0.00  0.00    -0.362 N 
HETATM   15  C   UNK N   1      34.312  12.016  14.318  0.00  0.00     0.143 C 
HETATM   16  C   UNK N   1      35.197  11.279  15.323  0.00  0.00     0.133 C 
HETATM   17  N   UNK N   1      35.640   9.950  14.858  0.00  0.00    -0.418 N 
HETATM   18  C   UNK N   1      35.221   9.617  13.489  0.00  0.00     0.133 C 
HETATM   19  H   UNK N   1      36.190   9.316  15.438  0.00  0.00     0.153 HD
HETATM   20  C   UNK N   1      35.502  10.769  12.519  0.00  0.00     0.143 C 
ENDBRANCH   6  14
BRANCH   3  21
HETATM   21  C   UNK N   1      33.002  13.388   8.713  0.00  0.00     0.125 C 
HETATM   22  C   UNK N   1      33.273  12.965   7.272  0.00  0.00     0.027 C 
ENDBRANCH   3  21
BRANCH  13  23
HETATM   23  C   UNK N   1      34.523  18.028   7.930  0.00  0.00     0.181 C 
HETATM   24  O   UNK N   1      34.222  17.946   6.750  0.00  0.00    -0.646 OA
BRANCH  23  25
HETATM   25  O   UNK N   1      34.849  19.230   8.445  0.00  0.00    -0.772 OA
HETATM   26  H   UNK N   1      35.172  19.908   7.884  0.00  0.00     0.167 HD
ENDBRANCH  23  25
ENDBRANCH  13  23
TORSDOF 4
ENDMDL
MODEL 4
REMARK VINA RESULT:      -6.3      3.400      6.791
REMARK  4 active torsions:
REMARK  status: ('A' for Active; 'I' for Inactive)
REMARK    1  A    between atoms: O_3  and  C_24 
REMARK    2  A    between atoms: N_5  and  C_14 
REMARK    3  A    between atoms: N_7  and  C_19 
REMARK    4  A    between atoms: C_22  and  C_24 
ROOT
HETATM    1  F   UNK N   1      35.305  15.731   6.385  0.00  0.00    -0.202 F 
HETATM    2  O   UNK N   1      31.247  17.256   3.952  0.00  0.00    -0.286 OA
HETATM    3  N   UNK N   1      30.206  17.249   7.831  0.00  0.00    -0.342 N 
HETATM    4  N   UNK N   1      32.376  16.493   8.417  0.00  0.00    -0.325 N 
ATOM      5  HN  UNK N   1      32.086  16.494   9.394  1.00  0.00     0.169 HD
HETATM    6  C   UNK N   1      33.653  16.117   8.116  0.00  0.00     0.144 A 
HETATM    7  C   UNK N   1      31.470  16.868   7.468  0.00  0.00     0.123 A 
HETATM    8  C   UNK N   1      31.850  16.865   6.110  0.00  0.00     0.062 A 
HETATM    9  C   UNK N   1      34.057  16.104   6.760  0.00  0.00     0.161 A 
HETATM   10  C   UNK N   1      33.148  16.476   5.770  0.00  0.00     0.065 A 
HETATM   11  C   UNK N   1      30.925  17.256   5.130  0.00  0.00     0.204 A 
HETATM   12  C   UNK N   1      29.304  17.636   6.881  0.00  0.00     0.115 A 
HETATM   13  C   UNK N   1      29.630  17.654   5.521  0.00  0.00     0.104 A 
ENDROOT
BRANCH   6  14
HETATM   14  N   UNK N   1      34.535  15.743   9.181  0.00  0.00    -0.362 N 
HETATM   15  C   UNK N   1      34.814  14.342   9.413  0.00  0.00     0.143 C 
HETATM   16  C   UNK N   1      34.638  14.035  10.900  0.00  0.00     0.133 C 
HETATM   17  N   UNK N   1      35.370  14.960  11.787  0.00  0.00    -0.418 N 
HETATM   18  C   UNK N   1      36.061  16.051  11.084  0.00  0.00     0.133 C 
HETATM   19  H   UNK N   1      35.394  14.851  12.800  0.00  0.00     0.153 HD
HETATM   20  C   UNK N   1      35.147  16.726  10.057  0.00  0.00     0.143 C 
ENDBRANCH   6  14
BRANCH   3  21
HETATM   21  C   UNK N   1      29.838  17.242   9.256  0.00  0.00     0.125 C 
HETATM   22  C   UNK N   1      29.661  18.630   9.862  0.00  0.00     0.027 C 
ENDBRANCH   3  21
BRANCH  13  23
HETATM   23  C   UNK N   1      28.600  18.102   4.546  0.00  0.00     0.181 C 
HETATM   24  O   UNK N   1      27.774  18.947   4.852  0.00  0.00    -0.646 OA
BRANCH  23  25
HETATM   25  O   UNK N   1      28.565  17.564   3.311  0.00  0.00    -0.772 OA
HETATM   26  H   UNK N   1      28.484  18.119   2.561  0.00  0.00     0.167 HD
ENDBRANCH  23  25
ENDBRANCH  13  23
TORSDOF 4
ENDMDL
MODEL 5
REMARK VINA RESULT:      -6.2      8.205     10.113
REMARK  4 active torsions:
REMARK  status: ('A' for Active; 'I' for Inactive)
REMARK    1  A    between atoms: O_3  and  C_24 
REMARK    2  A    between atoms: N_5  and  C_14 
REMARK    3  A    between atoms: N_7  and  C_19 
REMARK    4  A    between atoms: C_22  and  C_24 
ROOT
HETATM    1  F   UNK N   1      18.784  16.503   7.429  0.00  0.00    -0.202 F 
HETATM    2  O   UNK N   1      21.028  13.307  10.505  0.00  0.00    -0.286 OA
HETATM    3  N   UNK N   1      23.744  14.108   7.657  0.00  0.00    -0.342 N 
HETATM    4  N   UNK N   1      22.203  15.558   6.588  0.00  0.00    -0.325 N 
ATOM      5  HN  UNK N   1      22.907  15.741   5.874  1.00  0.00     0.169 HD
HETATM    6  C   UNK N   1      20.995  16.185   6.488  0.00  0.00     0.144 A 
HETATM    7  C   UNK N   1      22.510  14.698   7.601  0.00  0.00     0.123 A 
HETATM    8  C   UNK N   1      21.545  14.426   8.593  0.00  0.00     0.062 A 
HETATM    9  C   UNK N   1      20.010  15.926   7.471  0.00  0.00     0.161 A 
HETATM   10  C   UNK N   1      20.296  15.045   8.513  0.00  0.00     0.065 A 
HETATM   11  C   UNK N   1      21.858  13.547   9.642  0.00  0.00     0.204 A 
HETATM   12  C   UNK N   1      24.055  13.256   8.679  0.00  0.00     0.115 A 
HETATM   13  C   UNK N   1      23.136  12.954   9.690  0.00  0.00     0.104 A 
ENDROOT
BRANCH   6  14
HETATM   14  N   UNK N   1      20.765  17.075   5.389  0.00  0.00    -0.362 N 
HETATM   15  C   UNK N   1      19.873  16.673   4.323  0.00  0.00     0.143 C 
HETATM   16  C   UNK N   1      20.553  16.922   2.977  0.00  0.00     0.133 C 
HETATM   17  N   UNK N   1      21.102  18.285   2.834  0.00  0.00    -0.418 N 
HETATM   18  C   UNK N   1      20.968  19.120   4.037  0.00  0.00     0.133 C 
HETATM   19  H   UNK N   1      21.536  18.619   1.975  0.00  0.00     0.153 HD
HETATM   20  C   UNK N   1      21.417  18.370   5.296  0.00  0.00     0.143 C 
ENDBRANCH   6  14
BRANCH   3  21
HETATM   21  C   UNK N   1      24.730  14.411   6.607  0.00  0.00     0.125 C 
HETATM   22  C   UNK N   1      25.609  13.227   6.216  0.00  0.00     0.027 C 
ENDBRANCH   3  21
BRANCH  13  23
HETATM   23  C   UNK N   1      23.552  12.030  10.778  0.00  0.00     0.181 C 
HETATM   24  O   UNK N   1      24.683  12.069  11.236  0.00  0.00    -0.646 OA
BRANCH  23  25
HETATM   25  O   UNK N   1      22.677  11.127  11.262  0.00  0.00    -0.772 OA
HETATM   26  H   UNK N   1      22.325  11.232  12.125  0.00  0.00     0.167 HD
ENDBRANCH  23  25
ENDBRANCH  13  23
TORSDOF 4
ENDMDL
MODEL 6
REMARK VINA RESULT:      -6.1      3.823      5.415
REMARK  4 active torsions:
REMARK  status: ('A' for Active; 'I' for Inactive)
REMARK    1  A    between atoms: O_3  and  C_24 
REMARK    2  A    between atoms: N_5  and  C_14 
REMARK    3  A    between atoms: N_7  and  C_19 
REMARK    4  A    between atoms: C_22  and  C_24 
ROOT
HETATM    1  F   UNK N   1      33.453  18.675   7.645  0.00  0.00    -0.202 F 
HETATM    2  O   UNK N   1      36.435  16.313  10.844  0.00  0.00    -0.286 OA
HETATM    3  N   UNK N   1      34.174  13.434   9.193  0.00  0.00    -0.342 N 
HETATM    4  N   UNK N   1      33.057  15.059   7.876  0.00  0.00    -0.325 N 
ATOM      5  HN  UNK N   1      32.492  14.311   7.476  1.00  0.00     0.169 HD
HETATM    6  C   UNK N   1      32.843  16.338   7.450  0.00  0.00     0.144 A 
HETATM    7  C   UNK N   1      33.994  14.737   8.814  0.00  0.00     0.123 A 
HETATM    8  C   UNK N   1      34.780  15.759   9.385  0.00  0.00     0.062 A 
HETATM    9  C   UNK N   1      33.619  17.380   8.011  0.00  0.00     0.161 A 
HETATM   10  C   UNK N   1      34.578  17.079   8.976  0.00  0.00     0.065 A 
HETATM   11  C   UNK N   1      35.751  15.433  10.345  0.00  0.00     0.204 A 
HETATM   12  C   UNK N   1      35.121  13.110  10.123  0.00  0.00     0.115 A 
HETATM   13  C   UNK N   1      35.930  14.085  10.718  0.00  0.00     0.104 A 
ENDROOT
BRANCH   6  14
HETATM   14  N   UNK N   1      31.838  16.579   6.458  0.00  0.00    -0.362 N 
HETATM   15  C   UNK N   1      32.135  16.318   5.067  0.00  0.00     0.143 C 
HETATM   16  C   UNK N   1      31.716  17.526   4.228  0.00  0.00     0.133 C 
HETATM   17  N   UNK N   1      30.334  17.973   4.485  0.00  0.00    -0.418 N 
HETATM   18  C   UNK N   1      29.647  17.233   5.553  0.00  0.00     0.133 C 
HETATM   19  H   UNK N   1      29.892  18.731   3.966  0.00  0.00     0.153 HD
HETATM   20  C   UNK N   1      30.526  17.100   6.801  0.00  0.00     0.143 C 
ENDBRANCH   6  14
BRANCH   3  21
HETATM   21  C   UNK N   1      33.339  12.389   8.579  0.00  0.00     0.125 C 
HETATM   22  C   UNK N   1      34.123  11.346   7.789  0.00  0.00     0.027 C 
ENDBRANCH   3  21
BRANCH  13  23
HETATM   23  C   UNK N   1      36.950  13.655  11.711  0.00  0.00     0.181 C 
HETATM   24  O   UNK N   1      37.795  12.824  11.421  0.00  0.00    -0.646 OA
BRANCH  23  25
HETATM   25  O   UNK N   1      36.939  14.178  12.953  0.00  0.00    -0.772 OA
HETATM   26  H   UNK N   1      36.167  14.114  13.482  0.00  0.00     0.167 HD
ENDBRANCH  23  25
ENDBRANCH  13  23
TORSDOF 4
ENDMDL
MODEL 7
REMARK VINA RESULT:      -6.0      4.140      6.763
REMARK  4 active torsions:
REMARK  status: ('A' for Active; 'I' for Inactive)
REMARK    1  A    between atoms: O_3  and  C_24 
REMARK    2  A    between atoms: N_5  and  C_14 
REMARK    3  A    between atoms: N_7  and  C_19 
REMARK    4  A    between atoms: C_22  and  C_24 
ROOT
HETATM    1  F   UNK N   1      35.137  16.729   9.056  0.00  0.00    -0.202 F 
HETATM    2  O   UNK N   1      30.646  18.847   9.290  0.00  0.00    -0.286 OA
HETATM    3  N   UNK N   1      30.348  16.064   6.410  0.00  0.00    -0.342 N 
HETATM    4  N   UNK N   1      32.616  15.461   6.750  0.00  0.00    -0.325 N 
ATOM      5  HN  UNK N   1      32.516  14.766   6.011  1.00  0.00     0.169 HD
HETATM    6  C   UNK N   1      33.821  15.578   7.379  0.00  0.00     0.144 A 
HETATM    7  C   UNK N   1      31.537  16.235   7.066  0.00  0.00     0.123 A 
HETATM    8  C   UNK N   1      31.657  17.208   8.079  0.00  0.00     0.062 A 
HETATM    9  C   UNK N   1      33.966  16.549   8.398  0.00  0.00     0.161 A 
HETATM   10  C   UNK N   1      32.881  17.357   8.735  0.00  0.00     0.065 A 
HETATM   11  C   UNK N   1      30.549  18.002   8.414  0.00  0.00     0.204 A 
HETATM   12  C   UNK N   1      29.264  16.831   6.736  0.00  0.00     0.115 A 
HETATM   13  C   UNK N   1      29.329  17.808   7.735  0.00  0.00     0.104 A 
ENDROOT
BRANCH   6  14
HETATM   14  N   UNK N   1      34.896  14.719   6.980  0.00  0.00    -0.362 N 
HETATM   15  C   UNK N   1      35.303  13.639   7.852  0.00  0.00     0.143 C 
HETATM   16  C   UNK N   1      36.823  13.669   8.013  0.00  0.00     0.133 C 
HETATM   17  N   UNK N   1      37.553  13.729   6.732  0.00  0.00    -0.418 N 
HETATM   18  C   UNK N   1      36.689  13.834   5.548  0.00  0.00     0.133 C 
HETATM   19  H   UNK N   1      38.571  13.701   6.673  0.00  0.00     0.153 HD
HETATM   20  C   UNK N   1      35.611  14.909   5.731  0.00  0.00     0.143 C 
ENDBRANCH   6  14
BRANCH   3  21
HETATM   21  C   UNK N   1      30.252  15.041   5.357  0.00  0.00     0.125 C 
HETATM   22  C   UNK N   1      28.837  14.527   5.111  0.00  0.00     0.027 C 
ENDBRANCH   3  21
BRANCH  13  23
HETATM   23  C   UNK N   1      28.104  18.593   8.044  0.00  0.00     0.181 C 
HETATM   24  O   UNK N   1      27.659  19.401   7.246  0.00  0.00    -0.646 OA
BRANCH  23  25
HETATM   25  O   UNK N   1      27.479  18.422   9.226  0.00  0.00    -0.772 OA
HETATM   26  H   UNK N   1      27.771  18.892   9.982  0.00  0.00     0.167 HD
ENDBRANCH  23  25
ENDBRANCH  13  23
TORSDOF 4
ENDMDL
MODEL 8
REMARK VINA RESULT:      -6.0      4.637      6.733
REMARK  4 active torsions:
REMARK  status: ('A' for Active; 'I' for Inactive)
REMARK    1  A    between atoms: O_3  and  C_24 
REMARK    2  A    between atoms: N_5  and  C_14 
REMARK    3  A    between atoms: N_7  and  C_19 
REMARK    4  A    between atoms: C_22  and  C_24 
ROOT
HETATM    1  F   UNK N   1      23.379  21.137   2.905  0.00  0.00    -0.202 F 
HETATM    2  O   UNK N   1      28.058  19.948   4.092  0.00  0.00    -0.286 OA
HETATM    3  N   UNK N   1      25.850  16.790   5.225  0.00  0.00    -0.342 N 
HETATM    4  N   UNK N   1      23.888  17.881   4.462  0.00  0.00    -0.325 N 
ATOM      5  HN  UNK N   1      23.349  17.070   4.763  1.00  0.00     0.169 HD
HETATM    6  C   UNK N   1      23.227  18.926   3.884  0.00  0.00     0.144 A 
HETATM    7  C   UNK N   1      25.239  17.873   4.653  0.00  0.00     0.123 A 
HETATM    8  C   UNK N   1      26.001  18.990   4.250  0.00  0.00     0.062 A 
HETATM    9  C   UNK N   1      23.970  20.058   3.474  0.00  0.00     0.161 A 
HETATM   10  C   UNK N   1      25.351  20.079   3.665  0.00  0.00     0.065 A 
HETATM   11  C   UNK N   1      27.391  18.984   4.438  0.00  0.00     0.204 A 
HETATM   12  C   UNK N   1      27.205  16.778   5.405  0.00  0.00     0.115 A 
HETATM   13  C   UNK N   1      28.007  17.858   5.021  0.00  0.00     0.104 A 
ENDROOT
BRANCH   6  14
HETATM   14  N   UNK N   1      21.806  18.842   3.722  0.00  0.00    -0.362 N 
HETATM   15  C   UNK N   1      21.024  18.092   4.681  0.00  0.00     0.143 C 
HETATM   16  C   UNK N   1      20.078  17.152   3.933  0.00  0.00     0.133 C 
HETATM   17  N   UNK N   1      19.283  17.823   2.886  0.00  0.00    -0.418 N 
HETATM   18  C   UNK N   1      19.606  19.245   2.700  0.00  0.00     0.133 C 
HETATM   19  H   UNK N   1      18.571  17.342   2.339  0.00  0.00     0.153 HD
HETATM   20  C   UNK N   1      21.119  19.472   2.608  0.00  0.00     0.143 C 
ENDBRANCH   6  14
BRANCH   3  21
HETATM   21  C   UNK N   1      25.030  15.640   5.636  0.00  0.00     0.125 C 
HETATM   22  C   UNK N   1      25.428  15.035   6.979  0.00  0.00     0.027 C 
ENDBRANCH   3  21
BRANCH  13  23
HETATM   23  C   UNK N   1      29.476  17.766   5.235  0.00  0.00     0.181 C 
HETATM   24  O   UNK N   1      29.933  17.466   6.326  0.00  0.00    -0.646 OA
BRANCH  23  25
HETATM   25  O   UNK N   1      30.319  18.027   4.216  0.00  0.00    -0.772 OA
HETATM   26  H   UNK N   1      31.246  18.010   4.360  0.00  0.00     0.167 HD
ENDBRANCH  23  25
ENDBRANCH  13  23
TORSDOF 4
ENDMDL
MODEL 9
REMARK VINA RESULT:      -6.0     11.320     12.924
REMARK  4 active torsions:
REMARK  status: ('A' for Active; 'I' for Inactive)
REMARK    1  A    between atoms: O_3  and  C_24 
REMARK    2  A    between atoms: N_5  and  C_14 
REMARK    3  A    between atoms: N_7  and  C_19 
REMARK    4  A    between atoms: C_22  and  C_24 
ROOT
HETATM    1  F   UNK N   1      28.171  24.569  -3.254  0.00  0.00    -0.202 F 
HETATM    2  O   UNK N   1      32.100  21.614  -2.514  0.00  0.00    -0.286 OA
HETATM    3  N   UNK N   1      30.819  20.752  -6.222  0.00  0.00    -0.342 N 
HETATM    4  N   UNK N   1      29.080  22.347  -5.998  0.00  0.00    -0.325 N 
ATOM      5  HN  UNK N   1      28.771  22.107  -6.939  1.00  0.00     0.169 HD
HETATM    6  C   UNK N   1      28.393  23.306  -5.311  0.00  0.00     0.144 A 
HETATM    7  C   UNK N   1      30.161  21.696  -5.480  0.00  0.00     0.123 A 
HETATM    8  C   UNK N   1      30.599  22.009  -4.177  0.00  0.00     0.062 A 
HETATM    9  C   UNK N   1      28.812  23.636  -4.000  0.00  0.00     0.161 A 
HETATM   10  C   UNK N   1      29.911  22.980  -3.445  0.00  0.00     0.065 A 
HETATM   11  C   UNK N   1      31.715  21.348  -3.643  0.00  0.00     0.204 A 
HETATM   12  C   UNK N   1      31.911  20.110  -5.708  0.00  0.00     0.115 A 
HETATM   13  C   UNK N   1      32.387  20.384  -4.422  0.00  0.00     0.104 A 
ENDROOT
BRANCH   6  14
HETATM   14  N   UNK N   1      27.270  23.938  -5.937  0.00  0.00    -0.362 N 
HETATM   15  C   UNK N   1      26.109  23.146  -6.279  0.00  0.00     0.143 C 
HETATM   16  C   UNK N   1      25.706  23.441  -7.724  0.00  0.00     0.133 C 
HETATM   17  N   UNK N   1      25.573  24.881  -8.019  0.00  0.00    -0.418 N 
HETATM   18  C   UNK N   1      25.933  25.764  -6.899  0.00  0.00     0.133 C 
HETATM   19  H   UNK N   1      25.260  25.234  -8.922  0.00  0.00     0.153 HD
HETATM   20  C   UNK N   1      27.265  25.353  -6.263  0.00  0.00     0.143 C 
ENDBRANCH   6  14
BRANCH   3  21
HETATM   21  C   UNK N   1      30.340  20.446  -7.579  0.00  0.00     0.125 C 
HETATM   22  C   UNK N   1      29.551  19.145  -7.685  0.00  0.00     0.027 C 
ENDBRANCH   3  21
BRANCH  13  23
HETATM   23  C   UNK N   1      33.590  19.656  -3.937  0.00  0.00     0.181 C 
HETATM   24  O   UNK N   1      34.669  20.218  -3.847  0.00  0.00    -0.646 OA
BRANCH  23  25
HETATM   25  O   UNK N   1      33.495  18.354  -3.601  0.00  0.00    -0.772 OA
HETATM   26  H   UNK N   1      32.907  17.792  -4.067  0.00  0.00     0.167 HD
ENDBRANCH  23  25
ENDBRANCH  13  23
TORSDOF 4
ENDMDL
