REMARK  14 active torsions:
REMARK  status: ('A' for Active; 'I' for Inactive)
REMARK    1  A    between atoms: S_2  and  C_11 
REMARK    2  A    between atoms: S_2  and  C_14 
REMARK    3  A    between atoms: O_3  and  C_13 
REMARK    4  A    between atoms: O_5  and  C_24 
REMARK    5  A    between atoms: C_8  and  C_11 
REMARK    6  A    between atoms: C_8  and  C_12 
REMARK    7  A    between atoms: C_12  and  C_13 
REMARK    8  A    between atoms: C_14  and  C_15 
REMARK    9  A    between atoms: C_14  and  C_16 
REMARK   10  A    between atoms: C_15  and  C_17 
REMARK   11  A    between atoms: C_17  and  C_20 
REMARK   12  A    between atoms: C_21  and  C_24 
REMARK   13  A    between atoms: C_22  and  C_29 
REMARK   14  A    between atoms: C_33  and  C_34 
ROOT
HETATM    1  C   UNK N   1       5.472  -1.452  -0.476  0.00  0.00     0.080 C 
ENDROOT
BRANCH   1   2
HETATM    2  S   UNK N   1       5.278  -1.185   1.330  0.00  0.00    -0.159 SA
BRANCH   2   3
HETATM    3  C   UNK N   1       4.146  -2.589   1.642  0.00  0.00     0.084 C 
BRANCH   3   4
HETATM    4  C   UNK N   1       3.168  -2.878   0.508  0.00  0.00    -0.023 A 
HETATM    5  C   UNK N   1       3.623  -3.981  -0.420  0.00  0.00     0.011 A 
HETATM    6  C   UNK N   1       2.497  -4.231   0.568  0.00  0.00     0.011 A 
BRANCH   4   7
HETATM    7  C   UNK N   1       2.424  -1.756  -0.213  0.00  0.00     0.120 C 
BRANCH   7   8
HETATM    8  C   UNK N   1       1.129  -1.413   0.441  0.00  0.00     0.140 C 
HETATM    9  O   UNK N   1       0.199  -2.202   0.400  0.00  0.00    -0.650 OA
BRANCH   8  10
HETATM   10  O   UNK N   1       0.967  -0.215   1.032  0.00  0.00    -0.776 OA
HETATM   11  H   UNK N   1       1.633   0.299   1.443  0.00  0.00     0.167 HD
ENDBRANCH   8  10
ENDBRANCH   7   8
ENDBRANCH   4   7
ENDBRANCH   3   4
ENDBRANCH   2   3
ENDBRANCH   1   2
BRANCH   1  12
HETATM   12  C   UNK N   1       5.359  -0.171  -1.307  0.00  0.00     0.025 C 
BRANCH  12  13
HETATM   13  C   UNK N   1       6.534   0.769  -1.089  0.00  0.00     0.040 C 
BRANCH  13  14
HETATM   14  C   UNK N   1       6.397   2.123  -0.408  0.00  0.00    -0.049 A 
HETATM   15  C   UNK N   1       5.199   2.791   0.049  0.00  0.00    -0.019 A 
HETATM   16  C   UNK N   1       5.342   4.054   0.664  0.00  0.00     0.011 A 
HETATM   17  C   UNK N   1       6.583   4.659   0.828  0.00  0.00     0.001 A 
HETATM   18  C   UNK N   1       7.727   4.018   0.377  0.00  0.00     0.001 A 
HETATM   19  C   UNK N   1       7.629   2.770  -0.230  0.00  0.00     0.007 A 
BRANCH  15  20
HETATM   20  C   UNK N   1       3.777   2.242  -0.089  0.00  0.00     0.078 C 
HETATM   21  C   UNK N   1       2.716   3.180   0.483  0.00  0.00     0.051 C 
HETATM   22  C   UNK N   1       3.416   2.034  -1.547  0.00  0.00     0.051 C 
BRANCH  20  23
HETATM   23  O   UNK N   1       3.655   1.048   0.605  0.00  0.00    -0.386 OA
HETATM   24  H   UNK N   1       2.889   0.704   1.090  0.00  0.00     0.211 HD
ENDBRANCH  20  23
ENDBRANCH  15  20
ENDBRANCH  13  14
ENDBRANCH  12  13
ENDBRANCH   1  12
BRANCH   1  25
HETATM   25  C   UNK N   1       6.575  -2.411  -0.800  0.00  0.00    -0.043 A 
HETATM   26  C   UNK N   1       7.693  -2.415   0.007  0.00  0.00     0.019 A 
HETATM   27  C   UNK N   1       8.709  -3.353  -0.149  0.00  0.00    -0.036 A 
HETATM   28  C   UNK N   1       8.613  -4.307  -1.165  0.00  0.00     0.011 A 
HETATM   29  C   UNK N   1       7.479  -4.324  -1.992  0.00  0.00     0.001 A 
HETATM   30  C   UNK N   1       6.457  -3.376  -1.809  0.00  0.00     0.008 A 
BRANCH  27  31
HETATM   31  C   UNK N   1       9.963  -3.138   0.570  0.00  0.00     0.013 C 
HETATM   32  C   UNK N   1      10.057  -2.026   1.301  0.00  0.00     0.030 C 
BRANCH  32  33
HETATM   33  C   UNK N   1      11.269  -1.251   1.229  0.00  0.00     0.032 A 
HETATM   34  N   UNK N   1      12.444  -1.849   0.889  0.00  0.00    -0.356 N 
HETATM   35  C   UNK N   1      13.503  -1.121   0.483  0.00  0.00     0.044 A 
ATOM     36  HN  UNK N   1      12.524  -2.864   0.942  1.00  0.00     0.166 HD
HETATM   37  C   UNK N   1      13.396   0.281   0.349  0.00  0.00    -0.009 A 
HETATM   38  C   UNK N   1      14.699  -1.760   0.157  0.00  0.00     0.054 A 
HETATM   39  C   UNK N   1      12.199   0.908   0.697  0.00  0.00     0.016 A 
HETATM   40  C   UNK N   1      14.472   1.022  -0.131  0.00  0.00     0.015 A 
HETATM   41  C   UNK N   1      11.129   0.136   1.136  0.00  0.00     0.030 A 
HETATM   42  C   UNK N   1      15.667   0.373  -0.461  0.00  0.00     0.025 A 
HETATM   43  C   UNK N   1      15.781  -1.014  -0.305  0.00  0.00     0.036 A 
HETATM   44 Cl   UNK N   1      17.287  -1.819  -0.676  0.00  0.00    -0.084 Cl
ENDBRANCH  32  33
ENDBRANCH  27  31
ENDBRANCH   1  25
TORSDOF 14
