MODEL 1
REMARK VINA RESULT:      -7.9      0.000      0.000
REMARK  14 active torsions:
REMARK  status: ('A' for Active; 'I' for Inactive)
REMARK    1  A    between atoms: S_2  and  C_11 
REMARK    2  A    between atoms: S_2  and  C_14 
REMARK    3  A    between atoms: O_3  and  C_13 
REMARK    4  A    between atoms: O_5  and  C_24 
REMARK    5  A    between atoms: C_8  and  C_11 
REMARK    6  A    between atoms: C_8  and  C_12 
REMARK    7  A    between atoms: C_12  and  C_13 
REMARK    8  A    between atoms: C_14  and  C_15 
REMARK    9  A    between atoms: C_14  and  C_16 
REMARK   10  A    between atoms: C_15  and  C_17 
REMARK   11  A    between atoms: C_17  and  C_20 
REMARK   12  A    between atoms: C_21  and  C_24 
REMARK   13  A    between atoms: C_22  and  C_29 
REMARK   14  A    between atoms: C_33  and  C_34 
ROOT
HETATM    1  C   UNK N   1      22.894  15.506   4.740  0.00  0.00     0.080 C 
ENDROOT
BRANCH   1   2
HETATM    2  S   UNK N   1      22.396  13.877   5.426  0.00  0.00    -0.159 SA
BRANCH   2   3
HETATM    3  C   UNK N   1      23.069  14.130   7.109  0.00  0.00     0.084 C 
BRANCH   3   4
HETATM    4  C   UNK N   1      24.338  13.339   7.410  0.00  0.00    -0.023 A 
HETATM    5  C   UNK N   1      25.108  12.934   6.173  0.00  0.00     0.011 A 
HETATM    6  C   UNK N   1      25.630  14.045   7.068  0.00  0.00     0.011 A 
BRANCH   4   7
HETATM    7  C   UNK N   1      24.383  12.287   8.516  0.00  0.00     0.120 C 
BRANCH   7   8
HETATM    8  C   UNK N   1      24.298  12.883   9.879  0.00  0.00     0.140 C 
HETATM    9  O   UNK N   1      23.208  13.063  10.398  0.00  0.00    -0.650 OA
BRANCH   8  10
HETATM   10  O   UNK N   1      25.417  13.272  10.518  0.00  0.00    -0.776 OA
HETATM   11  H   UNK N   1      25.464  13.769  11.310  0.00  0.00     0.167 HD
ENDBRANCH   8  10
ENDBRANCH   7   8
ENDBRANCH   4   7
ENDBRANCH   3   4
ENDBRANCH   2   3
ENDBRANCH   1   2
BRANCH   1  12
HETATM   12  C   UNK N   1      23.210  16.557   5.808  0.00  0.00     0.025 C 
BRANCH  12  13
HETATM   13  C   UNK N   1      22.670  17.932   5.448  0.00  0.00     0.040 C 
BRANCH  13  14
HETATM   14  C   UNK N   1      23.372  18.869   4.477  0.00  0.00    -0.049 A 
HETATM   15  C   UNK N   1      22.803  19.660   3.408  0.00  0.00    -0.019 A 
HETATM   16  C   UNK N   1      23.677  20.465   2.646  0.00  0.00     0.011 A 
HETATM   17  C   UNK N   1      25.045  20.505   2.890  0.00  0.00     0.001 A 
HETATM   18  C   UNK N   1      25.586  19.736   3.909  0.00  0.00     0.001 A 
HETATM   19  C   UNK N   1      24.757  18.933   4.686  0.00  0.00     0.007 A 
BRANCH  15  20
HETATM   20  C   UNK N   1      21.321  19.689   3.027  0.00  0.00     0.078 C 
HETATM   21  C   UNK N   1      21.039  20.532   1.785  0.00  0.00     0.051 C 
HETATM   22  C   UNK N   1      20.814  18.294   2.715  0.00  0.00     0.051 C 
BRANCH  20  23
HETATM   23  O   UNK N   1      20.573  20.247   4.053  0.00  0.00    -0.386 OA
HETATM   24  H   UNK N   1      20.287  21.167   4.164  0.00  0.00     0.211 HD
ENDBRANCH  20  23
ENDBRANCH  15  20
ENDBRANCH  13  14
ENDBRANCH  12  13
ENDBRANCH   1  12
BRANCH   1  25
HETATM   25  C   UNK N   1      23.824  15.379   3.575  0.00  0.00    -0.043 A 
HETATM   26  C   UNK N   1      25.144  15.737   3.752  0.00  0.00     0.019 A 
HETATM   27  C   UNK N   1      26.100  15.537   2.761  0.00  0.00    -0.036 A 
HETATM   28  C   UNK N   1      25.716  14.981   1.538  0.00  0.00     0.011 A 
HETATM   29  C   UNK N   1      24.378  14.602   1.341  0.00  0.00     0.001 A 
HETATM   30  C   UNK N   1      23.431  14.800   2.361  0.00  0.00     0.008 A 
BRANCH  27  31
HETATM   31  C   UNK N   1      27.408  16.168   2.926  0.00  0.00     0.013 C 
HETATM   32  C   UNK N   1      28.451  15.356   3.104  0.00  0.00     0.030 C 
BRANCH  32  33
HETATM   33  C   UNK N   1      29.415  15.680   4.123  0.00  0.00     0.032 A 
HETATM   34  N   UNK N   1      29.089  16.546   5.122  0.00  0.00    -0.356 N 
HETATM   35  C   UNK N   1      29.817  16.608   6.255  0.00  0.00     0.044 A 
ATOM     36  HN  UNK N   1      28.280  17.157   5.012  1.00  0.00     0.166 HD
HETATM   37  C   UNK N   1      30.907  15.731   6.451  0.00  0.00    -0.009 A 
HETATM   38  C   UNK N   1      29.469  17.516   7.254  0.00  0.00     0.054 A 
HETATM   39  C   UNK N   1      31.256  14.841   5.434  0.00  0.00     0.016 A 
HETATM   40  C   UNK N   1      31.618  15.755   7.648  0.00  0.00     0.015 A 
HETATM   41  C   UNK N   1      30.502  14.814   4.266  0.00  0.00     0.030 A 
HETATM   42  C   UNK N   1      31.259  16.666   8.647  0.00  0.00     0.025 A 
HETATM   43  C   UNK N   1      30.193  17.552   8.443  0.00  0.00     0.036 A 
HETATM   44 Cl   UNK N   1      29.772  18.718   9.674  0.00  0.00    -0.084 Cl
ENDBRANCH  32  33
ENDBRANCH  27  31
ENDBRANCH   1  25
TORSDOF 14
ENDMDL
MODEL 2
REMARK VINA RESULT:      -7.8      2.227      6.131
REMARK  14 active torsions:
REMARK  status: ('A' for Active; 'I' for Inactive)
REMARK    1  A    between atoms: S_2  and  C_11 
REMARK    2  A    between atoms: S_2  and  C_14 
REMARK    3  A    between atoms: O_3  and  C_13 
REMARK    4  A    between atoms: O_5  and  C_24 
REMARK    5  A    between atoms: C_8  and  C_11 
REMARK    6  A    between atoms: C_8  and  C_12 
REMARK    7  A    between atoms: C_12  and  C_13 
REMARK    8  A    between atoms: C_14  and  C_15 
REMARK    9  A    between atoms: C_14  and  C_16 
REMARK   10  A    between atoms: C_15  and  C_17 
REMARK   11  A    between atoms: C_17  and  C_20 
REMARK   12  A    between atoms: C_21  and  C_24 
REMARK   13  A    between atoms: C_22  and  C_29 
REMARK   14  A    between atoms: C_33  and  C_34 
ROOT
HETATM    1  C   UNK N   1      21.191  14.709   3.661  0.00  0.00     0.080 C 
ENDROOT
BRANCH   1   2
HETATM    2  S   UNK N   1      19.874  15.925   3.264  0.00  0.00    -0.159 SA
BRANCH   2   3
HETATM    3  C   UNK N   1      20.943  17.139   2.408  0.00  0.00     0.084 C 
BRANCH   3   4
HETATM    4  C   UNK N   1      21.156  18.444   3.169  0.00  0.00    -0.023 A 
HETATM    5  C   UNK N   1      21.302  18.259   4.662  0.00  0.00     0.011 A 
HETATM    6  C   UNK N   1      22.515  18.597   3.812  0.00  0.00     0.011 A 
BRANCH   4   7
HETATM    7  C   UNK N   1      20.409  19.721   2.793  0.00  0.00     0.120 C 
BRANCH   7   8
HETATM    8  C   UNK N   1      21.261  20.685   2.040  0.00  0.00     0.140 C 
HETATM    9  O   UNK N   1      21.434  20.536   0.841  0.00  0.00    -0.650 OA
BRANCH   8  10
HETATM   10  O   UNK N   1      21.882  21.688   2.688  0.00  0.00    -0.776 OA
HETATM   11  H   UNK N   1      21.595  22.105   3.475  0.00  0.00     0.167 HD
ENDBRANCH   8  10
ENDBRANCH   7   8
ENDBRANCH   4   7
ENDBRANCH   3   4
ENDBRANCH   2   3
ENDBRANCH   1   2
BRANCH   1  12
HETATM   12  C   UNK N   1      20.677  13.444   4.353  0.00  0.00     0.025 C 
BRANCH  12  13
HETATM   13  C   UNK N   1      21.630  12.939   5.425  0.00  0.00     0.040 C 
BRANCH  13  14
HETATM   14  C   UNK N   1      23.093  12.624   5.151  0.00  0.00    -0.049 A 
HETATM   15  C   UNK N   1      24.274  13.231   5.724  0.00  0.00    -0.019 A 
HETATM   16  C   UNK N   1      25.533  12.749   5.304  0.00  0.00     0.011 A 
HETATM   17  C   UNK N   1      25.658  11.730   4.366  0.00  0.00     0.001 A 
HETATM   18  C   UNK N   1      24.522  11.160   3.812  0.00  0.00     0.001 A 
HETATM   19  C   UNK N   1      23.263  11.604   4.203  0.00  0.00     0.007 A 
BRANCH  15  20
HETATM   20  C   UNK N   1      24.271  14.369   6.747  0.00  0.00     0.078 C 
HETATM   21  C   UNK N   1      25.562  14.444   7.560  0.00  0.00     0.051 C 
HETATM   22  C   UNK N   1      24.123  15.713   6.062  0.00  0.00     0.051 C 
BRANCH  20  23
HETATM   23  O   UNK N   1      23.246  14.187   7.663  0.00  0.00    -0.386 OA
HETATM   24  H   UNK N   1      23.081  14.663   8.491  0.00  0.00     0.211 HD
ENDBRANCH  20  23
ENDBRANCH  15  20
ENDBRANCH  13  14
ENDBRANCH  12  13
ENDBRANCH   1  12
BRANCH   1  25
HETATM   25  C   UNK N   1      22.185  14.556   2.552  0.00  0.00    -0.043 A 
HETATM   26  C   UNK N   1      23.456  15.054   2.743  0.00  0.00     0.019 A 
HETATM   27  C   UNK N   1      24.473  14.849   1.815  0.00  0.00    -0.036 A 
HETATM   28  C   UNK N   1      24.201  14.139   0.643  0.00  0.00     0.011 A 
HETATM   29  C   UNK N   1      22.915  13.617   0.435  0.00  0.00     0.001 A 
HETATM   30  C   UNK N   1      21.905  13.824   1.391  0.00  0.00     0.008 A 
BRANCH  27  31
HETATM   31  C   UNK N   1      25.709  15.615   1.966  0.00  0.00     0.013 C 
HETATM   32  C   UNK N   1      26.673  15.065   2.706  0.00  0.00     0.030 C 
BRANCH  32  33
HETATM   33  C   UNK N   1      27.369  15.891   3.659  0.00  0.00     0.032 A 
HETATM   34  N   UNK N   1      27.048  17.208   3.786  0.00  0.00    -0.356 N 
HETATM   35  C   UNK N   1      27.420  17.913   4.872  0.00  0.00     0.044 A 
ATOM     36  HN  UNK N   1      26.518  17.669   3.046  1.00  0.00     0.166 HD
HETATM   37  C   UNK N   1      28.106  17.281   5.933  0.00  0.00    -0.009 A 
HETATM   38  C   UNK N   1      27.092  19.265   4.967  0.00  0.00     0.054 A 
HETATM   39  C   UNK N   1      28.444  15.932   5.816  0.00  0.00     0.016 A 
HETATM   40  C   UNK N   1      28.432  17.998   7.081  0.00  0.00     0.015 A 
HETATM   41  C   UNK N   1      28.069  15.234   4.674  0.00  0.00     0.030 A 
HETATM   42  C   UNK N   1      28.094  19.353   7.170  0.00  0.00     0.025 A 
HETATM   43  C   UNK N   1      27.436  19.985   6.108  0.00  0.00     0.036 A 
HETATM   44 Cl   UNK N   1      27.053  21.688   6.202  0.00  0.00    -0.084 Cl
ENDBRANCH  32  33
ENDBRANCH  27  31
ENDBRANCH   1  25
TORSDOF 14
ENDMDL
MODEL 3
REMARK VINA RESULT:      -7.8      5.792      9.758
REMARK  14 active torsions:
REMARK  status: ('A' for Active; 'I' for Inactive)
REMARK    1  A    between atoms: S_2  and  C_11 
REMARK    2  A    between atoms: S_2  and  C_14 
REMARK    3  A    between atoms: O_3  and  C_13 
REMARK    4  A    between atoms: O_5  and  C_24 
REMARK    5  A    between atoms: C_8  and  C_11 
REMARK    6  A    between atoms: C_8  and  C_12 
REMARK    7  A    between atoms: C_12  and  C_13 
REMARK    8  A    between atoms: C_14  and  C_15 
REMARK    9  A    between atoms: C_14  and  C_16 
REMARK   10  A    between atoms: C_15  and  C_17 
REMARK   11  A    between atoms: C_17  and  C_20 
REMARK   12  A    between atoms: C_21  and  C_24 
REMARK   13  A    between atoms: C_22  and  C_29 
REMARK   14  A    between atoms: C_33  and  C_34 
ROOT
HETATM    1  C   UNK N   1      34.797  14.116   7.753  0.00  0.00     0.080 C 
ENDROOT
BRANCH   1   2
HETATM    2  S   UNK N   1      34.371  13.106   9.226  0.00  0.00    -0.159 SA
BRANCH   2   3
HETATM    3  C   UNK N   1      35.941  13.360  10.131  0.00  0.00     0.084 C 
BRANCH   3   4
HETATM    4  C   UNK N   1      35.820  14.235  11.375  0.00  0.00    -0.023 A 
HETATM    5  C   UNK N   1      36.149  15.690  11.128  0.00  0.00     0.011 A 
HETATM    6  C   UNK N   1      34.708  15.258  11.334  0.00  0.00     0.011 A 
BRANCH   4   7
HETATM    7  C   UNK N   1      36.272  13.742  12.748  0.00  0.00     0.120 C 
BRANCH   7   8
HETATM    8  C   UNK N   1      35.151  13.178  13.553  0.00  0.00     0.140 C 
HETATM    9  O   UNK N   1      35.026  13.492  14.725  0.00  0.00    -0.650 OA
BRANCH   8  10
HETATM   10  O   UNK N   1      34.307  12.285  13.003  0.00  0.00    -0.776 OA
HETATM   11  H   UNK N   1      34.525  11.428  12.695  0.00  0.00     0.167 HD
ENDBRANCH   8  10
ENDBRANCH   7   8
ENDBRANCH   4   7
ENDBRANCH   3   4
ENDBRANCH   2   3
ENDBRANCH   1   2
BRANCH   1  12
HETATM   12  C   UNK N   1      34.761  13.336   6.436  0.00  0.00     0.025 C 
BRANCH  12  13
HETATM   13  C   UNK N   1      34.243  14.175   5.278  0.00  0.00     0.040 C 
BRANCH  13  14
HETATM   14  C   UNK N   1      32.808  14.099   4.776  0.00  0.00    -0.049 A 
HETATM   15  C   UNK N   1      32.102  15.015   3.909  0.00  0.00    -0.019 A 
HETATM   16  C   UNK N   1      30.762  14.712   3.581  0.00  0.00     0.011 A 
HETATM   17  C   UNK N   1      30.120  13.580   4.071  0.00  0.00     0.001 A 
HETATM   18  C   UNK N   1      30.800  12.712   4.912  0.00  0.00     0.001 A 
HETATM   19  C   UNK N   1      32.123  12.972   5.254  0.00  0.00     0.007 A 
BRANCH  15  20
HETATM   20  C   UNK N   1      32.687  16.301   3.321  0.00  0.00     0.078 C 
HETATM   21  C   UNK N   1      31.668  17.113   2.524  0.00  0.00     0.051 C 
HETATM   22  C   UNK N   1      33.193  17.217   4.418  0.00  0.00     0.051 C 
BRANCH  20  23
HETATM   23  O   UNK N   1      33.717  16.000   2.442  0.00  0.00    -0.386 OA
HETATM   24  H   UNK N   1      33.661  15.642   1.543  0.00  0.00     0.211 HD
ENDBRANCH  20  23
ENDBRANCH  15  20
ENDBRANCH  13  14
ENDBRANCH  12  13
ENDBRANCH   1  12
BRANCH   1  25
HETATM   25  C   UNK N   1      34.171  15.476   7.788  0.00  0.00    -0.043 A 
HETATM   26  C   UNK N   1      32.800  15.559   7.909  0.00  0.00     0.019 A 
HETATM   27  C   UNK N   1      32.149  16.778   8.071  0.00  0.00    -0.036 A 
HETATM   28  C   UNK N   1      32.896  17.959   8.088  0.00  0.00     0.011 A 
HETATM   29  C   UNK N   1      34.293  17.894   7.974  0.00  0.00     0.001 A 
HETATM   30  C   UNK N   1      34.933  16.651   7.825  0.00  0.00     0.008 A 
BRANCH  27  31
HETATM   31  C   UNK N   1      30.694  16.806   7.939  0.00  0.00     0.013 C 
HETATM   32  C   UNK N   1      30.195  16.630   6.714  0.00  0.00     0.030 C 
BRANCH  32  33
HETATM   33  C   UNK N   1      29.129  17.490   6.271  0.00  0.00     0.032 A 
HETATM   34  N   UNK N   1      28.495  18.307   7.157  0.00  0.00    -0.356 N 
HETATM   35  C   UNK N   1      27.751  19.348   6.735  0.00  0.00     0.044 A 
ATOM     36  HN  UNK N   1      28.585  18.128   8.157  1.00  0.00     0.166 HD
HETATM   37  C   UNK N   1      27.659  19.647   5.357  0.00  0.00    -0.009 A 
HETATM   38  C   UNK N   1      27.100  20.157   7.665  0.00  0.00     0.054 A 
HETATM   39  C   UNK N   1      28.300  18.817   4.437  0.00  0.00     0.016 A 
HETATM   40  C   UNK N   1      26.941  20.760   4.929  0.00  0.00     0.015 A 
HETATM   41  C   UNK N   1      29.042  17.734   4.898  0.00  0.00     0.030 A 
HETATM   42  C   UNK N   1      26.295  21.570   5.870  0.00  0.00     0.025 A 
HETATM   43  C   UNK N   1      26.367  21.260   7.233  0.00  0.00     0.036 A 
HETATM   44 Cl   UNK N   1      25.525  22.247   8.404  0.00  0.00    -0.084 Cl
ENDBRANCH  32  33
ENDBRANCH  27  31
ENDBRANCH   1  25
TORSDOF 14
ENDMDL
MODEL 4
REMARK VINA RESULT:      -7.7      2.530      4.935
REMARK  14 active torsions:
REMARK  status: ('A' for Active; 'I' for Inactive)
REMARK    1  A    between atoms: S_2  and  C_11 
REMARK    2  A    between atoms: S_2  and  C_14 
REMARK    3  A    between atoms: O_3  and  C_13 
REMARK    4  A    between atoms: O_5  and  C_24 
REMARK    5  A    between atoms: C_8  and  C_11 
REMARK    6  A    between atoms: C_8  and  C_12 
REMARK    7  A    between atoms: C_12  and  C_13 
REMARK    8  A    between atoms: C_14  and  C_15 
REMARK    9  A    between atoms: C_14  and  C_16 
REMARK   10  A    between atoms: C_15  and  C_17 
REMARK   11  A    between atoms: C_17  and  C_20 
REMARK   12  A    between atoms: C_21  and  C_24 
REMARK   13  A    between atoms: C_22  and  C_29 
REMARK   14  A    between atoms: C_33  and  C_34 
ROOT
HETATM    1  C   UNK N   1      22.929  17.524   4.733  0.00  0.00     0.080 C 
ENDROOT
BRANCH   1   2
HETATM    2  S   UNK N   1      21.523  18.223   5.684  0.00  0.00    -0.159 SA
BRANCH   2   3
HETATM    3  C   UNK N   1      20.604  16.655   5.908  0.00  0.00     0.084 C 
BRANCH   3   4
HETATM    4  C   UNK N   1      20.847  15.964   7.245  0.00  0.00    -0.023 A 
HETATM    5  C   UNK N   1      20.735  14.458   7.180  0.00  0.00     0.011 A 
HETATM    6  C   UNK N   1      22.097  15.117   7.313  0.00  0.00     0.011 A 
BRANCH   4   7
HETATM    7  C   UNK N   1      20.323  16.549   8.555  0.00  0.00     0.120 C 
BRANCH   7   8
HETATM    8  C   UNK N   1      18.916  16.148   8.840  0.00  0.00     0.140 C 
HETATM    9  O   UNK N   1      17.993  16.748   8.313  0.00  0.00    -0.650 OA
BRANCH   8  10
HETATM   10  O   UNK N   1      18.659  15.159   9.717  0.00  0.00    -0.776 OA
HETATM   11  H   UNK N   1      19.262  14.509  10.016  0.00  0.00     0.167 HD
ENDBRANCH   8  10
ENDBRANCH   7   8
ENDBRANCH   4   7
ENDBRANCH   3   4
ENDBRANCH   2   3
ENDBRANCH   1   2
BRANCH   1  12
HETATM   12  C   UNK N   1      22.539  16.364   3.812  0.00  0.00     0.025 C 
BRANCH  12  13
HETATM   13  C   UNK N   1      23.449  15.158   3.978  0.00  0.00     0.040 C 
BRANCH  13  14
HETATM   14  C   UNK N   1      24.849  15.089   3.386  0.00  0.00    -0.049 A 
HETATM   15  C   UNK N   1      26.098  14.777   4.045  0.00  0.00    -0.019 A 
HETATM   16  C   UNK N   1      27.273  14.771   3.262  0.00  0.00     0.011 A 
HETATM   17  C   UNK N   1      27.256  15.060   1.902  0.00  0.00     0.001 A 
HETATM   18  C   UNK N   1      26.056  15.370   1.279  0.00  0.00     0.001 A 
HETATM   19  C   UNK N   1      24.875  15.381   2.014  0.00  0.00     0.007 A 
BRANCH  15  20
HETATM   20  C   UNK N   1      26.254  14.461   5.534  0.00  0.00     0.078 C 
HETATM   21  C   UNK N   1      25.647  15.531   6.439  0.00  0.00     0.051 C 
HETATM   22  C   UNK N   1      25.555  13.162   5.888  0.00  0.00     0.051 C 
BRANCH  20  23
HETATM   23  O   UNK N   1      27.597  14.384   5.870  0.00  0.00    -0.386 OA
HETATM   24  H   UNK N   1      28.231  13.677   5.675  0.00  0.00     0.211 HD
ENDBRANCH  20  23
ENDBRANCH  15  20
ENDBRANCH  13  14
ENDBRANCH  12  13
ENDBRANCH   1  12
BRANCH   1  25
HETATM   25  C   UNK N   1      23.839  18.582   4.192  0.00  0.00    -0.043 A 
HETATM   26  C   UNK N   1      25.197  18.431   4.379  0.00  0.00     0.019 A 
HETATM   27  C   UNK N   1      26.119  19.302   3.806  0.00  0.00    -0.036 A 
HETATM   28  C   UNK N   1      25.664  20.376   3.038  0.00  0.00     0.011 A 
HETATM   29  C   UNK N   1      24.286  20.542   2.830  0.00  0.00     0.001 A 
HETATM   30  C   UNK N   1      23.371  19.643   3.407  0.00  0.00     0.008 A 
BRANCH  27  31
HETATM   31  C   UNK N   1      27.509  19.226   4.252  0.00  0.00     0.013 C 
HETATM   32  C   UNK N   1      28.100  18.032   4.187  0.00  0.00     0.030 C 
BRANCH  32  33
HETATM   33  C   UNK N   1      28.894  17.591   5.305  0.00  0.00     0.032 A 
HETATM   34  N   UNK N   1      30.176  17.176   5.113  0.00  0.00    -0.356 N 
HETATM   35  C   UNK N   1      31.041  17.088   6.143  0.00  0.00     0.044 A 
ATOM     36  HN  UNK N   1      30.488  16.929   4.174  1.00  0.00     0.166 HD
HETATM   37  C   UNK N   1      30.646  17.479   7.442  0.00  0.00    -0.009 A 
HETATM   38  C   UNK N   1      32.343  16.644   5.918  0.00  0.00     0.054 A 
HETATM   39  C   UNK N   1      29.334  17.903   7.655  0.00  0.00     0.016 A 
HETATM   40  C   UNK N   1      31.560  17.446   8.490  0.00  0.00     0.015 A 
HETATM   41  C   UNK N   1      28.455  17.962   6.579  0.00  0.00     0.030 A 
HETATM   42  C   UNK N   1      32.867  17.004   8.255  0.00  0.00     0.025 A 
HETATM   43  C   UNK N   1      33.251  16.593   6.973  0.00  0.00     0.036 A 
HETATM   44 Cl   UNK N   1      34.871  16.001   6.689  0.00  0.00    -0.084 Cl
ENDBRANCH  32  33
ENDBRANCH  27  31
ENDBRANCH   1  25
TORSDOF 14
ENDMDL
MODEL 5
REMARK VINA RESULT:      -7.7     12.765     14.765
REMARK  14 active torsions:
REMARK  status: ('A' for Active; 'I' for Inactive)
REMARK    1  A    between atoms: S_2  and  C_11 
REMARK    2  A    between atoms: S_2  and  C_14 
REMARK    3  A    between atoms: O_3  and  C_13 
REMARK    4  A    between atoms: O_5  and  C_24 
REMARK    5  A    between atoms: C_8  and  C_11 
REMARK    6  A    between atoms: C_8  and  C_12 
REMARK    7  A    between atoms: C_12  and  C_13 
REMARK    8  A    between atoms: C_14  and  C_15 
REMARK    9  A    between atoms: C_14  and  C_16 
REMARK   10  A    between atoms: C_15  and  C_17 
REMARK   11  A    between atoms: C_17  and  C_20 
REMARK   12  A    between atoms: C_21  and  C_24 
REMARK   13  A    between atoms: C_22  and  C_29 
REMARK   14  A    between atoms: C_33  and  C_34 
ROOT
HETATM    1  C   UNK N   1      27.092  23.739  -7.510  0.00  0.00     0.080 C 
ENDROOT
BRANCH   1   2
HETATM    2  S   UNK N   1      27.118  21.988  -8.063  0.00  0.00    -0.159 SA
BRANCH   2   3
HETATM    3  C   UNK N   1      28.933  21.835  -8.235  0.00  0.00     0.084 C 
BRANCH   3   4
HETATM    4  C   UNK N   1      29.542  20.652  -7.491  0.00  0.00    -0.023 A 
HETATM    5  C   UNK N   1      31.002  20.838  -7.144  0.00  0.00     0.011 A 
HETATM    6  C   UNK N   1      29.942  20.930  -6.060  0.00  0.00     0.011 A 
BRANCH   4   7
HETATM    7  C   UNK N   1      29.192  19.211  -7.855  0.00  0.00     0.120 C 
BRANCH   7   8
HETATM    8  C   UNK N   1      29.975  18.706  -9.019  0.00  0.00     0.140 C 
HETATM    9  O   UNK N   1      30.734  17.761  -8.877  0.00  0.00    -0.650 OA
BRANCH   8  10
HETATM   10  O   UNK N   1      29.885  19.322 -10.212  0.00  0.00    -0.776 OA
HETATM   11  H   UNK N   1      30.589  19.496 -10.804  0.00  0.00     0.167 HD
ENDBRANCH   8  10
ENDBRANCH   7   8
ENDBRANCH   4   7
ENDBRANCH   3   4
ENDBRANCH   2   3
ENDBRANCH   1   2
BRANCH   1  12
HETATM   12  C   UNK N   1      26.072  24.608  -8.251  0.00  0.00     0.025 C 
BRANCH  12  13
HETATM   13  C   UNK N   1      26.433  26.084  -8.218  0.00  0.00     0.040 C 
BRANCH  13  14
HETATM   14  C   UNK N   1      26.453  26.904  -6.937  0.00  0.00    -0.049 A 
HETATM   15  C   UNK N   1      27.546  27.650  -6.355  0.00  0.00    -0.019 A 
HETATM   16  C   UNK N   1      27.304  28.342  -5.148  0.00  0.00     0.011 A 
HETATM   17  C   UNK N   1      26.065  28.314  -4.517  0.00  0.00     0.001 A 
HETATM   18  C   UNK N   1      25.024  27.587  -5.075  0.00  0.00     0.001 A 
HETATM   19  C   UNK N   1      25.221  26.896  -6.266  0.00  0.00     0.007 A 
BRANCH  15  20
HETATM   20  C   UNK N   1      28.958  27.745  -6.938  0.00  0.00     0.078 C 
HETATM   21  C   UNK N   1      29.093  28.830  -8.004  0.00  0.00     0.051 C 
HETATM   22  C   UNK N   1      29.968  28.083  -5.859  0.00  0.00     0.051 C 
BRANCH  20  23
HETATM   23  O   UNK N   1      29.303  26.551  -7.553  0.00  0.00    -0.386 OA
HETATM   24  H   UNK N   1      29.907  26.405  -8.298  0.00  0.00     0.211 HD
ENDBRANCH  20  23
ENDBRANCH  15  20
ENDBRANCH  13  14
ENDBRANCH  12  13
ENDBRANCH   1  12
BRANCH   1  25
HETATM   25  C   UNK N   1      27.188  23.873  -6.022  0.00  0.00    -0.043 A 
HETATM   26  C   UNK N   1      28.427  24.121  -5.469  0.00  0.00     0.019 A 
HETATM   27  C   UNK N   1      28.587  24.379  -4.111  0.00  0.00    -0.036 A 
HETATM   28  C   UNK N   1      27.470  24.365  -3.273  0.00  0.00     0.011 A 
HETATM   29  C   UNK N   1      26.200  24.122  -3.818  0.00  0.00     0.001 A 
HETATM   30  C   UNK N   1      26.057  23.877  -5.195  0.00  0.00     0.008 A 
BRANCH  27  31
HETATM   31  C   UNK N   1      29.942  24.381  -3.564  0.00  0.00     0.013 C 
HETATM   32  C   UNK N   1      30.920  24.792  -4.374  0.00  0.00     0.030 C 
BRANCH  32  33
HETATM   33  C   UNK N   1      32.145  24.036  -4.419  0.00  0.00     0.032 A 
HETATM   34  N   UNK N   1      32.152  22.723  -4.058  0.00  0.00    -0.356 N 
HETATM   35  C   UNK N   1      33.171  21.912  -4.405  0.00  0.00     0.044 A 
ATOM     36  HN  UNK N   1      31.374  22.347  -3.518  1.00  0.00     0.166 HD
HETATM   37  C   UNK N   1      34.231  22.398  -5.202  0.00  0.00    -0.009 A 
HETATM   38  C   UNK N   1      33.159  20.575  -4.008  0.00  0.00     0.054 A 
HETATM   39  C   UNK N   1      34.239  23.743  -5.576  0.00  0.00     0.016 A 
HETATM   40  C   UNK N   1      35.249  21.542  -5.611  0.00  0.00     0.015 A 
HETATM   41  C   UNK N   1      33.187  24.564  -5.184  0.00  0.00     0.030 A 
HETATM   42  C   UNK N   1      35.227  20.201  -5.213  0.00  0.00     0.025 A 
HETATM   43  C   UNK N   1      34.188  19.724  -4.403  0.00  0.00     0.036 A 
HETATM   44 Cl   UNK N   1      34.183  18.060  -3.869  0.00  0.00    -0.084 Cl
ENDBRANCH  32  33
ENDBRANCH  27  31
ENDBRANCH   1  25
TORSDOF 14
ENDMDL
MODEL 6
REMARK VINA RESULT:      -7.6      2.421      4.686
REMARK  14 active torsions:
REMARK  status: ('A' for Active; 'I' for Inactive)
REMARK    1  A    between atoms: S_2  and  C_11 
REMARK    2  A    between atoms: S_2  and  C_14 
REMARK    3  A    between atoms: O_3  and  C_13 
REMARK    4  A    between atoms: O_5  and  C_24 
REMARK    5  A    between atoms: C_8  and  C_11 
REMARK    6  A    between atoms: C_8  and  C_12 
REMARK    7  A    between atoms: C_12  and  C_13 
REMARK    8  A    between atoms: C_14  and  C_15 
REMARK    9  A    between atoms: C_14  and  C_16 
REMARK   10  A    between atoms: C_15  and  C_17 
REMARK   11  A    between atoms: C_17  and  C_20 
REMARK   12  A    between atoms: C_21  and  C_24 
REMARK   13  A    between atoms: C_22  and  C_29 
REMARK   14  A    between atoms: C_33  and  C_34 
ROOT
HETATM    1  C   UNK N   1      22.872  17.418   4.492  0.00  0.00     0.080 C 
ENDROOT
BRANCH   1   2
HETATM    2  S   UNK N   1      21.508  17.987   5.581  0.00  0.00    -0.159 SA
BRANCH   2   3
HETATM    3  C   UNK N   1      21.760  16.757   6.913  0.00  0.00     0.084 C 
BRANCH   3   4
HETATM    4  C   UNK N   1      20.549  15.874   7.198  0.00  0.00    -0.023 A 
HETATM    5  C   UNK N   1      19.520  15.880   6.091  0.00  0.00     0.011 A 
HETATM    6  C   UNK N   1      20.409  14.667   6.299  0.00  0.00     0.011 A 
BRANCH   4   7
HETATM    7  C   UNK N   1      19.931  15.788   8.592  0.00  0.00     0.120 C 
BRANCH   7   8
HETATM    8  C   UNK N   1      20.386  14.586   9.347  0.00  0.00     0.140 C 
HETATM    9  O   UNK N   1      19.564  13.812   9.811  0.00  0.00    -0.650 OA
BRANCH   8  10
HETATM   10  O   UNK N   1      21.698  14.379   9.563  0.00  0.00    -0.776 OA
HETATM   11  H   UNK N   1      22.089  14.041  10.343  0.00  0.00     0.167 HD
ENDBRANCH   8  10
ENDBRANCH   7   8
ENDBRANCH   4   7
ENDBRANCH   3   4
ENDBRANCH   2   3
ENDBRANCH   1   2
BRANCH   1  12
HETATM   12  C   UNK N   1      22.441  16.383   3.449  0.00  0.00     0.025 C 
BRANCH  12  13
HETATM   13  C   UNK N   1      23.103  15.032   3.663  0.00  0.00     0.040 C 
BRANCH  13  14
HETATM   14  C   UNK N   1      24.439  14.866   4.374  0.00  0.00    -0.049 A 
HETATM   15  C   UNK N   1      25.765  14.782   3.804  0.00  0.00    -0.019 A 
HETATM   16  C   UNK N   1      26.855  14.636   4.689  0.00  0.00     0.011 A 
HETATM   17  C   UNK N   1      26.683  14.565   6.067  0.00  0.00     0.001 A 
HETATM   18  C   UNK N   1      25.407  14.635   6.606  0.00  0.00     0.001 A 
HETATM   19  C   UNK N   1      24.307  14.784   5.768  0.00  0.00     0.007 A 
BRANCH  15  20
HETATM   20  C   UNK N   1      26.085  14.829   2.308  0.00  0.00     0.078 C 
HETATM   21  C   UNK N   1      27.585  14.814   2.017  0.00  0.00     0.051 C 
HETATM   22  C   UNK N   1      25.504  13.625   1.592  0.00  0.00     0.051 C 
BRANCH  20  23
HETATM   23  O   UNK N   1      25.593  15.998   1.748  0.00  0.00    -0.386 OA
HETATM   24  H   UNK N   1      25.292  16.155   0.840  0.00  0.00     0.211 HD
ENDBRANCH  20  23
ENDBRANCH  15  20
ENDBRANCH  13  14
ENDBRANCH  12  13
ENDBRANCH   1  12
BRANCH   1  25
HETATM   25  C   UNK N   1      23.760  18.540   4.051  0.00  0.00    -0.043 A 
HETATM   26  C   UNK N   1      25.118  18.412   4.253  0.00  0.00     0.019 A 
HETATM   27  C   UNK N   1      26.025  19.350   3.767  0.00  0.00    -0.036 A 
HETATM   28  C   UNK N   1      25.552  20.467   3.074  0.00  0.00     0.011 A 
HETATM   29  C   UNK N   1      24.174  20.610   2.851  0.00  0.00     0.001 A 
HETATM   30  C   UNK N   1      23.276  19.645   3.339  0.00  0.00     0.008 A 
BRANCH  27  31
HETATM   31  C   UNK N   1      27.408  19.279   4.234  0.00  0.00     0.013 C 
HETATM   32  C   UNK N   1      28.001  18.085   4.185  0.00  0.00     0.030 C 
BRANCH  32  33
HETATM   33  C   UNK N   1      28.779  17.653   5.318  0.00  0.00     0.032 A 
HETATM   34  N   UNK N   1      30.071  17.259   5.151  0.00  0.00    -0.356 N 
HETATM   35  C   UNK N   1      30.916  17.180   6.198  0.00  0.00     0.044 A 
ATOM     36  HN  UNK N   1      30.406  17.020   4.218  1.00  0.00     0.166 HD
HETATM   37  C   UNK N   1      30.488  17.560   7.490  0.00  0.00    -0.009 A 
HETATM   38  C   UNK N   1      32.230  16.758   5.998  0.00  0.00     0.054 A 
HETATM   39  C   UNK N   1      29.165  17.962   7.677  0.00  0.00     0.016 A 
HETATM   40  C   UNK N   1      31.381  17.538   8.557  0.00  0.00     0.015 A 
HETATM   41  C   UNK N   1      28.308  18.012   6.584  0.00  0.00     0.030 A 
HETATM   42  C   UNK N   1      32.700  17.118   8.347  0.00  0.00     0.025 A 
HETATM   43  C   UNK N   1      33.117  16.718   7.072  0.00  0.00     0.036 A 
HETATM   44 Cl   UNK N   1      34.751  16.153   6.819  0.00  0.00    -0.084 Cl
ENDBRANCH  32  33
ENDBRANCH  27  31
ENDBRANCH   1  25
TORSDOF 14
ENDMDL
MODEL 7
REMARK VINA RESULT:      -7.6      2.136      6.459
REMARK  14 active torsions:
REMARK  status: ('A' for Active; 'I' for Inactive)
REMARK    1  A    between atoms: S_2  and  C_11 
REMARK    2  A    between atoms: S_2  and  C_14 
REMARK    3  A    between atoms: O_3  and  C_13 
REMARK    4  A    between atoms: O_5  and  C_24 
REMARK    5  A    between atoms: C_8  and  C_11 
REMARK    6  A    between atoms: C_8  and  C_12 
REMARK    7  A    between atoms: C_12  and  C_13 
REMARK    8  A    between atoms: C_14  and  C_15 
REMARK    9  A    between atoms: C_14  and  C_16 
REMARK   10  A    between atoms: C_15  and  C_17 
REMARK   11  A    between atoms: C_17  and  C_20 
REMARK   12  A    between atoms: C_21  and  C_24 
REMARK   13  A    between atoms: C_22  and  C_29 
REMARK   14  A    between atoms: C_33  and  C_34 
ROOT
HETATM    1  C   UNK N   1      23.561  17.132   4.700  0.00  0.00     0.080 C 
ENDROOT
BRANCH   1   2
HETATM    2  S   UNK N   1      23.203  18.824   4.083  0.00  0.00    -0.159 SA
BRANCH   2   3
HETATM    3  C   UNK N   1      21.399  18.797   4.394  0.00  0.00     0.084 C 
BRANCH   3   4
HETATM    4  C   UNK N   1      20.539  18.910   3.139  0.00  0.00    -0.023 A 
HETATM    5  C   UNK N   1      20.735  17.772   2.164  0.00  0.00     0.011 A 
HETATM    6  C   UNK N   1      19.469  17.852   2.998  0.00  0.00     0.011 A 
BRANCH   4   7
HETATM    7  C   UNK N   1      20.295  20.252   2.454  0.00  0.00     0.120 C 
BRANCH   7   8
HETATM    8  C   UNK N   1      21.083  20.408   1.198  0.00  0.00     0.140 C 
HETATM    9  O   UNK N   1      22.287  20.599   1.255  0.00  0.00    -0.650 OA
BRANCH   8  10
HETATM   10  O   UNK N   1      20.462  20.388   0.005  0.00  0.00    -0.776 OA
HETATM   11  H   UNK N   1      20.504  19.706  -0.635  0.00  0.00     0.167 HD
ENDBRANCH   8  10
ENDBRANCH   7   8
ENDBRANCH   4   7
ENDBRANCH   3   4
ENDBRANCH   2   3
ENDBRANCH   1   2
BRANCH   1  12
HETATM   12  C   UNK N   1      22.467  16.559   5.606  0.00  0.00     0.025 C 
BRANCH  12  13
HETATM   13  C   UNK N   1      22.982  15.449   6.509  0.00  0.00     0.040 C 
BRANCH  13  14
HETATM   14  C   UNK N   1      22.171  14.875   7.661  0.00  0.00    -0.049 A 
HETATM   15  C   UNK N   1      22.440  13.703   8.463  0.00  0.00    -0.019 A 
HETATM   16  C   UNK N   1      21.526  13.383   9.491  0.00  0.00     0.011 A 
HETATM   17  C   UNK N   1      20.393  14.150   9.736  0.00  0.00     0.001 A 
HETATM   18  C   UNK N   1      20.134  15.267   8.955  0.00  0.00     0.001 A 
HETATM   19  C   UNK N   1      21.014  15.619   7.936  0.00  0.00     0.007 A 
BRANCH  15  20
HETATM   20  C   UNK N   1      23.638  12.768   8.283  0.00  0.00     0.078 C 
HETATM   21  C   UNK N   1      23.840  11.820   9.464  0.00  0.00     0.051 C 
HETATM   22  C   UNK N   1      23.459  11.888   7.061  0.00  0.00     0.051 C 
BRANCH  20  23
HETATM   23  O   UNK N   1      24.808  13.503   8.171  0.00  0.00    -0.386 OA
HETATM   24  H   UNK N   1      25.682  13.211   7.868  0.00  0.00     0.211 HD
ENDBRANCH  20  23
ENDBRANCH  15  20
ENDBRANCH  13  14
ENDBRANCH  12  13
ENDBRANCH   1  12
BRANCH   1  25
HETATM   25  C   UNK N   1      24.141  16.245   3.643  0.00  0.00    -0.043 A 
HETATM   26  C   UNK N   1      25.513  16.179   3.529  0.00  0.00     0.019 A 
HETATM   27  C   UNK N   1      26.137  15.291   2.657  0.00  0.00    -0.036 A 
HETATM   28  C   UNK N   1      25.357  14.457   1.853  0.00  0.00     0.011 A 
HETATM   29  C   UNK N   1      23.958  14.504   1.960  0.00  0.00     0.001 A 
HETATM   30  C   UNK N   1      23.348  15.398   2.857  0.00  0.00     0.008 A 
BRANCH  27  31
HETATM   31  C   UNK N   1      27.568  15.456   2.412  0.00  0.00     0.013 C 
HETATM   32  C   UNK N   1      28.394  15.098   3.396  0.00  0.00     0.030 C 
BRANCH  32  33
HETATM   33  C   UNK N   1      29.493  15.969   3.727  0.00  0.00     0.032 A 
HETATM   34  N   UNK N   1      29.856  16.148   5.027  0.00  0.00    -0.356 N 
HETATM   35  C   UNK N   1      31.060  16.663   5.349  0.00  0.00     0.044 A 
ATOM     36  HN  UNK N   1      29.208  15.888   5.770  1.00  0.00     0.166 HD
HETATM   37  C   UNK N   1      31.994  16.978   4.338  0.00  0.00    -0.009 A 
HETATM   38  C   UNK N   1      31.397  16.851   6.689  0.00  0.00     0.054 A 
HETATM   39  C   UNK N   1      31.635  16.803   3.001  0.00  0.00     0.016 A 
HETATM   40  C   UNK N   1      33.259  17.450   4.677  0.00  0.00     0.015 A 
HETATM   41  C   UNK N   1      30.378  16.292   2.695  0.00  0.00     0.030 A 
HETATM   42  C   UNK N   1      33.592  17.631   6.024  0.00  0.00     0.025 A 
HETATM   43  C   UNK N   1      32.657  17.342   7.025  0.00  0.00     0.036 A 
HETATM   44 Cl   UNK N   1      33.058  17.608   8.705  0.00  0.00    -0.084 Cl
ENDBRANCH  32  33
ENDBRANCH  27  31
ENDBRANCH   1  25
TORSDOF 14
ENDMDL
MODEL 8
REMARK VINA RESULT:      -7.6      2.740      6.466
REMARK  14 active torsions:
REMARK  status: ('A' for Active; 'I' for Inactive)
REMARK    1  A    between atoms: S_2  and  C_11 
REMARK    2  A    between atoms: S_2  and  C_14 
REMARK    3  A    between atoms: O_3  and  C_13 
REMARK    4  A    between atoms: O_5  and  C_24 
REMARK    5  A    between atoms: C_8  and  C_11 
REMARK    6  A    between atoms: C_8  and  C_12 
REMARK    7  A    between atoms: C_12  and  C_13 
REMARK    8  A    between atoms: C_14  and  C_15 
REMARK    9  A    between atoms: C_14  and  C_16 
REMARK   10  A    between atoms: C_15  and  C_17 
REMARK   11  A    between atoms: C_17  and  C_20 
REMARK   12  A    between atoms: C_21  and  C_24 
REMARK   13  A    between atoms: C_22  and  C_29 
REMARK   14  A    between atoms: C_33  and  C_34 
ROOT
HETATM    1  C   UNK N   1      23.495  17.254   5.138  0.00  0.00     0.080 C 
ENDROOT
BRANCH   1   2
HETATM    2  S   UNK N   1      22.285  16.972   3.787  0.00  0.00    -0.159 SA
BRANCH   2   3
HETATM    3  C   UNK N   1      21.255  18.452   4.098  0.00  0.00     0.084 C 
BRANCH   3   4
HETATM    4  C   UNK N   1      20.785  19.172   2.839  0.00  0.00    -0.023 A 
HETATM    5  C   UNK N   1      20.162  18.255   1.812  0.00  0.00     0.011 A 
HETATM    6  C   UNK N   1      19.288  19.188   2.630  0.00  0.00     0.011 A 
BRANCH   4   7
HETATM    7  C   UNK N   1      21.593  20.309   2.218  0.00  0.00     0.120 C 
BRANCH   7   8
HETATM    8  C   UNK N   1      20.913  20.920   1.040  0.00  0.00     0.140 C 
HETATM    9  O   UNK N   1      20.925  20.343  -0.036  0.00  0.00    -0.650 OA
BRANCH   8  10
HETATM   10  O   UNK N   1      20.332  22.128   1.147  0.00  0.00    -0.776 OA
HETATM   11  H   UNK N   1      20.022  22.531   1.933  0.00  0.00     0.167 HD
ENDBRANCH   8  10
ENDBRANCH   7   8
ENDBRANCH   4   7
ENDBRANCH   3   4
ENDBRANCH   2   3
ENDBRANCH   1   2
BRANCH   1  12
HETATM   12  C   UNK N   1      23.762  16.016   5.999  0.00  0.00     0.025 C 
BRANCH  12  13
HETATM   13  C   UNK N   1      22.523  15.153   6.176  0.00  0.00     0.040 C 
BRANCH  13  14
HETATM   14  C   UNK N   1      22.040  14.664   7.534  0.00  0.00    -0.049 A 
HETATM   15  C   UNK N   1      20.876  15.077   8.284  0.00  0.00    -0.019 A 
HETATM   16  C   UNK N   1      20.641  14.458   9.532  0.00  0.00     0.011 A 
HETATM   17  C   UNK N   1      21.493  13.486  10.045  0.00  0.00     0.001 A 
HETATM   18  C   UNK N   1      22.615  13.103   9.325  0.00  0.00     0.001 A 
HETATM   19  C   UNK N   1      22.878  13.686   8.090  0.00  0.00     0.007 A 
BRANCH  15  20
HETATM   20  C   UNK N   1      19.874  16.145   7.840  0.00  0.00     0.078 C 
HETATM   21  C   UNK N   1      18.835  16.473   8.910  0.00  0.00     0.051 C 
HETATM   22  C   UNK N   1      20.579  17.450   7.522  0.00  0.00     0.051 C 
BRANCH  20  23
HETATM   23  O   UNK N   1      19.166  15.707   6.731  0.00  0.00    -0.386 OA
HETATM   24  H   UNK N   1      18.218  15.791   6.545  0.00  0.00     0.211 HD
ENDBRANCH  20  23
ENDBRANCH  15  20
ENDBRANCH  13  14
ENDBRANCH  12  13
ENDBRANCH   1  12
BRANCH   1  25
HETATM   25  C   UNK N   1      24.667  18.076   4.698  0.00  0.00    -0.043 A 
HETATM   26  C   UNK N   1      25.871  17.437   4.493  0.00  0.00     0.019 A 
HETATM   27  C   UNK N   1      26.976  18.101   3.970  0.00  0.00    -0.036 A 
HETATM   28  C   UNK N   1      26.879  19.460   3.663  0.00  0.00     0.011 A 
HETATM   29  C   UNK N   1      25.659  20.127   3.857  0.00  0.00     0.001 A 
HETATM   30  C   UNK N   1      24.550  19.434   4.374  0.00  0.00     0.008 A 
BRANCH  27  31
HETATM   31  C   UNK N   1      28.273  17.428   4.019  0.00  0.00     0.013 C 
HETATM   32  C   UNK N   1      28.691  17.010   5.214  0.00  0.00     0.030 C 
BRANCH  32  33
HETATM   33  C   UNK N   1      30.061  17.248   5.590  0.00  0.00     0.032 A 
HETATM   34  N   UNK N   1      30.525  16.817   6.796  0.00  0.00    -0.356 N 
HETATM   35  C   UNK N   1      31.847  16.713   7.036  0.00  0.00     0.044 A 
ATOM     36  HN  UNK N   1      29.861  16.568   7.528  1.00  0.00     0.166 HD
HETATM   37  C   UNK N   1      32.782  16.999   6.017  0.00  0.00    -0.009 A 
HETATM   38  C   UNK N   1      32.292  16.285   8.286  0.00  0.00     0.054 A 
HETATM   39  C   UNK N   1      32.322  17.445   4.777  0.00  0.00     0.016 A 
HETATM   40  C   UNK N   1      34.144  16.830   6.249  0.00  0.00     0.015 A 
HETATM   41  C   UNK N   1      30.953  17.566   4.563  0.00  0.00     0.030 A 
HETATM   42  C   UNK N   1      34.583  16.395   7.505  0.00  0.00     0.025 A 
HETATM   43  C   UNK N   1      33.657  16.134   8.523  0.00  0.00     0.036 A 
HETATM   44 Cl   UNK N   1      34.207  15.632  10.103  0.00  0.00    -0.084 Cl
ENDBRANCH  32  33
ENDBRANCH  27  31
ENDBRANCH   1  25
TORSDOF 14
ENDMDL
MODEL 9
REMARK VINA RESULT:      -7.5      2.313      6.012
REMARK  14 active torsions:
REMARK  status: ('A' for Active; 'I' for Inactive)
REMARK    1  A    between atoms: S_2  and  C_11 
REMARK    2  A    between atoms: S_2  and  C_14 
REMARK    3  A    between atoms: O_3  and  C_13 
REMARK    4  A    between atoms: O_5  and  C_24 
REMARK    5  A    between atoms: C_8  and  C_11 
REMARK    6  A    between atoms: C_8  and  C_12 
REMARK    7  A    between atoms: C_12  and  C_13 
REMARK    8  A    between atoms: C_14  and  C_15 
REMARK    9  A    between atoms: C_14  and  C_16 
REMARK   10  A    between atoms: C_15  and  C_17 
REMARK   11  A    between atoms: C_17  and  C_20 
REMARK   12  A    between atoms: C_21  and  C_24 
REMARK   13  A    between atoms: C_22  and  C_29 
REMARK   14  A    between atoms: C_33  and  C_34 
ROOT
HETATM    1  C   UNK N   1      23.307  17.104   4.705  0.00  0.00     0.080 C 
ENDROOT
BRANCH   1   2
HETATM    2  S   UNK N   1      23.149  18.792   4.001  0.00  0.00    -0.159 SA
BRANCH   2   3
HETATM    3  C   UNK N   1      21.364  19.009   4.342  0.00  0.00     0.084 C 
BRANCH   3   4
HETATM    4  C   UNK N   1      20.478  19.011   3.101  0.00  0.00    -0.023 A 
HETATM    5  C   UNK N   1      20.682  17.809   2.207  0.00  0.00     0.011 A 
HETATM    6  C   UNK N   1      19.430  17.922   3.059  0.00  0.00     0.011 A 
BRANCH   4   7
HETATM    7  C   UNK N   1      20.188  20.294   2.326  0.00  0.00     0.120 C 
BRANCH   7   8
HETATM    8  C   UNK N   1      21.037  20.432   1.108  0.00  0.00     0.140 C 
HETATM    9  O   UNK N   1      22.239  20.609   1.221  0.00  0.00    -0.650 OA
BRANCH   8  10
HETATM   10  O   UNK N   1      20.474  20.413  -0.114  0.00  0.00    -0.776 OA
HETATM   11  H   UNK N   1      19.807  19.828  -0.412  0.00  0.00     0.167 HD
ENDBRANCH   8  10
ENDBRANCH   7   8
ENDBRANCH   4   7
ENDBRANCH   3   4
ENDBRANCH   2   3
ENDBRANCH   1   2
BRANCH   1  12
HETATM   12  C   UNK N   1      22.100  16.665   5.538  0.00  0.00     0.025 C 
BRANCH  12  13
HETATM   13  C   UNK N   1      22.496  15.798   6.722  0.00  0.00     0.040 C 
BRANCH  13  14
HETATM   14  C   UNK N   1      23.139  14.427   6.568  0.00  0.00    -0.049 A 
HETATM   15  C   UNK N   1      22.513  13.160   6.264  0.00  0.00    -0.019 A 
HETATM   16  C   UNK N   1      23.341  12.021   6.166  0.00  0.00     0.011 A 
HETATM   17  C   UNK N   1      24.716  12.090   6.361  0.00  0.00     0.001 A 
HETATM   18  C   UNK N   1      25.309  13.306   6.664  0.00  0.00     0.001 A 
HETATM   19  C   UNK N   1      24.528  14.453   6.764  0.00  0.00     0.007 A 
BRANCH  15  20
HETATM   20  C   UNK N   1      21.012  12.949   6.046  0.00  0.00     0.078 C 
HETATM   21  C   UNK N   1      20.502  13.576   4.750  0.00  0.00     0.051 C 
HETATM   22  C   UNK N   1      20.680  11.472   5.961  0.00  0.00     0.051 C 
BRANCH  20  23
HETATM   23  O   UNK N   1      20.292  13.539   7.073  0.00  0.00    -0.386 OA
HETATM   24  H   UNK N   1      19.816  13.113   7.803  0.00  0.00     0.211 HD
ENDBRANCH  20  23
ENDBRANCH  15  20
ENDBRANCH  13  14
ENDBRANCH  12  13
ENDBRANCH   1  12
BRANCH   1  25
HETATM   25  C   UNK N   1      23.888  16.127   3.730  0.00  0.00    -0.043 A 
HETATM   26  C   UNK N   1      25.259  15.983   3.690  0.00  0.00     0.019 A 
HETATM   27  C   UNK N   1      25.873  15.015   2.902  0.00  0.00    -0.036 A 
HETATM   28  C   UNK N   1      25.088  14.175   2.108  0.00  0.00     0.011 A 
HETATM   29  C   UNK N   1      23.691  14.300   2.142  0.00  0.00     0.001 A 
HETATM   30  C   UNK N   1      23.088  15.277   2.955  0.00  0.00     0.008 A 
BRANCH  27  31
HETATM   31  C   UNK N   1      27.322  15.090   2.720  0.00  0.00     0.013 C 
HETATM   32  C   UNK N   1      28.076  14.945   3.811  0.00  0.00     0.030 C 
BRANCH  32  33
HETATM   33  C   UNK N   1      29.183  15.844   4.012  0.00  0.00     0.032 A 
HETATM   34  N   UNK N   1      29.670  16.061   5.265  0.00  0.00    -0.356 N 
HETATM   35  C   UNK N   1      30.887  16.607   5.453  0.00  0.00     0.044 A 
ATOM     36  HN  UNK N   1      29.104  15.805   6.073  1.00  0.00     0.166 HD
HETATM   37  C   UNK N   1      31.709  16.916   4.347  0.00  0.00    -0.009 A 
HETATM   38  C   UNK N   1      31.353  16.832   6.748  0.00  0.00     0.054 A 
HETATM   39  C   UNK N   1      31.222  16.703   3.057  0.00  0.00     0.016 A 
HETATM   40  C   UNK N   1      32.991  17.421   4.547  0.00  0.00     0.015 A 
HETATM   41  C   UNK N   1      29.953  16.161   2.890  0.00  0.00     0.030 A 
HETATM   42  C   UNK N   1      33.453  17.639   5.850  0.00  0.00     0.025 A 
HETATM   43  C   UNK N   1      32.629  17.355   6.946  0.00  0.00     0.036 A 
HETATM   44 Cl   UNK N   1      33.189  17.668   8.571  0.00  0.00    -0.084 Cl
ENDBRANCH  32  33
ENDBRANCH  27  31
ENDBRANCH   1  25
TORSDOF 14
ENDMDL
