REMARK  7 active torsions:
REMARK  status: ('A' for Active; 'I' for Inactive)
REMARK    1  A    between atoms: O_4  and  C_6 
REMARK    2  A    between atoms: O_4  and  C_12 
REMARK    3  A    between atoms: N_5  and  C_9 
REMARK    4  A    between atoms: C_6  and  C_7 
REMARK    5  A    between atoms: C_6  and  C_8 
REMARK    6  A    between atoms: C_7  and  C_9 
REMARK    7  A    between atoms: C_17  and  C_22 
ROOT
HETATM    1  C   UNK N   1       4.429  -1.825  -0.313  0.00  0.00     0.163 C 
ENDROOT
BRANCH   1   2
HETATM    2  O   UNK N   1       5.563  -1.092   0.021  0.00  0.00    -0.341 OA
BRANCH   2   3
HETATM    3  C   UNK N   1       5.599   0.261   0.117  0.00  0.00     0.069 A 
HETATM    4  C   UNK N   1       6.568   0.972  -0.599  0.00  0.00     0.037 A 
HETATM    5  C   UNK N   1       6.594   2.370  -0.551  0.00  0.00     0.019 A 
HETATM    6  C   UNK N   1       5.668   3.069   0.236  0.00  0.00     0.048 A 
HETATM    7  C   UNK N   1       4.724   2.355   0.984  0.00  0.00     0.019 A 
HETATM    8  C   UNK N   1       4.687   0.962   0.920  0.00  0.00     0.037 A 
BRANCH   6   9
HETATM    9  C   UNK N   1       5.683   4.570   0.256  0.00  0.00     0.417 C 
HETATM   10  F   UNK N   1       4.722   5.067   1.122  0.00  0.00    -0.166 F 
HETATM   11  F   UNK N   1       6.925   5.021   0.663  0.00  0.00    -0.166 F 
HETATM   12  F   UNK N   1       5.420   5.046  -1.016  0.00  0.00    -0.166 F 
ENDBRANCH   6   9
ENDBRANCH   2   3
ENDBRANCH   1   2
BRANCH   1  13
HETATM   13  C   UNK N   1       3.226  -1.547   0.581  0.00  0.00     0.056 C 
BRANCH  13  14
HETATM   14  C   UNK N   1       2.259  -0.654  -0.179  0.00  0.00     0.116 C 
BRANCH  14  15
HETATM   15  N   UNK N   1       1.032  -0.492   0.577  0.00  0.00    -0.425 N 
HETATM   16  C   UNK N   1       0.067  -1.419   0.013  0.00  0.00     0.139 C 
HETATM   17  H   UNK N   1       0.877   0.149   1.355  0.00  0.00     0.152 HD
ENDBRANCH  14  15
ENDBRANCH  13  14
ENDBRANCH   1  13
BRANCH   1  18
HETATM   18  C   UNK N   1       4.706  -3.302  -0.350  0.00  0.00    -0.029 A 
HETATM   19  C   UNK N   1       5.932  -3.829   0.086  0.00  0.00     0.010 A 
HETATM   20  C   UNK N   1       6.161  -5.208   0.041  0.00  0.00     0.001 A 
HETATM   21  C   UNK N   1       5.170  -6.067  -0.443  0.00  0.00     0.000 A 
HETATM   22  C   UNK N   1       3.949  -5.549  -0.883  0.00  0.00     0.001 A 
HETATM   23  C   UNK N   1       3.718  -4.172  -0.837  0.00  0.00     0.010 A 
ENDBRANCH   1  18
TORSDOF 7
