MODEL 1
REMARK VINA RESULT:      -6.6      0.000      0.000
REMARK  7 active torsions:
REMARK  status: ('A' for Active; 'I' for Inactive)
REMARK    1  A    between atoms: O_4  and  C_6 
REMARK    2  A    between atoms: O_4  and  C_12 
REMARK    3  A    between atoms: N_5  and  C_9 
REMARK    4  A    between atoms: C_6  and  C_7 
REMARK    5  A    between atoms: C_6  and  C_8 
REMARK    6  A    between atoms: C_7  and  C_9 
REMARK    7  A    between atoms: C_17  and  C_22 
ROOT
HETATM    1  C   UNK N   1      25.532  25.753  -6.674  0.00  0.00     0.163 C 
ENDROOT
BRANCH   1   2
HETATM    2  O   UNK N   1      25.538  24.665  -5.808  0.00  0.00    -0.341 OA
BRANCH   2   3
HETATM    3  C   UNK N   1      26.604  24.287  -5.059  0.00  0.00     0.069 A 
HETATM    4  C   UNK N   1      26.526  24.373  -3.665  0.00  0.00     0.037 A 
HETATM    5  C   UNK N   1      27.597  23.946  -2.873  0.00  0.00     0.019 A 
HETATM    6  C   UNK N   1      28.767  23.455  -3.468  0.00  0.00     0.048 A 
HETATM    7  C   UNK N   1      28.860  23.407  -4.864  0.00  0.00     0.019 A 
HETATM    8  C   UNK N   1      27.785  23.815  -5.653  0.00  0.00     0.037 A 
BRANCH   6   9
HETATM    9  C   UNK N   1      29.898  22.969  -2.609  0.00  0.00     0.417 C 
HETATM   10  F   UNK N   1      29.530  22.931  -1.274  0.00  0.00    -0.166 F 
HETATM   11  F   UNK N   1      30.274  21.698  -3.003  0.00  0.00    -0.166 F 
HETATM   12  F   UNK N   1      30.976  23.825  -2.746  0.00  0.00    -0.166 F 
ENDBRANCH   6   9
ENDBRANCH   2   3
ENDBRANCH   1   2
BRANCH   1  13
HETATM   13  C   UNK N   1      26.327  25.529  -7.956  0.00  0.00     0.056 C 
BRANCH  13  14
HETATM   14  C   UNK N   1      25.453  24.763  -8.935  0.00  0.00     0.116 C 
BRANCH  14  15
HETATM   15  N   UNK N   1      24.945  23.556  -8.311  0.00  0.00    -0.425 N 
HETATM   16  C   UNK N   1      25.807  22.469  -8.737  0.00  0.00     0.139 C 
HETATM   17  H   UNK N   1      24.138  23.486  -7.691  0.00  0.00     0.152 HD
ENDBRANCH  14  15
ENDBRANCH  13  14
ENDBRANCH   1  13
BRANCH   1  18
HETATM   18  C   UNK N   1      26.001  27.011  -5.998  0.00  0.00    -0.029 A 
HETATM   19  C   UNK N   1      25.358  27.512  -4.855  0.00  0.00     0.010 A 
HETATM   20  C   UNK N   1      25.817  28.684  -4.246  0.00  0.00     0.001 A 
HETATM   21  C   UNK N   1      26.917  29.365  -4.777  0.00  0.00     0.000 A 
HETATM   22  C   UNK N   1      27.559  28.875  -5.917  0.00  0.00     0.001 A 
HETATM   23  C   UNK N   1      27.103  27.703  -6.526  0.00  0.00     0.010 A 
ENDBRANCH   1  18
TORSDOF 7
ENDMDL
MODEL 2
REMARK VINA RESULT:      -6.6     18.101     22.032
REMARK  7 active torsions:
REMARK  status: ('A' for Active; 'I' for Inactive)
REMARK    1  A    between atoms: O_4  and  C_6 
REMARK    2  A    between atoms: O_4  and  C_12 
REMARK    3  A    between atoms: N_5  and  C_9 
REMARK    4  A    between atoms: C_6  and  C_7 
REMARK    5  A    between atoms: C_6  and  C_8 
REMARK    6  A    between atoms: C_7  and  C_9 
REMARK    7  A    between atoms: C_17  and  C_22 
ROOT
HETATM    1  C   UNK N   1      35.803  13.512  12.575  0.00  0.00     0.163 C 
ENDROOT
BRANCH   1   2
HETATM    2  O   UNK N   1      34.597  13.944  12.032  0.00  0.00    -0.341 OA
BRANCH   2   3
HETATM    3  C   UNK N   1      34.482  14.940  11.119  0.00  0.00     0.069 A 
HETATM    4  C   UNK N   1      35.319  16.057  11.216  0.00  0.00     0.037 A 
HETATM    5  C   UNK N   1      35.250  17.075  10.258  0.00  0.00     0.019 A 
HETATM    6  C   UNK N   1      34.323  16.998   9.209  0.00  0.00     0.048 A 
HETATM    7  C   UNK N   1      33.458  15.899   9.135  0.00  0.00     0.019 A 
HETATM    8  C   UNK N   1      33.542  14.876  10.080  0.00  0.00     0.037 A 
BRANCH   6   9
HETATM    9  C   UNK N   1      34.278  18.078   8.168  0.00  0.00     0.417 C 
HETATM   10  F   UNK N   1      35.228  19.055   8.421  0.00  0.00    -0.166 F 
HETATM   11  F   UNK N   1      34.518  17.536   6.919  0.00  0.00    -0.166 F 
HETATM   12  F   UNK N   1      33.026  18.667   8.175  0.00  0.00    -0.166 F 
ENDBRANCH   6   9
ENDBRANCH   2   3
ENDBRANCH   1   2
BRANCH   1  13
HETATM   13  C   UNK N   1      36.230  12.125  12.108  0.00  0.00     0.056 C 
BRANCH  13  14
HETATM   14  C   UNK N   1      37.256  12.287  10.999  0.00  0.00     0.116 C 
BRANCH  14  15
HETATM   15  N   UNK N   1      37.978  13.534  11.166  0.00  0.00    -0.425 N 
HETATM   16  C   UNK N   1      38.203  14.070   9.836  0.00  0.00     0.139 C 
HETATM   17  H   UNK N   1      38.271  13.954  12.049  0.00  0.00     0.152 HD
ENDBRANCH  14  15
ENDBRANCH  13  14
ENDBRANCH   1  13
BRANCH   1  18
HETATM   18  C   UNK N   1      35.792  13.563  14.077  0.00  0.00    -0.029 A 
HETATM   19  C   UNK N   1      36.689  14.375  14.789  0.00  0.00     0.010 A 
HETATM   20  C   UNK N   1      36.656  14.404  16.187  0.00  0.00     0.001 A 
HETATM   21  C   UNK N   1      35.731  13.619  16.881  0.00  0.00     0.000 A 
HETATM   22  C   UNK N   1      34.838  12.804  16.180  0.00  0.00     0.001 A 
HETATM   23  C   UNK N   1      34.869  12.776  14.783  0.00  0.00     0.010 A 
ENDBRANCH   1  18
TORSDOF 7
ENDMDL
MODEL 3
REMARK VINA RESULT:      -6.5     18.154     22.136
REMARK  7 active torsions:
REMARK  status: ('A' for Active; 'I' for Inactive)
REMARK    1  A    between atoms: O_4  and  C_6 
REMARK    2  A    between atoms: O_4  and  C_12 
REMARK    3  A    between atoms: N_5  and  C_9 
REMARK    4  A    between atoms: C_6  and  C_7 
REMARK    5  A    between atoms: C_6  and  C_8 
REMARK    6  A    between atoms: C_7  and  C_9 
REMARK    7  A    between atoms: C_17  and  C_22 
ROOT
HETATM    1  C   UNK N   1      35.515  13.315  12.536  0.00  0.00     0.163 C 
ENDROOT
BRANCH   1   2
HETATM    2  O   UNK N   1      34.397  14.040  12.137  0.00  0.00    -0.341 OA
BRANCH   2   3
HETATM    3  C   UNK N   1      34.407  14.991  11.169  0.00  0.00     0.069 A 
HETATM    4  C   UNK N   1      33.526  14.876  10.088  0.00  0.00     0.037 A 
HETATM    5  C   UNK N   1      33.487  15.870   9.104  0.00  0.00     0.019 A 
HETATM    6  C   UNK N   1      34.349  16.973   9.176  0.00  0.00     0.048 A 
HETATM    7  C   UNK N   1      35.258  17.066  10.237  0.00  0.00     0.019 A 
HETATM    8  C   UNK N   1      35.282  16.085  11.228  0.00  0.00     0.037 A 
BRANCH   6   9
HETATM    9  C   UNK N   1      34.278  18.050   8.132  0.00  0.00     0.417 C 
HETATM   10  F   UNK N   1      33.040  18.673   8.142  0.00  0.00    -0.166 F 
HETATM   11  F   UNK N   1      35.256  18.998   8.370  0.00  0.00    -0.166 F 
HETATM   12  F   UNK N   1      34.481  17.489   6.884  0.00  0.00    -0.166 F 
ENDBRANCH   6   9
ENDBRANCH   2   3
ENDBRANCH   1   2
BRANCH   1  13
HETATM   13  C   UNK N   1      36.021  12.330  11.489  0.00  0.00     0.056 C 
BRANCH  13  14
HETATM   14  C   UNK N   1      37.541  12.358  11.499  0.00  0.00     0.116 C 
BRANCH  14  15
HETATM   15  N   UNK N   1      38.017  13.671  11.111  0.00  0.00    -0.425 N 
HETATM   16  C   UNK N   1      37.845  13.771   9.673  0.00  0.00     0.139 C 
HETATM   17  H   UNK N   1      38.399  14.387  11.729  0.00  0.00     0.152 HD
ENDBRANCH  14  15
ENDBRANCH  13  14
ENDBRANCH   1  13
BRANCH   1  18
HETATM   18  C   UNK N   1      35.285  12.601  13.839  0.00  0.00    -0.029 A 
HETATM   19  C   UNK N   1      35.901  13.026  15.027  0.00  0.00     0.010 A 
HETATM   20  C   UNK N   1      35.667  12.342  16.224  0.00  0.00     0.001 A 
HETATM   21  C   UNK N   1      34.821  11.229  16.242  0.00  0.00     0.000 A 
HETATM   22  C   UNK N   1      34.208  10.798  15.063  0.00  0.00     0.001 A 
HETATM   23  C   UNK N   1      34.439  11.481  13.866  0.00  0.00     0.010 A 
ENDBRANCH   1  18
TORSDOF 7
ENDMDL
MODEL 4
REMARK VINA RESULT:      -6.3     18.171     22.050
REMARK  7 active torsions:
REMARK  status: ('A' for Active; 'I' for Inactive)
REMARK    1  A    between atoms: O_4  and  C_6 
REMARK    2  A    between atoms: O_4  and  C_12 
REMARK    3  A    between atoms: N_5  and  C_9 
REMARK    4  A    between atoms: C_6  and  C_7 
REMARK    5  A    between atoms: C_6  and  C_8 
REMARK    6  A    between atoms: C_7  and  C_9 
REMARK    7  A    between atoms: C_17  and  C_22 
ROOT
HETATM    1  C   UNK N   1      35.705  13.438  12.576  0.00  0.00     0.163 C 
ENDROOT
BRANCH   1   2
HETATM    2  O   UNK N   1      34.534  13.959  12.036  0.00  0.00    -0.341 OA
BRANCH   2   3
HETATM    3  C   UNK N   1      34.493  14.940  11.100  0.00  0.00     0.069 A 
HETATM    4  C   UNK N   1      33.560  14.856  10.061  0.00  0.00     0.037 A 
HETATM    5  C   UNK N   1      33.470  15.880   9.111  0.00  0.00     0.019 A 
HETATM    6  C   UNK N   1      34.331  16.984   9.176  0.00  0.00     0.048 A 
HETATM    7  C   UNK N   1      35.292  17.048  10.193  0.00  0.00     0.019 A 
HETATM    8  C   UNK N   1      35.368  16.036  11.150  0.00  0.00     0.037 A 
BRANCH   6   9
HETATM    9  C   UNK N   1      34.205  18.093   8.172  0.00  0.00     0.417 C 
HETATM   10  F   UNK N   1      34.427  17.628   6.885  0.00  0.00    -0.166 F 
HETATM   11  F   UNK N   1      32.938  18.641   8.235  0.00  0.00    -0.166 F 
HETATM   12  F   UNK N   1      35.140  19.073   8.455  0.00  0.00    -0.166 F 
ENDBRANCH   6   9
ENDBRANCH   2   3
ENDBRANCH   1   2
BRANCH   1  13
HETATM   13  C   UNK N   1      36.022  12.020  12.116  0.00  0.00     0.056 C 
BRANCH  13  14
HETATM   14  C   UNK N   1      34.934  11.572  11.155  0.00  0.00     0.116 C 
BRANCH  14  15
HETATM   15  N   UNK N   1      33.849  10.948  11.888  0.00  0.00    -0.425 N 
HETATM   16  C   UNK N   1      33.482   9.750  11.154  0.00  0.00     0.139 C 
HETATM   17  H   UNK N   1      33.425  11.286  12.752  0.00  0.00     0.152 HD
ENDBRANCH  14  15
ENDBRANCH  13  14
ENDBRANCH   1  13
BRANCH   1  18
HETATM   18  C   UNK N   1      35.706  13.499  14.078  0.00  0.00    -0.029 A 
HETATM   19  C   UNK N   1      36.659  14.254  14.781  0.00  0.00     0.010 A 
HETATM   20  C   UNK N   1      36.634  14.292  16.179  0.00  0.00     0.001 A 
HETATM   21  C   UNK N   1      35.661  13.575  16.882  0.00  0.00     0.000 A 
HETATM   22  C   UNK N   1      34.713  12.818  16.190  0.00  0.00     0.001 A 
HETATM   23  C   UNK N   1      34.735  12.780  14.793  0.00  0.00     0.010 A 
ENDBRANCH   1  18
TORSDOF 7
ENDMDL
MODEL 5
REMARK VINA RESULT:      -6.1     12.567     15.176
REMARK  7 active torsions:
REMARK  status: ('A' for Active; 'I' for Inactive)
REMARK    1  A    between atoms: O_4  and  C_6 
REMARK    2  A    between atoms: O_4  and  C_12 
REMARK    3  A    between atoms: N_5  and  C_9 
REMARK    4  A    between atoms: C_6  and  C_7 
REMARK    5  A    between atoms: C_6  and  C_8 
REMARK    6  A    between atoms: C_7  and  C_9 
REMARK    7  A    between atoms: C_17  and  C_22 
ROOT
HETATM    1  C   UNK N   1      31.489  16.614   5.456  0.00  0.00     0.163 C 
ENDROOT
BRANCH   1   2
HETATM    2  O   UNK N   1      30.154  16.533   5.839  0.00  0.00    -0.341 OA
BRANCH   2   3
HETATM    3  C   UNK N   1      29.328  17.602   5.965  0.00  0.00     0.069 A 
HETATM    4  C   UNK N   1      28.933  18.014   7.242  0.00  0.00     0.037 A 
HETATM    5  C   UNK N   1      28.119  19.141   7.398  0.00  0.00     0.019 A 
HETATM    6  C   UNK N   1      27.670  19.850   6.275  0.00  0.00     0.048 A 
HETATM    7  C   UNK N   1      28.032  19.413   4.995  0.00  0.00     0.019 A 
HETATM    8  C   UNK N   1      28.860  18.301   4.843  0.00  0.00     0.037 A 
BRANCH   6   9
HETATM    9  C   UNK N   1      26.823  21.077   6.454  0.00  0.00     0.417 C 
HETATM   10  F   UNK N   1      25.833  21.145   5.487  0.00  0.00    -0.166 F 
HETATM   11  F   UNK N   1      26.227  21.059   7.701  0.00  0.00    -0.166 F 
HETATM   12  F   UNK N   1      27.622  22.202   6.347  0.00  0.00    -0.166 F 
ENDBRANCH   6   9
ENDBRANCH   2   3
ENDBRANCH   1   2
BRANCH   1  13
HETATM   13  C   UNK N   1      31.961  15.443   4.602  0.00  0.00     0.056 C 
BRANCH  13  14
HETATM   14  C   UNK N   1      30.792  14.493   4.402  0.00  0.00     0.116 C 
BRANCH  14  15
HETATM   15  N   UNK N   1      30.861  13.410   5.364  0.00  0.00    -0.425 N 
HETATM   16  C   UNK N   1      32.242  12.962   5.393  0.00  0.00     0.139 C 
HETATM   17  H   UNK N   1      30.088  13.036   5.915  0.00  0.00     0.152 HD
ENDBRANCH  14  15
ENDBRANCH  13  14
ENDBRANCH   1  13
BRANCH   1  18
HETATM   18  C   UNK N   1      32.403  16.783   6.638  0.00  0.00    -0.029 A 
HETATM   19  C   UNK N   1      33.443  17.726   6.631  0.00  0.00     0.010 A 
HETATM   20  C   UNK N   1      34.277  17.862   7.746  0.00  0.00     0.001 A 
HETATM   21  C   UNK N   1      34.079  17.056   8.871  0.00  0.00     0.000 A 
HETATM   22  C   UNK N   1      33.048  16.113   8.883  0.00  0.00     0.001 A 
HETATM   23  C   UNK N   1      32.213  15.977   7.771  0.00  0.00     0.010 A 
ENDBRANCH   1  18
TORSDOF 7
ENDMDL
MODEL 6
REMARK VINA RESULT:      -5.9     20.932     24.309
REMARK  7 active torsions:
REMARK  status: ('A' for Active; 'I' for Inactive)
REMARK    1  A    between atoms: O_4  and  C_6 
REMARK    2  A    between atoms: O_4  and  C_12 
REMARK    3  A    between atoms: N_5  and  C_9 
REMARK    4  A    between atoms: C_6  and  C_7 
REMARK    5  A    between atoms: C_6  and  C_8 
REMARK    6  A    between atoms: C_7  and  C_9 
REMARK    7  A    between atoms: C_17  and  C_22 
ROOT
HETATM    1  C   UNK N   1      35.338  13.160  12.455  0.00  0.00     0.163 C 
ENDROOT
BRANCH   1   2
HETATM    2  O   UNK N   1      34.589  13.305  13.618  0.00  0.00    -0.341 OA
BRANCH   2   3
HETATM    3  C   UNK N   1      34.716  12.515  14.714  0.00  0.00     0.069 A 
HETATM    4  C   UNK N   1      34.319  11.175  14.642  0.00  0.00     0.037 A 
HETATM    5  C   UNK N   1      34.484  10.332  15.745  0.00  0.00     0.019 A 
HETATM    6  C   UNK N   1      35.023  10.827  16.941  0.00  0.00     0.048 A 
HETATM    7  C   UNK N   1      35.383  12.177  17.025  0.00  0.00     0.019 A 
HETATM    8  C   UNK N   1      35.236  13.013  15.918  0.00  0.00     0.037 A 
BRANCH   6   9
HETATM    9  C   UNK N   1      35.226   9.906  18.109  0.00  0.00     0.417 C 
HETATM   10  F   UNK N   1      34.433   8.775  17.998  0.00  0.00    -0.166 F 
HETATM   11  F   UNK N   1      36.551   9.515  18.173  0.00  0.00    -0.166 F 
HETATM   12  F   UNK N   1      34.890  10.568  19.276  0.00  0.00    -0.166 F 
ENDBRANCH   6   9
ENDBRANCH   2   3
ENDBRANCH   1   2
BRANCH   1  13
HETATM   13  C   UNK N   1      36.831  12.975  12.699  0.00  0.00     0.056 C 
BRANCH  13  14
HETATM   14  C   UNK N   1      37.458  12.411  11.434  0.00  0.00     0.116 C 
BRANCH  14  15
HETATM   15  N   UNK N   1      38.560  13.251  11.007  0.00  0.00    -0.425 N 
HETATM   16  C   UNK N   1      38.242  13.711   9.667  0.00  0.00     0.139 C 
HETATM   17  H   UNK N   1      39.397  13.477  11.545  0.00  0.00     0.152 HD
ENDBRANCH  14  15
ENDBRANCH  13  14
ENDBRANCH   1  13
BRANCH   1  18
HETATM   18  C   UNK N   1      35.115  14.297  11.498  0.00  0.00    -0.029 A 
HETATM   19  C   UNK N   1      35.654  15.571  11.736  0.00  0.00     0.010 A 
HETATM   20  C   UNK N   1      35.431  16.611  10.827  0.00  0.00     0.001 A 
HETATM   21  C   UNK N   1      34.666  16.385   9.679  0.00  0.00     0.000 A 
HETATM   22  C   UNK N   1      34.122  15.120   9.438  0.00  0.00     0.001 A 
HETATM   23  C   UNK N   1      34.346  14.080  10.344  0.00  0.00     0.010 A 
ENDBRANCH   1  18
TORSDOF 7
ENDMDL
MODEL 7
REMARK VINA RESULT:      -5.9     11.774     13.798
REMARK  7 active torsions:
REMARK  status: ('A' for Active; 'I' for Inactive)
REMARK    1  A    between atoms: O_4  and  C_6 
REMARK    2  A    between atoms: O_4  and  C_12 
REMARK    3  A    between atoms: N_5  and  C_9 
REMARK    4  A    between atoms: C_6  and  C_7 
REMARK    5  A    between atoms: C_6  and  C_8 
REMARK    6  A    between atoms: C_7  and  C_9 
REMARK    7  A    between atoms: C_17  and  C_22 
ROOT
HETATM    1  C   UNK N   1      28.449  17.143   5.182  0.00  0.00     0.163 C 
ENDROOT
BRANCH   1   2
HETATM    2  O   UNK N   1      29.760  17.146   4.717  0.00  0.00    -0.341 OA
BRANCH   2   3
HETATM    3  C   UNK N   1      30.854  17.249   5.513  0.00  0.00     0.069 A 
HETATM    4  C   UNK N   1      30.700  17.175   6.901  0.00  0.00     0.037 A 
HETATM    5  C   UNK N   1      31.820  17.232   7.738  0.00  0.00     0.019 A 
HETATM    6  C   UNK N   1      33.102  17.390   7.195  0.00  0.00     0.048 A 
HETATM    7  C   UNK N   1      33.252  17.504   5.808  0.00  0.00     0.019 A 
HETATM    8  C   UNK N   1      32.137  17.428   4.973  0.00  0.00     0.037 A 
BRANCH   6   9
HETATM    9  C   UNK N   1      34.301  17.418   8.099  0.00  0.00     0.417 C 
HETATM   10  F   UNK N   1      34.988  18.615   7.980  0.00  0.00    -0.166 F 
HETATM   11  F   UNK N   1      33.901  17.263   9.413  0.00  0.00    -0.166 F 
HETATM   12  F   UNK N   1      35.153  16.383   7.757  0.00  0.00    -0.166 F 
ENDBRANCH   6   9
ENDBRANCH   2   3
ENDBRANCH   1   2
BRANCH   1  13
HETATM   13  C   UNK N   1      27.508  16.253   4.378  0.00  0.00     0.056 C 
BRANCH  13  14
HETATM   14  C   UNK N   1      28.297  15.626   3.240  0.00  0.00     0.116 C 
BRANCH  14  15
HETATM   15  N   UNK N   1      28.982  14.436   3.706  0.00  0.00    -0.425 N 
HETATM   16  C   UNK N   1      30.114  14.230   2.820  0.00  0.00     0.139 C 
HETATM   17  H   UNK N   1      28.719  13.855   4.502  0.00  0.00     0.152 HD
ENDBRANCH  14  15
ENDBRANCH  13  14
ENDBRANCH   1  13
BRANCH   1  18
HETATM   18  C   UNK N   1      27.883  18.532   5.274  0.00  0.00    -0.029 A 
HETATM   19  C   UNK N   1      27.790  19.206   6.503  0.00  0.00     0.010 A 
HETATM   20  C   UNK N   1      27.259  20.499   6.557  0.00  0.00     0.001 A 
HETATM   21  C   UNK N   1      26.815  21.124   5.388  0.00  0.00     0.000 A 
HETATM   22  C   UNK N   1      26.900  20.457   4.163  0.00  0.00     0.001 A 
HETATM   23  C   UNK N   1      27.431  19.166   4.106  0.00  0.00     0.010 A 
ENDBRANCH   1  18
TORSDOF 7
ENDMDL
MODEL 8
REMARK VINA RESULT:      -5.9     21.189     24.031
REMARK  7 active torsions:
REMARK  status: ('A' for Active; 'I' for Inactive)
REMARK    1  A    between atoms: O_4  and  C_6 
REMARK    2  A    between atoms: O_4  and  C_12 
REMARK    3  A    between atoms: N_5  and  C_9 
REMARK    4  A    between atoms: C_6  and  C_7 
REMARK    5  A    between atoms: C_6  and  C_8 
REMARK    6  A    between atoms: C_7  and  C_9 
REMARK    7  A    between atoms: C_17  and  C_22 
ROOT
HETATM    1  C   UNK N   1      35.405  12.593  14.792  0.00  0.00     0.163 C 
ENDROOT
BRANCH   1   2
HETATM    2  O   UNK N   1      34.935  13.235  13.651  0.00  0.00    -0.341 OA
BRANCH   2   3
HETATM    3  C   UNK N   1      35.648  13.380  12.506  0.00  0.00     0.069 A 
HETATM    4  C   UNK N   1      36.883  12.735  12.382  0.00  0.00     0.037 A 
HETATM    5  C   UNK N   1      37.613  12.833  11.193  0.00  0.00     0.019 A 
HETATM    6  C   UNK N   1      37.128  13.601  10.125  0.00  0.00     0.048 A 
HETATM    7  C   UNK N   1      35.911  14.280  10.264  0.00  0.00     0.019 A 
HETATM    8  C   UNK N   1      35.174  14.165  11.443  0.00  0.00     0.037 A 
BRANCH   6   9
HETATM    9  C   UNK N   1      37.902  13.675   8.842  0.00  0.00     0.417 C 
HETATM   10  F   UNK N   1      37.106  14.133   7.804  0.00  0.00    -0.166 F 
HETATM   11  F   UNK N   1      38.976  14.533   8.991  0.00  0.00    -0.166 F 
HETATM   12  F   UNK N   1      38.369  12.414   8.517  0.00  0.00    -0.166 F 
ENDBRANCH   6   9
ENDBRANCH   2   3
ENDBRANCH   1   2
BRANCH   1  13
HETATM   13  C   UNK N   1      34.442  11.558  15.361  0.00  0.00     0.056 C 
BRANCH  13  14
HETATM   14  C   UNK N   1      34.453  10.340  14.452  0.00  0.00     0.116 C 
BRANCH  14  15
HETATM   15  N   UNK N   1      33.571  10.555  13.321  0.00  0.00    -0.425 N 
HETATM   16  C   UNK N   1      34.197   9.920  12.175  0.00  0.00     0.139 C 
HETATM   17  H   UNK N   1      32.682  11.056  13.329  0.00  0.00     0.152 HD
ENDBRANCH  14  15
ENDBRANCH  13  14
ENDBRANCH   1  13
BRANCH   1  18
HETATM   18  C   UNK N   1      35.796  13.570  15.865  0.00  0.00    -0.029 A 
HETATM   19  C   UNK N   1      36.829  14.500  15.669  0.00  0.00     0.010 A 
HETATM   20  C   UNK N   1      37.170  15.398  16.685  0.00  0.00     0.001 A 
HETATM   21  C   UNK N   1      36.485  15.370  17.903  0.00  0.00     0.000 A 
HETATM   22  C   UNK N   1      35.458  14.444  18.107  0.00  0.00     0.001 A 
HETATM   23  C   UNK N   1      35.115  13.548  17.092  0.00  0.00     0.010 A 
ENDBRANCH   1  18
TORSDOF 7
ENDMDL
MODEL 9
REMARK VINA RESULT:      -5.8     27.117     30.754
REMARK  7 active torsions:
REMARK  status: ('A' for Active; 'I' for Inactive)
REMARK    1  A    between atoms: O_4  and  C_6 
REMARK    2  A    between atoms: O_4  and  C_12 
REMARK    3  A    between atoms: N_5  and  C_9 
REMARK    4  A    between atoms: C_6  and  C_7 
REMARK    5  A    between atoms: C_6  and  C_8 
REMARK    6  A    between atoms: C_7  and  C_9 
REMARK    7  A    between atoms: C_17  and  C_22 
ROOT
HETATM    1  C   UNK N   1      34.496   8.553  21.427  0.00  0.00     0.163 C 
ENDROOT
BRANCH   1   2
HETATM    2  O   UNK N   1      35.441   8.891  20.464  0.00  0.00    -0.341 OA
BRANCH   2   3
HETATM    3  C   UNK N   1      35.349   9.972  19.648  0.00  0.00     0.069 A 
HETATM    4  C   UNK N   1      35.313  11.252  20.211  0.00  0.00     0.037 A 
HETATM    5  C   UNK N   1      35.265  12.382  19.387  0.00  0.00     0.019 A 
HETATM    6  C   UNK N   1      35.226  12.241  17.993  0.00  0.00     0.048 A 
HETATM    7  C   UNK N   1      35.222  10.958  17.432  0.00  0.00     0.019 A 
HETATM    8  C   UNK N   1      35.289   9.833  18.254  0.00  0.00     0.037 A 
BRANCH   6   9
HETATM    9  C   UNK N   1      35.208  13.459  17.116  0.00  0.00     0.417 C 
HETATM   10  F   UNK N   1      36.260  13.440  16.214  0.00  0.00    -0.166 F 
HETATM   11  F   UNK N   1      34.019  13.513  16.413  0.00  0.00    -0.166 F 
HETATM   12  F   UNK N   1      35.322  14.590  17.904  0.00  0.00    -0.166 F 
ENDBRANCH   6   9
ENDBRANCH   2   3
ENDBRANCH   1   2
BRANCH   1  13
HETATM   13  C   UNK N   1      35.000   7.558  22.466  0.00  0.00     0.056 C 
BRANCH  13  14
HETATM   14  C   UNK N   1      35.362   8.323  23.729  0.00  0.00     0.116 C 
BRANCH  14  15
HETATM   15  N   UNK N   1      34.961   9.711  23.602  0.00  0.00    -0.425 N 
HETATM   16  C   UNK N   1      34.152  10.022  24.767  0.00  0.00     0.139 C 
HETATM   17  H   UNK N   1      35.201  10.346  22.841  0.00  0.00     0.152 HD
ENDBRANCH  14  15
ENDBRANCH  13  14
ENDBRANCH   1  13
BRANCH   1  18
HETATM   18  C   UNK N   1      33.223   8.046  20.811  0.00  0.00    -0.029 A 
HETATM   19  C   UNK N   1      32.035   8.793  20.862  0.00  0.00     0.010 A 
HETATM   20  C   UNK N   1      30.865   8.296  20.279  0.00  0.00     0.001 A 
HETATM   21  C   UNK N   1      30.873   7.050  19.645  0.00  0.00     0.000 A 
HETATM   22  C   UNK N   1      32.050   6.299  19.595  0.00  0.00     0.001 A 
HETATM   23  C   UNK N   1      33.220   6.795  20.175  0.00  0.00     0.010 A 
ENDBRANCH   1  18
TORSDOF 7
ENDMDL
