MODEL 1
REMARK VINA RESULT:      -6.5      0.000      0.000
REMARK  6 active torsions:
REMARK  status: ('A' for Active; 'I' for Inactive)
REMARK    1  A    between atoms: O_1  and  C_11 
REMARK    2  A    between atoms: O_1  and  C_13 
REMARK    3  A    between atoms: N_3  and  C_4 
REMARK    4  A    between atoms: N_3  and  C_10 
REMARK    5  A    between atoms: C_10  and  C_11 
REMARK    6  A    between atoms: C_13  and  C_14 
ROOT
HETATM    1  C   UNK N   1      34.968  16.131   9.751  0.00  0.00     0.145 C 
HETATM    2  C   UNK N   1      33.836  15.122   9.779  0.00  0.00     0.042 C 
ENDROOT
BRANCH   1   3
HETATM    3  O   UNK N   1      34.458  17.403   9.664  0.00  0.00    -0.311 OA
BRANCH   3   4
HETATM    4  C   UNK N   1      34.430  18.112   8.514  0.00  0.00     0.293 C 
HETATM    5  O   UNK N   1      35.215  19.037   8.335  0.00  0.00    -0.259 OA
BRANCH   4   6
HETATM    6  C   UNK N   1      33.415  17.787   7.496  0.00  0.00     0.039 A 
HETATM    7  C   UNK N   1      33.815  17.571   6.167  0.00  0.00     0.017 A 
HETATM    8  C   UNK N   1      32.877  17.202   5.200  0.00  0.00     0.001 A 
HETATM    9  C   UNK N   1      31.535  17.047   5.553  0.00  0.00     0.000 A 
HETATM   10  C   UNK N   1      31.129  17.265   6.873  0.00  0.00     0.001 A 
HETATM   11  C   UNK N   1      32.067  17.629   7.844  0.00  0.00     0.017 A 
ENDBRANCH   4   6
ENDBRANCH   3   4
ENDBRANCH   1   3
BRANCH   1  12
HETATM   12  C   UNK N   1      35.755  16.082  11.050  0.00  0.00     0.146 C 
BRANCH  12  13
HETATM   13  N   UNK N   1      36.804  15.075  11.027  0.00  0.00    -0.415 N 
HETATM   14  H   UNK N   1      37.658  15.097  10.468  0.00  0.00     0.153 HD
BRANCH  13  15
HETATM   15  C   UNK N   1      36.398  14.029  11.956  0.00  0.00     0.076 C 
HETATM   16  C   UNK N   1      36.317  14.564  13.391  0.00  0.00     0.024 C 
HETATM   17  C   UNK N   1      35.845  13.455  14.327  0.00  0.00     0.002 C 
HETATM   18  C   UNK N   1      36.809  12.272  14.266  0.00  0.00     0.000 C 
HETATM   19  C   UNK N   1      36.926  11.753  12.833  0.00  0.00     0.002 C 
HETATM   20  C   UNK N   1      37.384  12.869  11.897  0.00  0.00     0.024 C 
ENDBRANCH  13  15
ENDBRANCH  12  13
ENDBRANCH   1  12
TORSDOF 6
ENDMDL
MODEL 2
REMARK VINA RESULT:      -6.5     14.810     18.257
REMARK  6 active torsions:
REMARK  status: ('A' for Active; 'I' for Inactive)
REMARK    1  A    between atoms: O_1  and  C_11 
REMARK    2  A    between atoms: O_1  and  C_13 
REMARK    3  A    between atoms: N_3  and  C_4 
REMARK    4  A    between atoms: N_3  and  C_10 
REMARK    5  A    between atoms: C_10  and  C_11 
REMARK    6  A    between atoms: C_13  and  C_14 
ROOT
HETATM    1  C   UNK N   1      29.749  24.259  -4.308  0.00  0.00     0.145 C 
HETATM    2  C   UNK N   1      30.445  25.442  -3.661  0.00  0.00     0.042 C 
ENDROOT
BRANCH   1   3
HETATM    3  O   UNK N   1      29.421  23.330  -3.353  0.00  0.00    -0.311 OA
BRANCH   3   4
HETATM    4  C   UNK N   1      30.340  22.696  -2.592  0.00  0.00     0.293 C 
HETATM    5  O   UNK N   1      30.427  22.936  -1.393  0.00  0.00    -0.259 OA
BRANCH   4   6
HETATM    6  C   UNK N   1      31.266  21.744  -3.230  0.00  0.00     0.039 A 
HETATM    7  C   UNK N   1      32.601  21.684  -2.799  0.00  0.00     0.017 A 
HETATM    8  C   UNK N   1      33.478  20.746  -3.348  0.00  0.00     0.001 A 
HETATM    9  C   UNK N   1      33.029  19.863  -4.332  0.00  0.00     0.000 A 
HETATM   10  C   UNK N   1      31.703  19.919  -4.770  0.00  0.00     0.001 A 
HETATM   11  C   UNK N   1      30.821  20.854  -4.217  0.00  0.00     0.017 A 
ENDBRANCH   4   6
ENDBRANCH   3   4
ENDBRANCH   1   3
BRANCH   1  12
HETATM   12  C   UNK N   1      28.436  24.697  -4.938  0.00  0.00     0.146 C 
BRANCH  12  13
HETATM   13  N   UNK N   1      27.279  24.211  -4.203  0.00  0.00    -0.415 N 
HETATM   14  H   UNK N   1      27.178  23.299  -3.757  0.00  0.00     0.153 HD
BRANCH  13  15
HETATM   15  C   UNK N   1      26.290  25.282  -4.229  0.00  0.00     0.076 C 
HETATM   16  C   UNK N   1      25.941  25.678  -5.668  0.00  0.00     0.024 C 
HETATM   17  C   UNK N   1      24.872  26.767  -5.656  0.00  0.00     0.002 C 
HETATM   18  C   UNK N   1      25.374  27.986  -4.888  0.00  0.00     0.000 C 
HETATM   19  C   UNK N   1      25.759  27.596  -3.461  0.00  0.00     0.002 C 
HETATM   20  C   UNK N   1      26.818  26.496  -3.476  0.00  0.00     0.024 C 
ENDBRANCH  13  15
ENDBRANCH  12  13
ENDBRANCH   1  12
TORSDOF 6
ENDMDL
MODEL 3
REMARK VINA RESULT:      -6.4      5.704      8.714
REMARK  6 active torsions:
REMARK  status: ('A' for Active; 'I' for Inactive)
REMARK    1  A    between atoms: O_1  and  C_11 
REMARK    2  A    between atoms: O_1  and  C_13 
REMARK    3  A    between atoms: N_3  and  C_4 
REMARK    4  A    between atoms: N_3  and  C_10 
REMARK    5  A    between atoms: C_10  and  C_11 
REMARK    6  A    between atoms: C_13  and  C_14 
ROOT
HETATM    1  C   UNK N   1      29.511  17.508   9.188  0.00  0.00     0.145 C 
HETATM    2  C   UNK N   1      29.215  16.765  10.477  0.00  0.00     0.042 C 
ENDROOT
BRANCH   1   3
HETATM    3  O   UNK N   1      30.393  16.784   8.424  0.00  0.00    -0.311 OA
BRANCH   3   4
HETATM    4  C   UNK N   1      31.548  17.293   7.945  0.00  0.00     0.293 C 
HETATM    5  O   UNK N   1      32.360  17.813   8.703  0.00  0.00    -0.259 OA
BRANCH   4   6
HETATM    6  C   UNK N   1      31.802  17.256   6.494  0.00  0.00     0.039 A 
HETATM    7  C   UNK N   1      30.728  17.065   5.610  0.00  0.00     0.017 A 
HETATM    8  C   UNK N   1      30.938  17.090   4.229  0.00  0.00     0.001 A 
HETATM    9  C   UNK N   1      32.223  17.302   3.723  0.00  0.00     0.000 A 
HETATM   10  C   UNK N   1      33.298  17.488   4.597  0.00  0.00     0.001 A 
HETATM   11  C   UNK N   1      33.088  17.471   5.979  0.00  0.00     0.017 A 
ENDBRANCH   4   6
ENDBRANCH   3   4
ENDBRANCH   1   3
BRANCH   1  12
HETATM   12  C   UNK N   1      28.248  17.647   8.354  0.00  0.00     0.146 C 
BRANCH  12  13
HETATM   13  N   UNK N   1      27.626  18.953   8.501  0.00  0.00    -0.415 N 
HETATM   14  H   UNK N   1      27.156  19.315   9.331  0.00  0.00     0.153 HD
BRANCH  13  15
HETATM   15  C   UNK N   1      27.806  19.645   7.231  0.00  0.00     0.076 C 
HETATM   16  C   UNK N   1      26.792  20.784   7.072  0.00  0.00     0.024 C 
HETATM   17  C   UNK N   1      27.040  21.513   5.755  0.00  0.00     0.002 C 
HETATM   18  C   UNK N   1      26.917  20.540   4.585  0.00  0.00     0.000 C 
HETATM   19  C   UNK N   1      27.899  19.380   4.751  0.00  0.00     0.002 C 
HETATM   20  C   UNK N   1      27.658  18.662   6.077  0.00  0.00     0.024 C 
ENDBRANCH  13  15
ENDBRANCH  12  13
ENDBRANCH   1  12
TORSDOF 6
ENDMDL
MODEL 4
REMARK VINA RESULT:      -6.3      3.227      6.368
REMARK  6 active torsions:
REMARK  status: ('A' for Active; 'I' for Inactive)
REMARK    1  A    between atoms: O_1  and  C_11 
REMARK    2  A    between atoms: O_1  and  C_13 
REMARK    3  A    between atoms: N_3  and  C_4 
REMARK    4  A    between atoms: N_3  and  C_10 
REMARK    5  A    between atoms: C_10  and  C_11 
REMARK    6  A    between atoms: C_13  and  C_14 
ROOT
HETATM    1  C   UNK N   1      33.680  16.184   9.066  0.00  0.00     0.145 C 
HETATM    2  C   UNK N   1      34.052  14.978   9.908  0.00  0.00     0.042 C 
ENDROOT
BRANCH   1   3
HETATM    3  O   UNK N   1      34.358  16.148   7.873  0.00  0.00    -0.311 OA
BRANCH   3   4
HETATM    4  C   UNK N   1      34.286  17.132   6.951  0.00  0.00     0.293 C 
HETATM    5  O   UNK N   1      34.558  18.289   7.253  0.00  0.00    -0.259 OA
BRANCH   4   6
HETATM    6  C   UNK N   1      33.834  16.806   5.587  0.00  0.00     0.039 A 
HETATM    7  C   UNK N   1      34.116  15.539   5.050  0.00  0.00     0.017 A 
HETATM    8  C   UNK N   1      33.643  15.188   3.784  0.00  0.00     0.001 A 
HETATM    9  C   UNK N   1      32.886  16.100   3.045  0.00  0.00     0.000 A 
HETATM   10  C   UNK N   1      32.604  17.364   3.570  0.00  0.00     0.001 A 
HETATM   11  C   UNK N   1      33.072  17.715   4.841  0.00  0.00     0.017 A 
ENDBRANCH   4   6
ENDBRANCH   3   4
ENDBRANCH   1   3
BRANCH   1  12
HETATM   12  C   UNK N   1      32.202  16.147   8.711  0.00  0.00     0.146 C 
BRANCH  12  13
HETATM   13  N   UNK N   1      31.491  17.331   9.166  0.00  0.00    -0.415 N 
HETATM   14  H   UNK N   1      31.601  17.800  10.065  0.00  0.00     0.153 HD
BRANCH  13  15
HETATM   15  C   UNK N   1      30.592  17.716   8.086  0.00  0.00     0.076 C 
HETATM   16  C   UNK N   1      29.208  18.095   8.627  0.00  0.00     0.024 C 
HETATM   17  C   UNK N   1      28.309  18.536   7.476  0.00  0.00     0.002 C 
HETATM   18  C   UNK N   1      28.178  17.412   6.452  0.00  0.00     0.000 C 
HETATM   19  C   UNK N   1      29.555  17.002   5.931  0.00  0.00     0.002 C 
HETATM   20  C   UNK N   1      30.457  16.574   7.087  0.00  0.00     0.024 C 
ENDBRANCH  13  15
ENDBRANCH  12  13
ENDBRANCH   1  12
TORSDOF 6
ENDMDL
MODEL 5
REMARK VINA RESULT:      -6.3     15.354     17.509
REMARK  6 active torsions:
REMARK  status: ('A' for Active; 'I' for Inactive)
REMARK    1  A    between atoms: O_1  and  C_11 
REMARK    2  A    between atoms: O_1  and  C_13 
REMARK    3  A    between atoms: N_3  and  C_4 
REMARK    4  A    between atoms: N_3  and  C_10 
REMARK    5  A    between atoms: C_10  and  C_11 
REMARK    6  A    between atoms: C_13  and  C_14 
ROOT
HETATM    1  C   UNK N   1      29.782  24.685  -3.348  0.00  0.00     0.145 C 
HETATM    2  C   UNK N   1      30.440  25.662  -4.303  0.00  0.00     0.042 C 
ENDROOT
BRANCH   1   3
HETATM    3  O   UNK N   1      28.625  24.197  -3.904  0.00  0.00    -0.311 OA
BRANCH   3   4
HETATM    4  C   UNK N   1      27.400  24.423  -3.381  0.00  0.00     0.293 C 
HETATM    5  O   UNK N   1      26.993  23.755  -2.438  0.00  0.00    -0.259 OA
BRANCH   4   6
HETATM    6  C   UNK N   1      26.542  25.456  -3.989  0.00  0.00     0.039 A 
HETATM    7  C   UNK N   1      26.408  26.703  -3.357  0.00  0.00     0.017 A 
HETATM    8  C   UNK N   1      25.650  27.716  -3.948  0.00  0.00     0.001 A 
HETATM    9  C   UNK N   1      25.017  27.489  -5.173  0.00  0.00     0.000 A 
HETATM   10  C   UNK N   1      25.142  26.249  -5.806  0.00  0.00     0.001 A 
HETATM   11  C   UNK N   1      25.906  25.236  -5.219  0.00  0.00     0.017 A 
ENDBRANCH   4   6
ENDBRANCH   3   4
ENDBRANCH   1   3
BRANCH   1  12
HETATM   12  C   UNK N   1      30.680  23.480  -3.119  0.00  0.00     0.146 C 
BRANCH  12  13
HETATM   13  N   UNK N   1      29.925  22.252  -2.930  0.00  0.00    -0.415 N 
HETATM   14  H   UNK N   1      29.072  22.139  -2.382  0.00  0.00     0.153 HD
BRANCH  13  15
HETATM   15  C   UNK N   1      30.624  21.215  -3.677  0.00  0.00     0.076 C 
HETATM   16  C   UNK N   1      32.143  21.335  -3.503  0.00  0.00     0.024 C 
HETATM   17  C   UNK N   1      32.838  20.207  -4.260  0.00  0.00     0.002 C 
HETATM   18  C   UNK N   1      32.477  20.270  -5.742  0.00  0.00     0.000 C 
HETATM   19  C   UNK N   1      30.962  20.187  -5.927  0.00  0.00     0.002 C 
HETATM   20  C   UNK N   1      30.268  21.308  -5.156  0.00  0.00     0.024 C 
ENDBRANCH  13  15
ENDBRANCH  12  13
ENDBRANCH   1  12
TORSDOF 6
ENDMDL
MODEL 6
REMARK VINA RESULT:      -6.3     14.839     17.078
REMARK  6 active torsions:
REMARK  status: ('A' for Active; 'I' for Inactive)
REMARK    1  A    between atoms: O_1  and  C_11 
REMARK    2  A    between atoms: O_1  and  C_13 
REMARK    3  A    between atoms: N_3  and  C_4 
REMARK    4  A    between atoms: N_3  and  C_10 
REMARK    5  A    between atoms: C_10  and  C_11 
REMARK    6  A    between atoms: C_13  and  C_14 
ROOT
HETATM    1  C   UNK N   1      29.803  24.260  -3.046  0.00  0.00     0.145 C 
HETATM    2  C   UNK N   1      30.801  25.068  -3.854  0.00  0.00     0.042 C 
ENDROOT
BRANCH   1   3
HETATM    3  O   UNK N   1      28.656  24.071  -3.776  0.00  0.00    -0.311 OA
BRANCH   3   4
HETATM    4  C   UNK N   1      27.421  24.324  -3.291  0.00  0.00     0.293 C 
HETATM    5  O   UNK N   1      26.987  23.694  -2.333  0.00  0.00    -0.259 OA
BRANCH   4   6
HETATM    6  C   UNK N   1      26.583  25.338  -3.956  0.00  0.00     0.039 A 
HETATM    7  C   UNK N   1      26.440  26.607  -3.373  0.00  0.00     0.017 A 
HETATM    8  C   UNK N   1      25.702  27.601  -4.018  0.00  0.00     0.001 A 
HETATM    9  C   UNK N   1      25.100  27.334  -5.250  0.00  0.00     0.000 A 
HETATM   10  C   UNK N   1      25.235  26.072  -5.836  0.00  0.00     0.001 A 
HETATM   11  C   UNK N   1      25.979  25.077  -5.194  0.00  0.00     0.017 A 
ENDBRANCH   4   6
ENDBRANCH   3   4
ENDBRANCH   1   3
BRANCH   1  12
HETATM   12  C   UNK N   1      30.353  22.873  -2.759  0.00  0.00     0.146 C 
BRANCH  12  13
HETATM   13  N   UNK N   1      30.263  21.990  -3.911  0.00  0.00    -0.415 N 
HETATM   14  H   UNK N   1      29.417  21.746  -4.428  0.00  0.00     0.153 HD
BRANCH  13  15
HETATM   15  C   UNK N   1      31.615  21.520  -4.183  0.00  0.00     0.076 C 
HETATM   16  C   UNK N   1      31.597  20.153  -4.876  0.00  0.00     0.024 C 
HETATM   17  C   UNK N   1      33.026  19.715  -5.187  0.00  0.00     0.002 C 
HETATM   18  C   UNK N   1      33.841  19.635  -3.898  0.00  0.00     0.000 C 
HETATM   19  C   UNK N   1      33.836  20.984  -3.179  0.00  0.00     0.002 C 
HETATM   20  C   UNK N   1      32.405  21.426  -2.884  0.00  0.00     0.024 C 
ENDBRANCH  13  15
ENDBRANCH  12  13
ENDBRANCH   1  12
TORSDOF 6
ENDMDL
MODEL 7
REMARK VINA RESULT:      -6.2     16.754     19.978
REMARK  6 active torsions:
REMARK  status: ('A' for Active; 'I' for Inactive)
REMARK    1  A    between atoms: O_1  and  C_11 
REMARK    2  A    between atoms: O_1  and  C_13 
REMARK    3  A    between atoms: N_3  and  C_4 
REMARK    4  A    between atoms: N_3  and  C_10 
REMARK    5  A    between atoms: C_10  and  C_11 
REMARK    6  A    between atoms: C_13  and  C_14 
ROOT
HETATM    1  C   UNK N   1      29.381  23.959  -4.298  0.00  0.00     0.145 C 
HETATM    2  C   UNK N   1      30.699  23.605  -3.636  0.00  0.00     0.042 C 
ENDROOT
BRANCH   1   3
HETATM    3  O   UNK N   1      28.657  24.792  -3.482  0.00  0.00    -0.311 OA
BRANCH   3   4
HETATM    4  C   UNK N   1      27.320  24.690  -3.319  0.00  0.00     0.293 C 
HETATM    5  O   UNK N   1      26.841  23.763  -2.675  0.00  0.00    -0.259 OA
BRANCH   4   6
HETATM    6  C   UNK N   1      26.441  25.683  -3.961  0.00  0.00     0.039 A 
HETATM    7  C   UNK N   1      26.270  26.942  -3.364  0.00  0.00     0.017 A 
HETATM    8  C   UNK N   1      25.491  27.920  -3.988  0.00  0.00     0.001 A 
HETATM    9  C   UNK N   1      24.876  27.644  -5.212  0.00  0.00     0.000 A 
HETATM   10  C   UNK N   1      25.038  26.391  -5.810  0.00  0.00     0.001 A 
HETATM   11  C   UNK N   1      25.823  25.414  -5.190  0.00  0.00     0.017 A 
ENDBRANCH   4   6
ENDBRANCH   3   4
ENDBRANCH   1   3
BRANCH   1  12
HETATM   12  C   UNK N   1      29.624  24.734  -5.582  0.00  0.00     0.146 C 
BRANCH  12  13
HETATM   13  N   UNK N   1      30.587  25.810  -5.408  0.00  0.00    -0.415 N 
HETATM   14  H   UNK N   1      31.492  25.749  -4.940  0.00  0.00     0.153 HD
BRANCH  13  15
HETATM   15  C   UNK N   1      30.007  26.993  -6.031  0.00  0.00     0.076 C 
HETATM   16  C   UNK N   1      29.432  27.947  -4.978  0.00  0.00     0.024 C 
HETATM   17  C   UNK N   1      28.876  29.193  -5.663  0.00  0.00     0.002 C 
HETATM   18  C   UNK N   1      27.789  28.802  -6.661  0.00  0.00     0.000 C 
HETATM   19  C   UNK N   1      28.342  27.822  -7.695  0.00  0.00     0.002 C 
HETATM   20  C   UNK N   1      28.911  26.583  -7.006  0.00  0.00     0.024 C 
ENDBRANCH  13  15
ENDBRANCH  12  13
ENDBRANCH   1  12
TORSDOF 6
ENDMDL
MODEL 8
REMARK VINA RESULT:      -6.2      3.816      8.833
REMARK  6 active torsions:
REMARK  status: ('A' for Active; 'I' for Inactive)
REMARK    1  A    between atoms: O_1  and  C_11 
REMARK    2  A    between atoms: O_1  and  C_13 
REMARK    3  A    between atoms: N_3  and  C_4 
REMARK    4  A    between atoms: N_3  and  C_10 
REMARK    5  A    between atoms: C_10  and  C_11 
REMARK    6  A    between atoms: C_13  and  C_14 
ROOT
HETATM    1  C   UNK N   1      36.978  11.609  13.909  0.00  0.00     0.145 C 
HETATM    2  C   UNK N   1      38.278  10.931  14.299  0.00  0.00     0.042 C 
ENDROOT
BRANCH   1   3
HETATM    3  O   UNK N   1      36.689  12.612  14.801  0.00  0.00    -0.311 OA
BRANCH   3   4
HETATM    4  C   UNK N   1      35.493  12.733  15.416  0.00  0.00     0.293 C 
HETATM    5  O   UNK N   1      34.502  13.087  14.786  0.00  0.00    -0.259 OA
BRANCH   4   6
HETATM    6  C   UNK N   1      35.402  12.477  16.865  0.00  0.00     0.039 A 
HETATM    7  C   UNK N   1      35.632  11.181  17.353  0.00  0.00     0.017 A 
HETATM    8  C   UNK N   1      35.612  10.931  18.727  0.00  0.00     0.001 A 
HETATM    9  C   UNK N   1      35.361  11.973  19.622  0.00  0.00     0.000 A 
HETATM   10  C   UNK N   1      35.127  13.265  19.144  0.00  0.00     0.001 A 
HETATM   11  C   UNK N   1      35.153  13.519  17.768  0.00  0.00     0.017 A 
ENDBRANCH   4   6
ENDBRANCH   3   4
ENDBRANCH   1   3
BRANCH   1  12
HETATM   12  C   UNK N   1      37.118  12.280  12.552  0.00  0.00     0.146 C 
BRANCH  12  13
HETATM   13  N   UNK N   1      37.053  13.730  12.639  0.00  0.00    -0.415 N 
HETATM   14  H   UNK N   1      37.452  14.315  13.373  0.00  0.00     0.153 HD
BRANCH  13  15
HETATM   15  C   UNK N   1      36.306  14.184  11.473  0.00  0.00     0.076 C 
HETATM   16  C   UNK N   1      35.778  15.609  11.674  0.00  0.00     0.024 C 
HETATM   17  C   UNK N   1      35.043  16.067  10.418  0.00  0.00     0.002 C 
HETATM   18  C   UNK N   1      33.883  15.121  10.115  0.00  0.00     0.000 C 
HETATM   19  C   UNK N   1      34.393  13.690   9.948  0.00  0.00     0.002 C 
HETATM   20  C   UNK N   1      35.141  13.240  11.201  0.00  0.00     0.024 C 
ENDBRANCH  13  15
ENDBRANCH  12  13
ENDBRANCH   1  12
TORSDOF 6
ENDMDL
MODEL 9
REMARK VINA RESULT:      -6.0     16.082     19.597
REMARK  6 active torsions:
REMARK  status: ('A' for Active; 'I' for Inactive)
REMARK    1  A    between atoms: O_1  and  C_11 
REMARK    2  A    between atoms: O_1  and  C_13 
REMARK    3  A    between atoms: N_3  and  C_4 
REMARK    4  A    between atoms: N_3  and  C_10 
REMARK    5  A    between atoms: C_10  and  C_11 
REMARK    6  A    between atoms: C_13  and  C_14 
ROOT
HETATM    1  C   UNK N   1      26.909  22.828  -7.351  0.00  0.00     0.145 C 
HETATM    2  C   UNK N   1      26.615  23.533  -8.662  0.00  0.00     0.042 C 
ENDROOT
BRANCH   1   3
HETATM    3  O   UNK N   1      28.205  23.071  -6.971  0.00  0.00    -0.311 OA
BRANCH   3   4
HETATM    4  C   UNK N   1      29.002  22.132  -6.417  0.00  0.00     0.293 C 
HETATM    5  O   UNK N   1      29.188  21.061  -6.983  0.00  0.00    -0.259 OA
BRANCH   4   6
HETATM    6  C   UNK N   1      29.611  22.394  -5.100  0.00  0.00     0.039 A 
HETATM    7  C   UNK N   1      29.325  23.596  -4.434  0.00  0.00     0.017 A 
HETATM    8  C   UNK N   1      29.842  23.837  -3.159  0.00  0.00     0.001 A 
HETATM    9  C   UNK N   1      30.649  22.878  -2.541  0.00  0.00     0.000 A 
HETATM   10  C   UNK N   1      30.942  21.681  -3.200  0.00  0.00     0.001 A 
HETATM   11  C   UNK N   1      30.420  21.436  -4.474  0.00  0.00     0.017 A 
ENDBRANCH   4   6
ENDBRANCH   3   4
ENDBRANCH   1   3
BRANCH   1  12
HETATM   12  C   UNK N   1      26.033  23.384  -6.241  0.00  0.00     0.146 C 
BRANCH  12  13
HETATM   13  N   UNK N   1      25.366  24.618  -6.625  0.00  0.00    -0.415 N 
HETATM   14  H   UNK N   1      24.668  24.731  -7.360  0.00  0.00     0.153 HD
BRANCH  13  15
HETATM   15  C   UNK N   1      25.890  25.663  -5.754  0.00  0.00     0.076 C 
HETATM   16  C   UNK N   1      26.122  25.134  -4.333  0.00  0.00     0.024 C 
HETATM   17  C   UNK N   1      26.713  26.240  -3.464  0.00  0.00     0.002 C 
HETATM   18  C   UNK N   1      25.768  27.438  -3.425  0.00  0.00     0.000 C 
HETATM   19  C   UNK N   1      25.501  27.952  -4.840  0.00  0.00     0.002 C 
HETATM   20  C   UNK N   1      24.924  26.839  -5.712  0.00  0.00     0.024 C 
ENDBRANCH  13  15
ENDBRANCH  12  13
ENDBRANCH   1  12
TORSDOF 6
ENDMDL
