MODEL 1
REMARK VINA RESULT:      -5.8      0.000      0.000
REMARK  5 active torsions:
REMARK  status: ('A' for Active; 'I' for Inactive)
REMARK    1  A    between atoms: C_6  and  C_7 
REMARK    2  A    between atoms: C_6  and  C_8 
REMARK    3  A    between atoms: C_7  and  C_14 
REMARK    4  A    between atoms: C_8  and  C_13 
REMARK    5  A    between atoms: C_17  and  C_18 
ROOT
HETATM    1  O   UNK N   1      32.658  14.792   8.075  0.00  0.00    -0.271 OA
HETATM    2  O   UNK N   1      34.717  19.011   7.923  0.00  0.00    -0.272 OA
HETATM    3  O   UNK N   1      35.438  16.222  11.296  0.00  0.00    -0.246 OA
HETATM    4  N   UNK N   1      34.035  15.475   9.710  0.00  0.00    -0.273 N 
HETATM    5  N   UNK N   1      35.061  17.610   9.608  0.00  0.00    -0.278 N 
HETATM    6  C   UNK N   1      33.547  16.957   7.727  0.00  0.00     0.139 A 
HETATM    7  C   UNK N   1      33.383  15.671   8.522  0.00  0.00     0.247 A 
HETATM    8  C   UNK N   1      34.474  17.927   8.433  0.00  0.00     0.245 A 
HETATM    9  C   UNK N   1      34.862  16.429  10.237  0.00  0.00     0.331 A 
HETATM   10  C   UNK N   1      33.853  14.227  10.422  0.00  0.00     0.164 C 
HETATM   11  H   UNK N   1      35.663  18.268  10.024  0.00  0.00     0.173 HD
ENDROOT
BRANCH   6  12
HETATM   12  C   UNK N   1      34.208  16.647   6.354  0.00  0.00     0.088 C 
HETATM   13  C   UNK N   1      35.215  15.505   6.311  0.00  0.00     0.025 C 
BRANCH  12  14
HETATM   14  C   UNK N   1      33.473  16.865   5.103  0.00  0.00    -0.100 C 
HETATM   15  C   UNK N   1      32.902  16.945   4.045  0.00  0.00    -0.106 C 
BRANCH  15  16
HETATM   16  C   UNK N   1      32.133  17.042   2.807  0.00  0.00     0.089 C 
HETATM   17  C   UNK N   1      30.759  16.457   3.023  0.00  0.00     0.018 C 
ENDBRANCH  15  16
ENDBRANCH  12  14
ENDBRANCH   6  12
BRANCH   6  18
HETATM   18  C   UNK N   1      32.133  17.584   7.610  0.00  0.00     0.057 C 
BRANCH  18  19
HETATM   19  C   UNK N   1      31.413  17.798   8.908  0.00  0.00    -0.035 C 
HETATM   20  C   UNK N   1      30.340  18.577   8.967  0.00  0.00     0.007 C 
ENDBRANCH  18  19
ENDBRANCH   6  18
TORSDOF 5
ENDMDL
MODEL 2
REMARK VINA RESULT:      -5.4      1.487      3.025
REMARK  5 active torsions:
REMARK  status: ('A' for Active; 'I' for Inactive)
REMARK    1  A    between atoms: C_6  and  C_7 
REMARK    2  A    between atoms: C_6  and  C_8 
REMARK    3  A    between atoms: C_7  and  C_14 
REMARK    4  A    between atoms: C_8  and  C_13 
REMARK    5  A    between atoms: C_17  and  C_18 
ROOT
HETATM    1  O   UNK N   1      32.599  14.380   8.803  0.00  0.00    -0.271 OA
HETATM    2  O   UNK N   1      34.094  18.117   6.382  0.00  0.00    -0.272 OA
HETATM    3  O   UNK N   1      35.596  17.277  10.469  0.00  0.00    -0.246 OA
HETATM    4  N   UNK N   1      34.091  15.811   9.674  0.00  0.00    -0.273 N 
HETATM    5  N   UNK N   1      34.829  17.689   8.430  0.00  0.00    -0.278 N 
HETATM    6  C   UNK N   1      33.165  16.163   7.354  0.00  0.00     0.139 A 
HETATM    7  C   UNK N   1      33.267  15.397   8.663  0.00  0.00     0.247 A 
HETATM    8  C   UNK N   1      34.055  17.390   7.364  0.00  0.00     0.245 A 
HETATM    9  C   UNK N   1      34.861  16.935   9.553  0.00  0.00     0.331 A 
HETATM   10  C   UNK N   1      34.159  15.038  10.898  0.00  0.00     0.164 C 
HETATM   11  H   UNK N   1      35.398  18.492   8.387  0.00  0.00     0.173 HD
ENDROOT
BRANCH   6  12
HETATM   12  C   UNK N   1      33.667  15.273   6.182  0.00  0.00     0.088 C 
HETATM   13  C   UNK N   1      32.857  15.302   4.893  0.00  0.00     0.025 C 
BRANCH  12  14
HETATM   14  C   UNK N   1      35.099  15.010   6.002  0.00  0.00    -0.100 C 
HETATM   15  C   UNK N   1      36.250  14.688   5.847  0.00  0.00    -0.106 C 
BRANCH  15  16
HETATM   16  C   UNK N   1      37.643  14.340   5.581  0.00  0.00     0.089 C 
HETATM   17  C   UNK N   1      38.172  13.490   6.711  0.00  0.00     0.018 C 
ENDBRANCH  15  16
ENDBRANCH  12  14
ENDBRANCH   6  12
BRANCH   6  18
HETATM   18  C   UNK N   1      31.683  16.599   7.215  0.00  0.00     0.057 C 
BRANCH  18  19
HETATM   19  C   UNK N   1      31.172  17.503   8.296  0.00  0.00    -0.035 C 
HETATM   20  C   UNK N   1      29.925  17.956   8.268  0.00  0.00     0.007 C 
ENDBRANCH  18  19
ENDBRANCH   6  18
TORSDOF 5
ENDMDL
MODEL 3
REMARK VINA RESULT:      -5.3     15.589     17.778
REMARK  5 active torsions:
REMARK  status: ('A' for Active; 'I' for Inactive)
REMARK    1  A    between atoms: C_6  and  C_7 
REMARK    2  A    between atoms: C_6  and  C_8 
REMARK    3  A    between atoms: C_7  and  C_14 
REMARK    4  A    between atoms: C_8  and  C_13 
REMARK    5  A    between atoms: C_17  and  C_18 
ROOT
HETATM    1  O   UNK N   1      28.085  27.240  -6.523  0.00  0.00    -0.271 OA
HETATM    2  O   UNK N   1      25.976  26.834  -2.345  0.00  0.00    -0.272 OA
HETATM    3  O   UNK N   1      27.185  30.794  -3.933  0.00  0.00    -0.246 OA
HETATM    4  N   UNK N   1      27.661  29.041  -5.252  0.00  0.00    -0.273 N 
HETATM    5  N   UNK N   1      26.594  28.807  -3.147  0.00  0.00    -0.278 N 
HETATM    6  C   UNK N   1      27.014  26.729  -4.476  0.00  0.00     0.139 A 
HETATM    7  C   UNK N   1      27.625  27.691  -5.481  0.00  0.00     0.247 A 
HETATM    8  C   UNK N   1      26.503  27.462  -3.251  0.00  0.00     0.245 A 
HETATM    9  C   UNK N   1      27.149  29.584  -4.106  0.00  0.00     0.331 A 
HETATM   10  C   UNK N   1      28.245  29.915  -6.248  0.00  0.00     0.164 C 
HETATM   11  H   UNK N   1      26.240  29.240  -2.338  0.00  0.00     0.173 HD
ENDROOT
BRANCH   6  12
HETATM   12  C   UNK N   1      25.780  26.023  -5.105  0.00  0.00     0.088 C 
HETATM   13  C   UNK N   1      24.709  26.916  -5.719  0.00  0.00     0.025 C 
BRANCH  12  14
HETATM   14  C   UNK N   1      25.910  24.701  -5.728  0.00  0.00    -0.100 C 
HETATM   15  C   UNK N   1      25.924  23.638  -6.295  0.00  0.00    -0.106 C 
BRANCH  15  16
HETATM   16  C   UNK N   1      26.014  22.375  -7.023  0.00  0.00     0.089 C 
HETATM   17  C   UNK N   1      24.659  21.710  -7.042  0.00  0.00     0.018 C 
ENDBRANCH  15  16
ENDBRANCH  12  14
ENDBRANCH   6  12
BRANCH   6  18
HETATM   18  C   UNK N   1      28.145  25.752  -4.059  0.00  0.00     0.057 C 
BRANCH  18  19
HETATM   19  C   UNK N   1      29.461  26.391  -3.732  0.00  0.00    -0.035 C 
HETATM   20  C   UNK N   1      30.571  25.666  -3.676  0.00  0.00     0.007 C 
ENDBRANCH  18  19
ENDBRANCH   6  18
TORSDOF 5
ENDMDL
MODEL 4
REMARK VINA RESULT:      -5.3     15.044     16.712
REMARK  5 active torsions:
REMARK  status: ('A' for Active; 'I' for Inactive)
REMARK    1  A    between atoms: C_6  and  C_7 
REMARK    2  A    between atoms: C_6  and  C_8 
REMARK    3  A    between atoms: C_7  and  C_14 
REMARK    4  A    between atoms: C_8  and  C_13 
REMARK    5  A    between atoms: C_17  and  C_18 
ROOT
HETATM    1  O   UNK N   1      28.371  26.386  -6.534  0.00  0.00    -0.271 OA
HETATM    2  O   UNK N   1      26.841  24.049  -2.758  0.00  0.00    -0.272 OA
HETATM    3  O   UNK N   1      25.892  28.342  -3.343  0.00  0.00    -0.246 OA
HETATM    4  N   UNK N   1      27.142  27.402  -4.955  0.00  0.00    -0.273 N 
HETATM    5  N   UNK N   1      26.382  26.198  -3.059  0.00  0.00    -0.278 N 
HETATM    6  C   UNK N   1      27.744  24.960  -4.754  0.00  0.00     0.139 A 
HETATM    7  C   UNK N   1      27.774  26.301  -5.468  0.00  0.00     0.247 A 
HETATM    8  C   UNK N   1      26.966  25.045  -3.455  0.00  0.00     0.245 A 
HETATM    9  C   UNK N   1      26.455  27.345  -3.773  0.00  0.00     0.331 A 
HETATM   10  C   UNK N   1      27.192  28.654  -5.682  0.00  0.00     0.164 C 
HETATM   11  H   UNK N   1      25.879  26.203  -2.213  0.00  0.00     0.173 HD
ENDROOT
BRANCH   6  12
HETATM   12  C   UNK N   1      27.006  23.911  -5.633  0.00  0.00     0.088 C 
HETATM   13  C   UNK N   1      25.685  24.337  -6.259  0.00  0.00     0.025 C 
BRANCH  12  14
HETATM   14  C   UNK N   1      27.761  22.919  -6.407  0.00  0.00    -0.100 C 
HETATM   15  C   UNK N   1      28.380  22.041  -6.952  0.00  0.00    -0.106 C 
BRANCH  15  16
HETATM   16  C   UNK N   1      29.062  20.965  -7.666  0.00  0.00     0.089 C 
HETATM   17  C   UNK N   1      30.081  20.326  -6.754  0.00  0.00     0.018 C 
ENDBRANCH  15  16
ENDBRANCH  12  14
ENDBRANCH   6  12
BRANCH   6  18
HETATM   18  C   UNK N   1      29.219  24.591  -4.450  0.00  0.00     0.057 C 
BRANCH  18  19
HETATM   19  C   UNK N   1      29.961  25.562  -3.580  0.00  0.00    -0.035 C 
HETATM   20  C   UNK N   1      31.184  25.962  -3.902  0.00  0.00     0.007 C 
ENDBRANCH  18  19
ENDBRANCH   6  18
TORSDOF 5
ENDMDL
MODEL 5
REMARK VINA RESULT:      -5.2      5.830      9.969
REMARK  5 active torsions:
REMARK  status: ('A' for Active; 'I' for Inactive)
REMARK    1  A    between atoms: C_6  and  C_7 
REMARK    2  A    between atoms: C_6  and  C_8 
REMARK    3  A    between atoms: C_7  and  C_14 
REMARK    4  A    between atoms: C_8  and  C_13 
REMARK    5  A    between atoms: C_17  and  C_18 
ROOT
HETATM    1  O   UNK N   1      34.568  13.492  13.350  0.00  0.00    -0.271 OA
HETATM    2  O   UNK N   1      38.257  10.615  13.768  0.00  0.00    -0.272 OA
HETATM    3  O   UNK N   1      37.968  13.507  10.418  0.00  0.00    -0.246 OA
HETATM    4  N   UNK N   1      36.245  13.523  11.858  0.00  0.00    -0.273 N 
HETATM    5  N   UNK N   1      38.095  12.059  12.093  0.00  0.00    -0.278 N 
HETATM    6  C   UNK N   1      36.288  11.936  13.819  0.00  0.00     0.139 A 
HETATM    7  C   UNK N   1      35.644  13.033  12.987  0.00  0.00     0.247 A 
HETATM    8  C   UNK N   1      37.607  11.490  13.217  0.00  0.00     0.245 A 
HETATM    9  C   UNK N   1      37.451  13.044  11.425  0.00  0.00     0.331 A 
HETATM   10  C   UNK N   1      35.594  14.577  11.107  0.00  0.00     0.164 C 
HETATM   11  H   UNK N   1      38.960  11.744  11.745  0.00  0.00     0.173 HD
ENDROOT
BRANCH   6  12
HETATM   12  C   UNK N   1      36.619  12.476  15.238  0.00  0.00     0.088 C 
HETATM   13  C   UNK N   1      36.938  13.961  15.359  0.00  0.00     0.025 C 
BRANCH  12  14
HETATM   14  C   UNK N   1      36.001  11.882  16.429  0.00  0.00    -0.100 C 
HETATM   15  C   UNK N   1      35.593  11.385  17.448  0.00  0.00    -0.106 C 
BRANCH  15  16
HETATM   16  C   UNK N   1      35.060  10.859  18.702  0.00  0.00     0.089 C 
HETATM   17  C   UNK N   1      35.340  11.838  19.816  0.00  0.00     0.018 C 
ENDBRANCH  15  16
ENDBRANCH  12  14
ENDBRANCH   6  12
BRANCH   6  18
HETATM   18  C   UNK N   1      35.293  10.746  13.821  0.00  0.00     0.057 C 
BRANCH  18  19
HETATM   19  C   UNK N   1      35.027  10.124  12.483  0.00  0.00    -0.035 C 
HETATM   20  C   UNK N   1      33.789  10.023  12.016  0.00  0.00     0.007 C 
ENDBRANCH  18  19
ENDBRANCH   6  18
TORSDOF 5
ENDMDL
MODEL 6
REMARK VINA RESULT:      -5.2     10.528     12.997
REMARK  5 active torsions:
REMARK  status: ('A' for Active; 'I' for Inactive)
REMARK    1  A    between atoms: C_6  and  C_7 
REMARK    2  A    between atoms: C_6  and  C_8 
REMARK    3  A    between atoms: C_7  and  C_14 
REMARK    4  A    between atoms: C_8  and  C_13 
REMARK    5  A    between atoms: C_17  and  C_18 
ROOT
HETATM    1  O   UNK N   1      22.287  17.592   6.110  0.00  0.00    -0.271 OA
HETATM    2  O   UNK N   1      20.506  16.820   1.833  0.00  0.00    -0.272 OA
HETATM    3  O   UNK N   1      18.191  15.863   5.492  0.00  0.00    -0.246 OA
HETATM    4  N   UNK N   1      20.238  16.716   5.842  0.00  0.00    -0.273 N 
HETATM    5  N   UNK N   1      19.364  16.338   3.671  0.00  0.00    -0.278 N 
HETATM    6  C   UNK N   1      21.658  17.319   3.845  0.00  0.00     0.139 A 
HETATM    7  C   UNK N   1      21.412  17.212   5.342  0.00  0.00     0.247 A 
HETATM    8  C   UNK N   1      20.474  16.801   3.054  0.00  0.00     0.245 A 
HETATM    9  C   UNK N   1      19.233  16.292   5.017  0.00  0.00     0.331 A 
HETATM   10  C   UNK N   1      20.050  16.647   7.276  0.00  0.00     0.164 C 
HETATM   11  H   UNK N   1      18.616  16.020   3.115  0.00  0.00     0.173 HD
ENDROOT
BRANCH   6  12
HETATM   12  C   UNK N   1      21.828  18.811   3.444  0.00  0.00     0.088 C 
HETATM   13  C   UNK N   1      20.690  19.759   3.800  0.00  0.00     0.025 C 
BRANCH  12  14
HETATM   14  C   UNK N   1      23.157  19.433   3.413  0.00  0.00    -0.100 C 
HETATM   15  C   UNK N   1      24.264  19.891   3.292  0.00  0.00    -0.106 C 
BRANCH  15  16
HETATM   16  C   UNK N   1      25.570  20.527   3.138  0.00  0.00     0.089 C 
HETATM   17  C   UNK N   1      26.624  19.674   3.801  0.00  0.00     0.018 C 
ENDBRANCH  15  16
ENDBRANCH  12  14
ENDBRANCH   6  12
BRANCH   6  18
HETATM   18  C   UNK N   1      22.904  16.447   3.542  0.00  0.00     0.057 C 
BRANCH  18  19
HETATM   19  C   UNK N   1      22.758  14.985   3.844  0.00  0.00    -0.035 C 
HETATM   20  C   UNK N   1      22.922  14.077   2.890  0.00  0.00     0.007 C 
ENDBRANCH  18  19
ENDBRANCH   6  18
TORSDOF 5
ENDMDL
MODEL 7
REMARK VINA RESULT:      -5.2      5.750      8.671
REMARK  5 active torsions:
REMARK  status: ('A' for Active; 'I' for Inactive)
REMARK    1  A    between atoms: C_6  and  C_7 
REMARK    2  A    between atoms: C_6  and  C_8 
REMARK    3  A    between atoms: C_7  and  C_14 
REMARK    4  A    between atoms: C_8  and  C_13 
REMARK    5  A    between atoms: C_17  and  C_18 
ROOT
HETATM    1  O   UNK N   1      37.515  11.626  13.150  0.00  0.00    -0.271 OA
HETATM    2  O   UNK N   1      33.919  12.881  15.899  0.00  0.00    -0.272 OA
HETATM    3  O   UNK N   1      36.843   9.812  17.201  0.00  0.00    -0.246 OA
HETATM    4  N   UNK N   1      37.207  10.689  15.166  0.00  0.00    -0.273 N 
HETATM    5  N   UNK N   1      35.383  11.342  16.533  0.00  0.00    -0.278 N 
HETATM    6  C   UNK N   1      35.626  12.457  14.307  0.00  0.00     0.139 A 
HETATM    7  C   UNK N   1      36.843  11.557  14.172  0.00  0.00     0.247 A 
HETATM    8  C   UNK N   1      34.918  12.232  15.629  0.00  0.00     0.245 A 
HETATM    9  C   UNK N   1      36.490  10.590  16.326  0.00  0.00     0.331 A 
HETATM   10  C   UNK N   1      38.383   9.862  14.992  0.00  0.00     0.164 C 
HETATM   11  H   UNK N   1      34.896  11.237  17.382  0.00  0.00     0.173 HD
ENDROOT
BRANCH   6  12
HETATM   12  C   UNK N   1      36.068  13.947  14.300  0.00  0.00     0.088 C 
HETATM   13  C   UNK N   1      37.123  14.362  15.317  0.00  0.00     0.025 C 
BRANCH  12  14
HETATM   14  C   UNK N   1      36.081  14.719  13.052  0.00  0.00    -0.100 C 
HETATM   15  C   UNK N   1      35.986  15.329  12.018  0.00  0.00    -0.106 C 
BRANCH  15  16
HETATM   16  C   UNK N   1      35.887  16.143  10.809  0.00  0.00     0.089 C 
HETATM   17  C   UNK N   1      34.587  15.836  10.104  0.00  0.00     0.018 C 
ENDBRANCH  15  16
ENDBRANCH  12  14
ENDBRANCH   6  12
BRANCH   6  18
HETATM   18  C   UNK N   1      34.673  12.084  13.141  0.00  0.00     0.057 C 
BRANCH  18  19
HETATM   19  C   UNK N   1      34.114  10.694  13.183  0.00  0.00    -0.035 C 
HETATM   20  C   UNK N   1      33.802  10.054  12.063  0.00  0.00     0.007 C 
ENDBRANCH  18  19
ENDBRANCH   6  18
TORSDOF 5
ENDMDL
MODEL 8
REMARK VINA RESULT:      -5.2      2.516      5.180
REMARK  5 active torsions:
REMARK  status: ('A' for Active; 'I' for Inactive)
REMARK    1  A    between atoms: C_6  and  C_7 
REMARK    2  A    between atoms: C_6  and  C_8 
REMARK    3  A    between atoms: C_7  and  C_14 
REMARK    4  A    between atoms: C_8  and  C_13 
REMARK    5  A    between atoms: C_17  and  C_18 
ROOT
HETATM    1  O   UNK N   1      31.964  13.961   6.697  0.00  0.00    -0.271 OA
HETATM    2  O   UNK N   1      34.342  18.003   6.436  0.00  0.00    -0.272 OA
HETATM    3  O   UNK N   1      31.166  17.013   3.504  0.00  0.00    -0.246 OA
HETATM    4  N   UNK N   1      31.542  15.458   5.079  0.00  0.00    -0.273 N 
HETATM    5  N   UNK N   1      32.758  17.491   4.971  0.00  0.00    -0.278 N 
HETATM    6  C   UNK N   1      33.314  15.900   6.820  0.00  0.00     0.139 A 
HETATM    7  C   UNK N   1      32.229  15.043   6.188  0.00  0.00     0.247 A 
HETATM    8  C   UNK N   1      33.508  17.195   6.056  0.00  0.00     0.245 A 
HETATM    9  C   UNK N   1      31.802  16.664   4.488  0.00  0.00     0.331 A 
HETATM   10  C   UNK N   1      30.510  14.608   4.523  0.00  0.00     0.164 C 
HETATM   11  H   UNK N   1      32.913  18.348   4.513  0.00  0.00     0.173 HD
ENDROOT
BRANCH   6  12
HETATM   12  C   UNK N   1      32.893  16.306   8.260  0.00  0.00     0.088 C 
HETATM   13  C   UNK N   1      33.998  16.401   9.305  0.00  0.00     0.025 C 
BRANCH  12  14
HETATM   14  C   UNK N   1      31.758  17.209   8.482  0.00  0.00    -0.100 C 
HETATM   15  C   UNK N   1      30.771  17.891   8.592  0.00  0.00    -0.106 C 
BRANCH  15  16
HETATM   16  C   UNK N   1      29.567  18.689   8.807  0.00  0.00     0.089 C 
HETATM   17  C   UNK N   1      28.499  17.825   9.434  0.00  0.00     0.018 C 
ENDBRANCH  15  16
ENDBRANCH  12  14
ENDBRANCH   6  12
BRANCH   6  18
HETATM   18  C   UNK N   1      34.621  15.066   6.764  0.00  0.00     0.057 C 
BRANCH  18  19
HETATM   19  C   UNK N   1      35.224  14.902   5.401  0.00  0.00    -0.035 C 
HETATM   20  C   UNK N   1      35.283  13.707   4.826  0.00  0.00     0.007 C 
ENDBRANCH  18  19
ENDBRANCH   6  18
TORSDOF 5
ENDMDL
MODEL 9
REMARK VINA RESULT:      -5.1     15.005     17.667
REMARK  5 active torsions:
REMARK  status: ('A' for Active; 'I' for Inactive)
REMARK    1  A    between atoms: C_6  and  C_7 
REMARK    2  A    between atoms: C_6  and  C_8 
REMARK    3  A    between atoms: C_7  and  C_14 
REMARK    4  A    between atoms: C_8  and  C_13 
REMARK    5  A    between atoms: C_17  and  C_18 
ROOT
HETATM    1  O   UNK N   1      29.353  26.104  -5.866  0.00  0.00    -0.271 OA
HETATM    2  O   UNK N   1      25.296  28.045  -4.509  0.00  0.00    -0.272 OA
HETATM    3  O   UNK N   1      26.687  24.197  -2.799  0.00  0.00    -0.246 OA
HETATM    4  N   UNK N   1      28.042  25.115  -4.336  0.00  0.00    -0.273 N 
HETATM    5  N   UNK N   1      26.000  26.117  -3.669  0.00  0.00    -0.278 N 
HETATM    6  C   UNK N   1      27.377  27.313  -5.381  0.00  0.00     0.139 A 
HETATM    7  C   UNK N   1      28.319  26.132  -5.210  0.00  0.00     0.247 A 
HETATM    8  C   UNK N   1      26.154  27.175  -4.496  0.00  0.00     0.245 A 
HETATM    9  C   UNK N   1      26.904  25.114  -3.578  0.00  0.00     0.331 A 
HETATM   10  C   UNK N   1      28.979  24.018  -4.203  0.00  0.00     0.164 C 
HETATM   11  H   UNK N   1      25.193  26.074  -3.107  0.00  0.00     0.173 HD
ENDROOT
BRANCH   6  12
HETATM   12  C   UNK N   1      28.088  28.622  -4.936  0.00  0.00     0.088 C 
HETATM   13  C   UNK N   1      28.149  29.757  -5.949  0.00  0.00     0.025 C 
BRANCH  12  14
HETATM   14  C   UNK N   1      28.055  29.052  -3.533  0.00  0.00    -0.100 C 
HETATM   15  C   UNK N   1      28.136  29.420  -2.389  0.00  0.00    -0.106 C 
BRANCH  15  16
HETATM   16  C   UNK N   1      28.188  29.937  -1.024  0.00  0.00     0.089 C 
HETATM   17  C   UNK N   1      29.626  30.015  -0.572  0.00  0.00     0.018 C 
ENDBRANCH  15  16
ENDBRANCH  12  14
ENDBRANCH   6  12
BRANCH   6  18
HETATM   18  C   UNK N   1      26.942  27.315  -6.869  0.00  0.00     0.057 C 
BRANCH  18  19
HETATM   19  C   UNK N   1      26.073  26.168  -7.289  0.00  0.00    -0.035 C 
HETATM   20  C   UNK N   1      25.937  25.854  -8.571  0.00  0.00     0.007 C 
ENDBRANCH  18  19
ENDBRANCH   6  18
TORSDOF 5
ENDMDL
