MODEL 1
REMARK VINA RESULT:      -6.3      0.000      0.000
REMARK  6 active torsions:
REMARK  status: ('A' for Active; 'I' for Inactive)
REMARK    1  A    between atoms: C_4  and  O_2 
REMARK    2  A    between atoms: O_2  and  C_8 
REMARK    3  A    between atoms: N_3  and  C_6 
REMARK    4  A    between atoms: C_4  and  C_5 
REMARK    5  A    between atoms: C_4  and  C_7 
REMARK    6  A    between atoms: C_5  and  C_6 
ROOT
HETATM    1  O   UNK N   1      32.094  16.872   7.459  0.00  0.00    -0.340 OA
ENDROOT
BRANCH   1   2
HETATM    2  C   UNK N   1      33.041  17.591   6.756  0.00  0.00     0.170 C 
BRANCH   2   3
HETATM    3  C   UNK N   1      34.434  17.505   7.371  0.00  0.00     0.057 C 
BRANCH   3   4
HETATM    4  C   UNK N   1      34.412  16.473   8.486  0.00  0.00     0.116 C 
BRANCH   4   5
HETATM    5  N   UNK N   1      34.248  17.129   9.771  0.00  0.00    -0.425 N 
HETATM    6  C   UNK N   1      35.289  16.612  10.642  0.00  0.00     0.139 C 
HETATM    7  H   UNK N   1      33.538  17.819  10.016  0.00  0.00     0.152 HD
ENDBRANCH   4   5
ENDBRANCH   3   4
ENDBRANCH   2   3
BRANCH   2   8
HETATM    8  C   UNK N   1      33.022  17.094   5.342  0.00  0.00     0.012 A 
HETATM    9  S   UNK N   1      33.812  15.743   4.808  0.00  0.00    -0.104 SA
HETATM   10  C   UNK N   1      33.425  15.796   3.196  0.00  0.00     0.050 A 
HETATM   11  C   UNK N   1      32.623  16.936   3.031  0.00  0.00     0.008 A 
HETATM   12  C   UNK N   1      32.398  17.667   4.233  0.00  0.00     0.018 A 
ENDBRANCH   2   8
ENDBRANCH   1   2
BRANCH   1  13
HETATM   13  C   UNK N   1      30.874  17.300   7.870  0.00  0.00     0.080 A 
HETATM   14  C   UNK N   1      29.731  16.801   7.224  0.00  0.00     0.007 A 
HETATM   15  C   UNK N   1      28.446  17.239   7.618  0.00  0.00    -0.023 A 
HETATM   16  C   UNK N   1      29.855  15.886   6.166  0.00  0.00     0.015 A 
HETATM   17  C   UNK N   1      28.312  18.157   8.661  0.00  0.00     0.012 A 
HETATM   18  C   UNK N   1      27.313  16.762   6.953  0.00  0.00     0.012 A 
HETATM   19  C   UNK N   1      29.448  18.651   9.308  0.00  0.00     0.004 A 
HETATM   20  C   UNK N   1      30.721  18.233   8.909  0.00  0.00     0.038 A 
HETATM   21  C   UNK N   1      27.449  15.854   5.897  0.00  0.00     0.001 A 
HETATM   22  C   UNK N   1      28.717  15.417   5.507  0.00  0.00     0.001 A 
ENDBRANCH   1  13
TORSDOF 6
ENDMDL
MODEL 2
REMARK VINA RESULT:      -5.9      3.585      5.795
REMARK  6 active torsions:
REMARK  status: ('A' for Active; 'I' for Inactive)
REMARK    1  A    between atoms: C_4  and  O_2 
REMARK    2  A    between atoms: O_2  and  C_8 
REMARK    3  A    between atoms: N_3  and  C_6 
REMARK    4  A    between atoms: C_4  and  C_5 
REMARK    5  A    between atoms: C_4  and  C_7 
REMARK    6  A    between atoms: C_5  and  C_6 
ROOT
HETATM    1  O   UNK N   1      28.275  17.054   5.980  0.00  0.00    -0.340 OA
ENDROOT
BRANCH   1   2
HETATM    2  C   UNK N   1      27.480  17.787   5.121  0.00  0.00     0.170 C 
BRANCH   2   3
HETATM    3  C   UNK N   1      28.127  19.097   4.679  0.00  0.00     0.057 C 
BRANCH   3   4
HETATM    4  C   UNK N   1      27.119  20.221   4.853  0.00  0.00     0.116 C 
BRANCH   4   5
HETATM    5  N   UNK N   1      26.302  19.982   6.030  0.00  0.00    -0.425 N 
HETATM    6  C   UNK N   1      26.457  21.143   6.889  0.00  0.00     0.139 C 
HETATM    7  H   UNK N   1      25.731  19.158   6.217  0.00  0.00     0.152 HD
ENDBRANCH   4   5
ENDBRANCH   3   4
ENDBRANCH   2   3
BRANCH   2   8
HETATM    8  C   UNK N   1      27.149  16.906   3.955  0.00  0.00     0.012 A 
HETATM    9  S   UNK N   1      25.637  16.724   3.311  0.00  0.00    -0.104 SA
HETATM   10  C   UNK N   1      25.957  15.611   2.124  0.00  0.00     0.050 A 
HETATM   11  C   UNK N   1      27.331  15.343   2.209  0.00  0.00     0.008 A 
HETATM   12  C   UNK N   1      28.002  16.065   3.237  0.00  0.00     0.018 A 
ENDBRANCH   2   8
ENDBRANCH   1   2
BRANCH   1  13
HETATM   13  C   UNK N   1      28.890  17.491   7.107  0.00  0.00     0.080 A 
HETATM   14  C   UNK N   1      30.293  17.507   7.150  0.00  0.00     0.007 A 
HETATM   15  C   UNK N   1      30.963  17.941   8.316  0.00  0.00    -0.023 A 
HETATM   16  C   UNK N   1      31.042  17.066   6.046  0.00  0.00     0.015 A 
HETATM   17  C   UNK N   1      30.229  18.372   9.422  0.00  0.00     0.012 A 
HETATM   18  C   UNK N   1      32.360  17.928   8.363  0.00  0.00     0.012 A 
HETATM   19  C   UNK N   1      28.832  18.361   9.381  0.00  0.00     0.004 A 
HETATM   20  C   UNK N   1      28.166  17.915   8.235  0.00  0.00     0.038 A 
HETATM   21  C   UNK N   1      33.095  17.483   7.259  0.00  0.00     0.001 A 
HETATM   22  C   UNK N   1      32.436  17.054   6.104  0.00  0.00     0.001 A 
ENDBRANCH   1  13
TORSDOF 6
ENDMDL
MODEL 3
REMARK VINA RESULT:      -5.8      3.457      6.426
REMARK  6 active torsions:
REMARK  status: ('A' for Active; 'I' for Inactive)
REMARK    1  A    between atoms: C_4  and  O_2 
REMARK    2  A    between atoms: O_2  and  C_8 
REMARK    3  A    between atoms: N_3  and  C_6 
REMARK    4  A    between atoms: C_4  and  C_5 
REMARK    5  A    between atoms: C_4  and  C_7 
REMARK    6  A    between atoms: C_5  and  C_6 
ROOT
HETATM    1  O   UNK N   1      29.350  16.781   4.898  0.00  0.00    -0.340 OA
ENDROOT
BRANCH   1   2
HETATM    2  C   UNK N   1      28.359  17.418   4.177  0.00  0.00     0.170 C 
BRANCH   2   3
HETATM    3  C   UNK N   1      27.148  16.529   3.912  0.00  0.00     0.057 C 
BRANCH   3   4
HETATM    4  C   UNK N   1      27.636  15.140   3.536  0.00  0.00     0.116 C 
BRANCH   4   5
HETATM    5  N   UNK N   1      28.447  15.203   2.333  0.00  0.00    -0.425 N 
HETATM    6  C   UNK N   1      29.326  14.047   2.359  0.00  0.00     0.139 C 
HETATM    7  H   UNK N   1      28.406  15.921   1.609  0.00  0.00     0.152 HD
ENDBRANCH   4   5
ENDBRANCH   3   4
ENDBRANCH   2   3
BRANCH   2   8
HETATM    8  C   UNK N   1      27.986  18.661   4.929  0.00  0.00     0.012 A 
HETATM    9  S   UNK N   1      27.687  18.725   6.554  0.00  0.00    -0.104 SA
HETATM   10  C   UNK N   1      27.299  20.329   6.716  0.00  0.00     0.050 A 
HETATM   11  C   UNK N   1      27.401  20.881   5.430  0.00  0.00     0.008 A 
HETATM   12  C   UNK N   1      27.784  19.947   4.425  0.00  0.00     0.018 A 
ENDBRANCH   2   8
ENDBRANCH   1   2
BRANCH   1  13
HETATM   13  C   UNK N   1      30.689  16.969   4.799  0.00  0.00     0.080 A 
HETATM   14  C   UNK N   1      31.430  17.193   5.972  0.00  0.00     0.007 A 
HETATM   15  C   UNK N   1      32.824  17.408   5.900  0.00  0.00    -0.023 A 
HETATM   16  C   UNK N   1      30.787  17.231   7.220  0.00  0.00     0.015 A 
HETATM   17  C   UNK N   1      33.471  17.382   4.663  0.00  0.00     0.012 A 
HETATM   18  C   UNK N   1      33.552  17.659   7.067  0.00  0.00     0.012 A 
HETATM   19  C   UNK N   1      32.737  17.156   3.496  0.00  0.00     0.004 A 
HETATM   20  C   UNK N   1      31.355  16.960   3.561  0.00  0.00     0.038 A 
HETATM   21  C   UNK N   1      32.901  17.699   8.304  0.00  0.00     0.001 A 
HETATM   22  C   UNK N   1      31.522  17.485   8.379  0.00  0.00     0.001 A 
ENDBRANCH   1  13
TORSDOF 6
ENDMDL
MODEL 4
REMARK VINA RESULT:      -5.8      3.203      6.390
REMARK  6 active torsions:
REMARK  status: ('A' for Active; 'I' for Inactive)
REMARK    1  A    between atoms: C_4  and  O_2 
REMARK    2  A    between atoms: O_2  and  C_8 
REMARK    3  A    between atoms: N_3  and  C_6 
REMARK    4  A    between atoms: C_4  and  C_5 
REMARK    5  A    between atoms: C_4  and  C_7 
REMARK    6  A    between atoms: C_5  and  C_6 
ROOT
HETATM    1  O   UNK N   1      29.314  16.858   5.052  0.00  0.00    -0.340 OA
ENDROOT
BRANCH   1   2
HETATM    2  C   UNK N   1      28.314  17.386   4.260  0.00  0.00     0.170 C 
BRANCH   2   3
HETATM    3  C   UNK N   1      27.164  16.413   4.020  0.00  0.00     0.057 C 
BRANCH   3   4
HETATM    4  C   UNK N   1      27.430  15.141   4.808  0.00  0.00     0.116 C 
BRANCH   4   5
HETATM    5  N   UNK N   1      27.038  15.321   6.195  0.00  0.00    -0.425 N 
HETATM    6  C   UNK N   1      25.620  15.638   6.192  0.00  0.00     0.139 C 
HETATM    7  H   UNK N   1      27.641  15.240   7.013  0.00  0.00     0.152 HD
ENDBRANCH   4   5
ENDBRANCH   3   4
ENDBRANCH   2   3
BRANCH   2   8
HETATM    8  C   UNK N   1      27.848  18.654   4.911  0.00  0.00     0.012 A 
HETATM    9  S   UNK N   1      27.271  19.974   4.099  0.00  0.00    -0.104 SA
HETATM   10  C   UNK N   1      26.992  21.000   5.371  0.00  0.00     0.050 A 
HETATM   11  C   UNK N   1      27.364  20.293   6.524  0.00  0.00     0.008 A 
HETATM   12  C   UNK N   1      27.847  18.977   6.269  0.00  0.00     0.018 A 
ENDBRANCH   2   8
ENDBRANCH   1   2
BRANCH   1  13
HETATM   13  C   UNK N   1      30.653  17.005   4.894  0.00  0.00     0.080 A 
HETATM   14  C   UNK N   1      31.447  17.233   6.030  0.00  0.00     0.007 A 
HETATM   15  C   UNK N   1      32.843  17.407   5.897  0.00  0.00    -0.023 A 
HETATM   16  C   UNK N   1      30.858  17.319   7.302  0.00  0.00     0.015 A 
HETATM   17  C   UNK N   1      33.437  17.334   4.636  0.00  0.00     0.012 A 
HETATM   18  C   UNK N   1      33.625  17.662   7.027  0.00  0.00     0.012 A 
HETATM   19  C   UNK N   1      32.650  17.103   3.505  0.00  0.00     0.004 A 
HETATM   20  C   UNK N   1      31.266  16.949   3.631  0.00  0.00     0.038 A 
HETATM   21  C   UNK N   1      33.027  17.750   8.289  0.00  0.00     0.001 A 
HETATM   22  C   UNK N   1      31.647  17.577   8.424  0.00  0.00     0.001 A 
ENDBRANCH   1  13
TORSDOF 6
ENDMDL
MODEL 5
REMARK VINA RESULT:      -5.7      8.340     11.315
REMARK  6 active torsions:
REMARK  status: ('A' for Active; 'I' for Inactive)
REMARK    1  A    between atoms: C_4  and  O_2 
REMARK    2  A    between atoms: O_2  and  C_8 
REMARK    3  A    between atoms: N_3  and  C_6 
REMARK    4  A    between atoms: C_4  and  C_5 
REMARK    5  A    between atoms: C_4  and  C_7 
REMARK    6  A    between atoms: C_5  and  C_6 
ROOT
HETATM    1  O   UNK N   1      35.807  11.648  14.449  0.00  0.00    -0.340 OA
ENDROOT
BRANCH   1   2
HETATM    2  C   UNK N   1      34.809  11.881  13.523  0.00  0.00     0.170 C 
BRANCH   2   3
HETATM    3  C   UNK N   1      34.984  13.199  12.774  0.00  0.00     0.057 C 
BRANCH   3   4
HETATM    4  C   UNK N   1      36.292  13.838  13.211  0.00  0.00     0.116 C 
BRANCH   4   5
HETATM    5  N   UNK N   1      37.380  13.379  12.366  0.00  0.00    -0.425 N 
HETATM    6  C   UNK N   1      36.996  13.669  10.995  0.00  0.00     0.139 C 
HETATM    7  H   UNK N   1      38.246  12.938  12.675  0.00  0.00     0.152 HD
ENDBRANCH   4   5
ENDBRANCH   3   4
ENDBRANCH   2   3
BRANCH   2   8
HETATM    8  C   UNK N   1      34.780  10.708  12.590  0.00  0.00     0.012 A 
HETATM    9  S   UNK N   1      36.120   9.986  11.943  0.00  0.00    -0.104 SA
HETATM   10  C   UNK N   1      35.400   8.829  10.998  0.00  0.00     0.050 A 
HETATM   11  C   UNK N   1      34.019   8.990  11.179  0.00  0.00     0.008 A 
HETATM   12  C   UNK N   1      33.668  10.045  12.069  0.00  0.00     0.018 A 
ENDBRANCH   2   8
ENDBRANCH   1   2
BRANCH   1  13
HETATM   13  C   UNK N   1      35.691  11.014  15.642  0.00  0.00     0.080 A 
HETATM   14  C   UNK N   1      35.499  11.784  16.801  0.00  0.00     0.007 A 
HETATM   15  C   UNK N   1      35.391  11.154  18.061  0.00  0.00    -0.023 A 
HETATM   16  C   UNK N   1      35.442  13.185  16.721  0.00  0.00     0.015 A 
HETATM   17  C   UNK N   1      35.458   9.762  18.152  0.00  0.00     0.012 A 
HETATM   18  C   UNK N   1      35.229  11.926  19.215  0.00  0.00     0.012 A 
HETATM   19  C   UNK N   1      35.645   8.995  17.000  0.00  0.00     0.004 A 
HETATM   20  C   UNK N   1      35.770   9.616  15.754  0.00  0.00     0.038 A 
HETATM   21  C   UNK N   1      35.177  13.321  19.124  0.00  0.00     0.001 A 
HETATM   22  C   UNK N   1      35.282  13.947  17.880  0.00  0.00     0.001 A 
ENDBRANCH   1  13
TORSDOF 6
ENDMDL
MODEL 6
REMARK VINA RESULT:      -5.7     12.699     15.128
REMARK  6 active torsions:
REMARK  status: ('A' for Active; 'I' for Inactive)
REMARK    1  A    between atoms: C_4  and  O_2 
REMARK    2  A    between atoms: O_2  and  C_8 
REMARK    3  A    between atoms: N_3  and  C_6 
REMARK    4  A    between atoms: C_4  and  C_5 
REMARK    5  A    between atoms: C_4  and  C_7 
REMARK    6  A    between atoms: C_5  and  C_6 
ROOT
HETATM    1  O   UNK N   1      27.934  24.434  -5.043  0.00  0.00    -0.340 OA
ENDROOT
BRANCH   1   2
HETATM    2  C   UNK N   1      26.554  24.431  -4.993  0.00  0.00     0.170 C 
BRANCH   2   3
HETATM    3  C   UNK N   1      25.961  25.813  -4.739  0.00  0.00     0.057 C 
BRANCH   3   4
HETATM    4  C   UNK N   1      26.735  26.476  -3.612  0.00  0.00     0.116 C 
BRANCH   4   5
HETATM    5  N   UNK N   1      25.906  27.468  -2.951  0.00  0.00    -0.425 N 
HETATM    6  C   UNK N   1      26.067  28.708  -3.692  0.00  0.00     0.139 C 
HETATM    7  H   UNK N   1      25.324  27.323  -2.127  0.00  0.00     0.152 HD
ENDBRANCH   4   5
ENDBRANCH   3   4
ENDBRANCH   2   3
BRANCH   2   8
HETATM    8  C   UNK N   1      26.061  23.838  -6.279  0.00  0.00     0.012 A 
HETATM    9  S   UNK N   1      25.999  24.641  -7.724  0.00  0.00    -0.104 SA
HETATM   10  C   UNK N   1      25.333  23.465  -8.683  0.00  0.00     0.050 A 
HETATM   11  C   UNK N   1      25.134  22.355  -7.849  0.00  0.00     0.008 A 
HETATM   12  C   UNK N   1      25.538  22.562  -6.499  0.00  0.00     0.018 A 
ENDBRANCH   2   8
ENDBRANCH   1   2
BRANCH   1  13
HETATM   13  C   UNK N   1      28.783  23.601  -4.392  0.00  0.00     0.080 A 
HETATM   14  C   UNK N   1      29.413  22.576  -5.117  0.00  0.00     0.007 A 
HETATM   15  C   UNK N   1      30.290  21.681  -4.465  0.00  0.00    -0.023 A 
HETATM   16  C   UNK N   1      29.155  22.415  -6.488  0.00  0.00     0.015 A 
HETATM   17  C   UNK N   1      30.545  21.826  -3.100  0.00  0.00     0.012 A 
HETATM   18  C   UNK N   1      30.892  20.645  -5.185  0.00  0.00     0.012 A 
HETATM   19  C   UNK N   1      29.923  22.847  -2.377  0.00  0.00     0.004 A 
HETATM   20  C   UNK N   1      29.041  23.723  -3.016  0.00  0.00     0.038 A 
HETATM   21  C   UNK N   1      30.625  20.492  -6.550  0.00  0.00     0.001 A 
HETATM   22  C   UNK N   1      29.759  21.376  -7.199  0.00  0.00     0.001 A 
ENDBRANCH   1  13
TORSDOF 6
ENDMDL
MODEL 7
REMARK VINA RESULT:      -5.7      2.979      5.941
REMARK  6 active torsions:
REMARK  status: ('A' for Active; 'I' for Inactive)
REMARK    1  A    between atoms: C_4  and  O_2 
REMARK    2  A    between atoms: O_2  and  C_8 
REMARK    3  A    between atoms: N_3  and  C_6 
REMARK    4  A    between atoms: C_4  and  C_5 
REMARK    5  A    between atoms: C_4  and  C_7 
REMARK    6  A    between atoms: C_5  and  C_6 
ROOT
HETATM    1  O   UNK N   1      29.350  17.470   6.195  0.00  0.00    -0.340 OA
ENDROOT
BRANCH   1   2
HETATM    2  C   UNK N   1      28.072  17.102   5.824  0.00  0.00     0.170 C 
BRANCH   2   3
HETATM    3  C   UNK N   1      27.212  16.656   7.003  0.00  0.00     0.057 C 
BRANCH   3   4
HETATM    4  C   UNK N   1      28.009  16.841   8.284  0.00  0.00     0.116 C 
BRANCH   4   5
HETATM    5  N   UNK N   1      27.744  18.152   8.852  0.00  0.00    -0.425 N 
HETATM    6  C   UNK N   1      28.962  18.570   9.524  0.00  0.00     0.139 C 
HETATM    7  H   UNK N   1      26.872  18.677   8.790  0.00  0.00     0.152 HD
ENDBRANCH   4   5
ENDBRANCH   3   4
ENDBRANCH   2   3
BRANCH   2   8
HETATM    8  C   UNK N   1      27.464  18.263   5.096  0.00  0.00     0.012 A 
HETATM    9  S   UNK N   1      27.583  19.842   5.575  0.00  0.00    -0.104 SA
HETATM   10  C   UNK N   1      26.677  20.574   4.396  0.00  0.00     0.050 A 
HETATM   11  C   UNK N   1      26.237  19.543   3.553  0.00  0.00     0.008 A 
HETATM   12  C   UNK N   1      26.674  18.245   3.945  0.00  0.00     0.018 A 
ENDBRANCH   2   8
ENDBRANCH   1   2
BRANCH   1  13
HETATM   13  C   UNK N   1      30.498  17.273   5.499  0.00  0.00     0.080 A 
HETATM   14  C   UNK N   1      31.720  17.303   6.190  0.00  0.00     0.007 A 
HETATM   15  C   UNK N   1      32.934  17.117   5.491  0.00  0.00    -0.023 A 
HETATM   16  C   UNK N   1      31.749  17.544   7.573  0.00  0.00     0.015 A 
HETATM   17  C   UNK N   1      32.918  16.887   4.114  0.00  0.00     0.012 A 
HETATM   18  C   UNK N   1      34.150  17.176   6.178  0.00  0.00     0.012 A 
HETATM   19  C   UNK N   1      31.702  16.853   3.426  0.00  0.00     0.004 A 
HETATM   20  C   UNK N   1      30.501  17.054   4.111  0.00  0.00     0.038 A 
HETATM   21  C   UNK N   1      34.167  17.422   7.555  0.00  0.00     0.001 A 
HETATM   22  C   UNK N   1      32.968  17.604   8.250  0.00  0.00     0.001 A 
ENDBRANCH   1  13
TORSDOF 6
ENDMDL
MODEL 8
REMARK VINA RESULT:      -5.6     13.031     15.488
REMARK  6 active torsions:
REMARK  status: ('A' for Active; 'I' for Inactive)
REMARK    1  A    between atoms: C_4  and  O_2 
REMARK    2  A    between atoms: O_2  and  C_8 
REMARK    3  A    between atoms: N_3  and  C_6 
REMARK    4  A    between atoms: C_4  and  C_5 
REMARK    5  A    between atoms: C_4  and  C_7 
REMARK    6  A    between atoms: C_5  and  C_6 
ROOT
HETATM    1  O   UNK N   1      27.229  23.882  -5.512  0.00  0.00    -0.340 OA
ENDROOT
BRANCH   1   2
HETATM    2  C   UNK N   1      26.490  24.206  -4.391  0.00  0.00     0.170 C 
BRANCH   2   3
HETATM    3  C   UNK N   1      27.251  23.982  -3.088  0.00  0.00     0.057 C 
BRANCH   3   4
HETATM    4  C   UNK N   1      28.739  23.944  -3.392  0.00  0.00     0.116 C 
BRANCH   4   5
HETATM    5  N   UNK N   1      29.455  23.289  -2.312  0.00  0.00    -0.425 N 
HETATM    6  C   UNK N   1      30.685  22.766  -2.880  0.00  0.00     0.139 C 
HETATM    7  H   UNK N   1      29.152  23.210  -1.341  0.00  0.00     0.152 HD
ENDBRANCH   4   5
ENDBRANCH   3   4
ENDBRANCH   2   3
BRANCH   2   8
HETATM    8  C   UNK N   1      26.048  25.631  -4.542  0.00  0.00     0.012 A 
HETATM    9  S   UNK N   1      26.321  26.825  -3.431  0.00  0.00    -0.104 SA
HETATM   10  C   UNK N   1      25.555  28.094  -4.174  0.00  0.00     0.050 A 
HETATM   11  C   UNK N   1      25.041  27.584  -5.375  0.00  0.00     0.008 A 
HETATM   12  C   UNK N   1      25.314  26.202  -5.584  0.00  0.00     0.018 A 
ENDBRANCH   2   8
ENDBRANCH   1   2
BRANCH   1  13
HETATM   13  C   UNK N   1      26.925  22.962  -6.460  0.00  0.00     0.080 A 
HETATM   14  C   UNK N   1      27.918  22.056  -6.867  0.00  0.00     0.007 A 
HETATM   15  C   UNK N   1      27.637  21.096  -7.866  0.00  0.00    -0.023 A 
HETATM   16  C   UNK N   1      29.205  22.114  -6.307  0.00  0.00     0.015 A 
HETATM   17  C   UNK N   1      26.364  21.037  -8.436  0.00  0.00     0.012 A 
HETATM   18  C   UNK N   1      28.637  20.216  -8.288  0.00  0.00     0.012 A 
HETATM   19  C   UNK N   1      25.373  21.934  -8.030  0.00  0.00     0.004 A 
HETATM   20  C   UNK N   1      25.654  22.897  -7.056  0.00  0.00     0.038 A 
HETATM   21  C   UNK N   1      29.916  20.285  -7.726  0.00  0.00     0.001 A 
HETATM   22  C   UNK N   1      30.197  21.232  -6.737  0.00  0.00     0.001 A 
ENDBRANCH   1  13
TORSDOF 6
ENDMDL
MODEL 9
REMARK VINA RESULT:      -5.6      2.471      5.843
REMARK  6 active torsions:
REMARK  status: ('A' for Active; 'I' for Inactive)
REMARK    1  A    between atoms: C_4  and  O_2 
REMARK    2  A    between atoms: O_2  and  C_8 
REMARK    3  A    between atoms: N_3  and  C_6 
REMARK    4  A    between atoms: C_4  and  C_5 
REMARK    5  A    between atoms: C_4  and  C_7 
REMARK    6  A    between atoms: C_5  and  C_6 
ROOT
HETATM    1  O   UNK N   1      34.296  17.157   7.567  0.00  0.00    -0.340 OA
ENDROOT
BRANCH   1   2
HETATM    2  C   UNK N   1      33.492  17.072   8.687  0.00  0.00     0.170 C 
BRANCH   2   3
HETATM    3  C   UNK N   1      32.147  16.409   8.408  0.00  0.00     0.057 C 
BRANCH   3   4
HETATM    4  C   UNK N   1      31.090  17.491   8.265  0.00  0.00     0.116 C 
BRANCH   4   5
HETATM    5  N   UNK N   1      30.636  17.924   9.575  0.00  0.00    -0.425 N 
HETATM    6  C   UNK N   1      29.258  18.357   9.418  0.00  0.00     0.139 C 
HETATM    7  H   UNK N   1      31.179  17.923  10.438  0.00  0.00     0.152 HD
ENDBRANCH   4   5
ENDBRANCH   3   4
ENDBRANCH   2   3
BRANCH   2   8
HETATM    8  C   UNK N   1      34.268  16.342   9.741  0.00  0.00     0.012 A 
HETATM    9  S   UNK N   1      33.876  14.849  10.336  0.00  0.00    -0.104 SA
HETATM   10  C   UNK N   1      35.075  14.660  11.465  0.00  0.00     0.050 A 
HETATM   11  C   UNK N   1      35.853  15.826  11.397  0.00  0.00     0.008 A 
HETATM   12  C   UNK N   1      35.402  16.772  10.433  0.00  0.00     0.018 A 
ENDBRANCH   2   8
ENDBRANCH   1   2
BRANCH   1  13
HETATM   13  C   UNK N   1      34.455  16.224   6.596  0.00  0.00     0.080 A 
HETATM   14  C   UNK N   1      33.820  16.420   5.358  0.00  0.00     0.007 A 
HETATM   15  C   UNK N   1      33.954  15.458   4.332  0.00  0.00    -0.023 A 
HETATM   16  C   UNK N   1      33.026  17.557   5.140  0.00  0.00     0.015 A 
HETATM   17  C   UNK N   1      34.732  14.318   4.542  0.00  0.00     0.012 A 
HETATM   18  C   UNK N   1      33.296  15.644   3.112  0.00  0.00     0.012 A 
HETATM   19  C   UNK N   1      35.368  14.123   5.770  0.00  0.00     0.004 A 
HETATM   20  C   UNK N   1      35.223  15.064   6.794  0.00  0.00     0.038 A 
HETATM   21  C   UNK N   1      32.504  16.778   2.908  0.00  0.00     0.001 A 
HETATM   22  C   UNK N   1      32.371  17.733   3.920  0.00  0.00     0.001 A 
ENDBRANCH   1  13
TORSDOF 6
ENDMDL
