MODEL 1
REMARK VINA RESULT:      -6.1      0.000      0.000
REMARK  4 active torsions:
REMARK  status: ('A' for Active; 'I' for Inactive)
REMARK    1  A    between atoms: N_3  and  C_5 
REMARK    2  A    between atoms: N_4  and  C_7 
REMARK    3  A    between atoms: C_5  and  C_6 
REMARK    4  A    between atoms: C_6  and  C_7 
ROOT
HETATM    1 Cl   UNK N   1      20.065  11.889  11.981  0.00  0.00    -0.084 Cl
HETATM    2  S   UNK N   1      25.048  13.554   8.440  0.00  0.00    -0.086 SA
HETATM    3  N   UNK N   1      22.011  14.456   7.942  0.00  0.00    -0.345 N 
HETATM    4  C   UNK N   1      22.286  13.605   9.060  0.00  0.00     0.053 A 
HETATM    5  C   UNK N   1      22.998  14.842   6.971  0.00  0.00     0.052 A 
HETATM    6  C   UNK N   1      23.583  13.132   9.366  0.00  0.00     0.032 A 
HETATM    7  C   UNK N   1      24.361  14.485   7.083  0.00  0.00     0.032 A 
HETATM    8  C   UNK N   1      21.219  13.207   9.891  0.00  0.00     0.054 A 
HETATM    9  C   UNK N   1      22.601  15.612   5.859  0.00  0.00     0.031 A 
HETATM   10  C   UNK N   1      23.772  12.295  10.474  0.00  0.00     0.023 A 
HETATM   11  C   UNK N   1      25.269  14.899   6.100  0.00  0.00     0.021 A 
HETATM   12  C   UNK N   1      21.421  12.369  10.985  0.00  0.00     0.036 A 
HETATM   13  C   UNK N   1      23.515  16.011   4.884  0.00  0.00     0.002 A 
HETATM   14  C   UNK N   1      22.701  11.913  11.277  0.00  0.00     0.025 A 
HETATM   15  C   UNK N   1      24.852  15.653   5.004  0.00  0.00     0.002 A 
ENDROOT
BRANCH   3  16
HETATM   16  C   UNK N   1      20.661  14.985   7.815  0.00  0.00     0.131 C 
BRANCH  16  17
HETATM   17  C   UNK N   1      20.465  16.241   8.643  0.00  0.00     0.050 C 
BRANCH  17  18
HETATM   18  C   UNK N   1      18.998  16.300   9.037  0.00  0.00     0.273 C 
BRANCH  18  19
HETATM   19  N   UNK N   1      18.482  17.662   8.984  0.00  0.00     0.080 N 
HETATM   20  C   UNK N   1      19.522  18.586   9.412  0.00  0.00     0.309 C 
HETATM   21  C   UNK N   1      17.432  17.745   9.983  0.00  0.00     0.309 C 
ENDBRANCH  18  19
ENDBRANCH  17  18
ENDBRANCH  16  17
ENDBRANCH   3  16
TORSDOF 4
ENDMDL
MODEL 2
REMARK VINA RESULT:      -5.7     12.668     14.970
REMARK  4 active torsions:
REMARK  status: ('A' for Active; 'I' for Inactive)
REMARK    1  A    between atoms: N_3  and  C_5 
REMARK    2  A    between atoms: N_4  and  C_7 
REMARK    3  A    between atoms: C_5  and  C_6 
REMARK    4  A    between atoms: C_6  and  C_7 
ROOT
HETATM    1 Cl   UNK N   1      34.621  10.323   9.609  0.00  0.00    -0.084 Cl
HETATM    2  S   UNK N   1      34.380  11.987  15.717  0.00  0.00    -0.086 SA
HETATM    3  N   UNK N   1      36.040  13.500  13.429  0.00  0.00    -0.345 N 
HETATM    4  C   UNK N   1      35.277  12.347  13.057  0.00  0.00     0.053 A 
HETATM    5  C   UNK N   1      36.190  13.955  14.783  0.00  0.00     0.052 A 
HETATM    6  C   UNK N   1      34.522  11.593  13.984  0.00  0.00     0.032 A 
HETATM    7  C   UNK N   1      35.519  13.352  15.871  0.00  0.00     0.032 A 
HETATM    8  C   UNK N   1      35.284  11.932  11.709  0.00  0.00     0.054 A 
HETATM    9  C   UNK N   1      37.036  15.051  15.050  0.00  0.00     0.031 A 
HETATM   10  C   UNK N   1      33.807  10.471  13.545  0.00  0.00     0.023 A 
HETATM   11  C   UNK N   1      35.710  13.849  17.167  0.00  0.00     0.021 A 
HETATM   12  C   UNK N   1      34.573  10.811  11.288  0.00  0.00     0.036 A 
HETATM   13  C   UNK N   1      37.222  15.531  16.345  0.00  0.00     0.002 A 
HETATM   14  C   UNK N   1      33.832  10.079  12.209  0.00  0.00     0.025 A 
HETATM   15  C   UNK N   1      36.558  14.929  17.407  0.00  0.00     0.002 A 
ENDROOT
BRANCH   3  16
HETATM   16  C   UNK N   1      36.662  14.269  12.360  0.00  0.00     0.131 C 
BRANCH  16  17
HETATM   17  C   UNK N   1      35.696  15.262  11.742  0.00  0.00     0.050 C 
BRANCH  17  18
HETATM   18  C   UNK N   1      36.062  15.396  10.272  0.00  0.00     0.273 C 
BRANCH  18  19
HETATM   19  N   UNK N   1      34.883  15.620   9.444  0.00  0.00     0.080 N 
HETATM   20  C   UNK N   1      34.593  17.045   9.397  0.00  0.00     0.309 C 
HETATM   21  C   UNK N   1      33.767  15.004  10.141  0.00  0.00     0.309 C 
ENDBRANCH  18  19
ENDBRANCH  17  18
ENDBRANCH  16  17
ENDBRANCH   3  16
TORSDOF 4
ENDMDL
MODEL 3
REMARK VINA RESULT:      -5.6      8.186      9.275
REMARK  4 active torsions:
REMARK  status: ('A' for Active; 'I' for Inactive)
REMARK    1  A    between atoms: N_3  and  C_5 
REMARK    2  A    between atoms: N_4  and  C_7 
REMARK    3  A    between atoms: C_5  and  C_6 
REMARK    4  A    between atoms: C_6  and  C_7 
ROOT
HETATM    1 Cl   UNK N   1      32.804  14.316   6.687  0.00  0.00    -0.084 Cl
HETATM    2  S   UNK N   1      28.661  18.853   8.234  0.00  0.00    -0.086 SA
HETATM    3  N   UNK N   1      29.152  17.692   5.285  0.00  0.00    -0.345 N 
HETATM    4  C   UNK N   1      29.925  17.148   6.361  0.00  0.00     0.053 A 
HETATM    5  C   UNK N   1      28.248  18.799   5.433  0.00  0.00     0.052 A 
HETATM    6  C   UNK N   1      29.805  17.594   7.697  0.00  0.00     0.032 A 
HETATM    7  C   UNK N   1      27.970  19.399   6.682  0.00  0.00     0.032 A 
HETATM    8  C   UNK N   1      30.858  16.129   6.081  0.00  0.00     0.054 A 
HETATM    9  C   UNK N   1      27.602  19.314   4.290  0.00  0.00     0.031 A 
HETATM   10  C   UNK N   1      30.602  17.018   8.695  0.00  0.00     0.023 A 
HETATM   11  C   UNK N   1      27.075  20.474   6.753  0.00  0.00     0.021 A 
HETATM   12  C   UNK N   1      31.648  15.569   7.082  0.00  0.00     0.036 A 
HETATM   13  C   UNK N   1      26.718  20.389   4.374  0.00  0.00     0.002 A 
HETATM   14  C   UNK N   1      31.520  16.015   8.392  0.00  0.00     0.025 A 
HETATM   15  C   UNK N   1      26.455  20.971   5.608  0.00  0.00     0.002 A 
ENDROOT
BRANCH   3  16
HETATM   16  C   UNK N   1      29.269  17.053   3.982  0.00  0.00     0.131 C 
BRANCH  16  17
HETATM   17  C   UNK N   1      28.250  15.944   3.802  0.00  0.00     0.050 C 
BRANCH  17  18
HETATM   18  C   UNK N   1      28.538  15.276   2.467  0.00  0.00     0.273 C 
BRANCH  18  19
HETATM   19  N   UNK N   1      27.371  14.562   1.962  0.00  0.00     0.080 N 
HETATM   20  C   UNK N   1      26.246  15.481   1.877  0.00  0.00     0.309 C 
HETATM   21  C   UNK N   1      27.017  13.583   2.974  0.00  0.00     0.309 C 
ENDBRANCH  18  19
ENDBRANCH  17  18
ENDBRANCH  16  17
ENDBRANCH   3  16
TORSDOF 4
ENDMDL
MODEL 4
REMARK VINA RESULT:      -5.5     17.258     18.901
REMARK  4 active torsions:
REMARK  status: ('A' for Active; 'I' for Inactive)
REMARK    1  A    between atoms: N_3  and  C_5 
REMARK    2  A    between atoms: N_4  and  C_7 
REMARK    3  A    between atoms: C_5  and  C_6 
REMARK    4  A    between atoms: C_6  and  C_7 
ROOT
HETATM    1 Cl   UNK N   1      29.370  20.157  -7.357  0.00  0.00    -0.084 Cl
HETATM    2  S   UNK N   1      26.137  25.600  -7.601  0.00  0.00    -0.086 SA
HETATM    3  N   UNK N   1      27.589  24.399  -5.006  0.00  0.00    -0.345 N 
HETATM    4  C   UNK N   1      27.670  23.657  -6.228  0.00  0.00     0.053 A 
HETATM    5  C   UNK N   1      26.807  25.595  -4.850  0.00  0.00     0.052 A 
HETATM    6  C   UNK N   1      27.054  24.081  -7.428  0.00  0.00     0.032 A 
HETATM    7  C   UNK N   1      26.113  26.201  -5.922  0.00  0.00     0.032 A 
HETATM    8  C   UNK N   1      28.383  22.441  -6.239  0.00  0.00     0.054 A 
HETATM    9  C   UNK N   1      26.726  26.200  -3.579  0.00  0.00     0.031 A 
HETATM   10  C   UNK N   1      27.172  23.295  -8.582  0.00  0.00     0.023 A 
HETATM   11  C   UNK N   1      25.372  27.368  -5.697  0.00  0.00     0.021 A 
HETATM   12  C   UNK N   1      28.486  21.667  -7.392  0.00  0.00     0.036 A 
HETATM   13  C   UNK N   1      25.979  27.358  -3.369  0.00  0.00     0.002 A 
HETATM   14  C   UNK N   1      27.879  22.095  -8.567  0.00  0.00     0.025 A 
HETATM   15  C   UNK N   1      25.300  27.944  -4.430  0.00  0.00     0.002 A 
ENDROOT
BRANCH   3  16
HETATM   16  C   UNK N   1      28.378  23.928  -3.878  0.00  0.00     0.131 C 
BRANCH  16  17
HETATM   17  C   UNK N   1      29.781  24.504  -3.889  0.00  0.00     0.050 C 
BRANCH  17  18
HETATM   18  C   UNK N   1      30.651  23.597  -3.033  0.00  0.00     0.273 C 
BRANCH  18  19
HETATM   19  N   UNK N   1      31.390  22.638  -3.846  0.00  0.00     0.080 N 
HETATM   20  C   UNK N   1      32.105  21.718  -2.974  0.00  0.00     0.309 C 
HETATM   21  C   UNK N   1      32.406  23.396  -4.554  0.00  0.00     0.309 C 
ENDBRANCH  18  19
ENDBRANCH  17  18
ENDBRANCH  16  17
ENDBRANCH   3  16
TORSDOF 4
ENDMDL
MODEL 5
REMARK VINA RESULT:      -5.5     13.773     16.247
REMARK  4 active torsions:
REMARK  status: ('A' for Active; 'I' for Inactive)
REMARK    1  A    between atoms: N_3  and  C_5 
REMARK    2  A    between atoms: N_4  and  C_7 
REMARK    3  A    between atoms: C_5  and  C_6 
REMARK    4  A    between atoms: C_6  and  C_7 
ROOT
HETATM    1 Cl   UNK N   1      35.845   8.333  11.445  0.00  0.00    -0.084 Cl
HETATM    2  S   UNK N   1      35.468   9.095  17.724  0.00  0.00    -0.086 SA
HETATM    3  N   UNK N   1      35.269  11.434  15.538  0.00  0.00    -0.345 N 
HETATM    4  C   UNK N   1      35.456  10.092  15.074  0.00  0.00     0.053 A 
HETATM    5  C   UNK N   1      35.272  11.805  16.926  0.00  0.00     0.052 A 
HETATM    6  C   UNK N   1      35.574   8.986  15.947  0.00  0.00     0.032 A 
HETATM    7  C   UNK N   1      35.371  10.859  17.972  0.00  0.00     0.032 A 
HETATM    8  C   UNK N   1      35.539   9.857  13.687  0.00  0.00     0.054 A 
HETATM    9  C   UNK N   1      35.168  13.169  17.272  0.00  0.00     0.031 A 
HETATM   10  C   UNK N   1      35.763   7.702  15.417  0.00  0.00     0.023 A 
HETATM   11  C   UNK N   1      35.365  11.293  19.304  0.00  0.00     0.021 A 
HETATM   12  C   UNK N   1      35.733   8.577  13.174  0.00  0.00     0.036 A 
HETATM   13  C   UNK N   1      35.170  13.586  18.602  0.00  0.00     0.002 A 
HETATM   14  C   UNK N   1      35.845   7.497  14.042  0.00  0.00     0.025 A 
HETATM   15  C   UNK N   1      35.269  12.646  19.620  0.00  0.00     0.002 A 
ENDROOT
BRANCH   3  16
HETATM   16  C   UNK N   1      35.025  12.464  14.539  0.00  0.00     0.131 C 
BRANCH  16  17
HETATM   17  C   UNK N   1      36.288  13.229  14.195  0.00  0.00     0.050 C 
BRANCH  17  18
HETATM   18  C   UNK N   1      35.912  14.290  13.172  0.00  0.00     0.273 C 
BRANCH  18  19
HETATM   19  N   UNK N   1      35.541  13.695  11.895  0.00  0.00     0.080 N 
HETATM   20  C   UNK N   1      36.697  13.696  11.010  0.00  0.00     0.309 C 
HETATM   21  C   UNK N   1      34.570  14.590  11.290  0.00  0.00     0.309 C 
ENDBRANCH  18  19
ENDBRANCH  17  18
ENDBRANCH  16  17
ENDBRANCH   3  16
TORSDOF 4
ENDMDL
MODEL 6
REMARK VINA RESULT:      -5.5     12.422     14.413
REMARK  4 active torsions:
REMARK  status: ('A' for Active; 'I' for Inactive)
REMARK    1  A    between atoms: N_3  and  C_5 
REMARK    2  A    between atoms: N_4  and  C_7 
REMARK    3  A    between atoms: C_5  and  C_6 
REMARK    4  A    between atoms: C_6  and  C_7 
ROOT
HETATM    1 Cl   UNK N   1      37.525  15.711  16.250  0.00  0.00    -0.084 Cl
HETATM    2  S   UNK N   1      34.359  10.663  14.098  0.00  0.00    -0.086 SA
HETATM    3  N   UNK N   1      35.685  12.953  12.287  0.00  0.00    -0.345 N 
HETATM    4  C   UNK N   1      35.811  13.061  13.710  0.00  0.00     0.053 A 
HETATM    5  C   UNK N   1      34.909  11.938  11.630  0.00  0.00     0.052 A 
HETATM    6  C   UNK N   1      35.253  12.120  14.605  0.00  0.00     0.032 A 
HETATM    7  C   UNK N   1      34.267  10.892  12.331  0.00  0.00     0.032 A 
HETATM    8  C   UNK N   1      36.513  14.159  14.249  0.00  0.00     0.054 A 
HETATM    9  C   UNK N   1      34.779  11.975  10.226  0.00  0.00     0.031 A 
HETATM   10  C   UNK N   1      35.413  12.298  15.985  0.00  0.00     0.023 A 
HETATM   11  C   UNK N   1      33.529   9.933  11.625  0.00  0.00     0.021 A 
HETATM   12  C   UNK N   1      36.658  14.326  15.624  0.00  0.00     0.036 A 
HETATM   13  C   UNK N   1      34.035  11.018   9.537  0.00  0.00     0.002 A 
HETATM   14  C   UNK N   1      36.107  13.393  16.494  0.00  0.00     0.025 A 
HETATM   15  C   UNK N   1      33.408   9.995  10.238  0.00  0.00     0.002 A 
ENDROOT
BRANCH   3  16
HETATM   16  C   UNK N   1      36.420  13.909  11.471  0.00  0.00     0.131 C 
BRANCH  16  17
HETATM   17  C   UNK N   1      35.706  15.244  11.382  0.00  0.00     0.050 C 
BRANCH  17  18
HETATM   18  C   UNK N   1      35.554  15.581   9.907  0.00  0.00     0.273 C 
BRANCH  18  19
HETATM   19  N   UNK N   1      34.263  16.195   9.627  0.00  0.00     0.080 N 
HETATM   20  C   UNK N   1      33.441  15.264   8.869  0.00  0.00     0.309 C 
HETATM   21  C   UNK N   1      34.523  17.317   8.742  0.00  0.00     0.309 C 
ENDBRANCH  18  19
ENDBRANCH  17  18
ENDBRANCH  16  17
ENDBRANCH   3  16
TORSDOF 4
ENDMDL
MODEL 7
REMARK VINA RESULT:      -5.5     16.314     18.808
REMARK  4 active torsions:
REMARK  status: ('A' for Active; 'I' for Inactive)
REMARK    1  A    between atoms: N_3  and  C_5 
REMARK    2  A    between atoms: N_4  and  C_7 
REMARK    3  A    between atoms: C_5  and  C_6 
REMARK    4  A    between atoms: C_6  and  C_7 
ROOT
HETATM    1 Cl   UNK N   1      28.659  30.261  -2.701  0.00  0.00    -0.084 Cl
HETATM    2  S   UNK N   1      25.237  25.669  -5.410  0.00  0.00    -0.086 SA
HETATM    3  N   UNK N   1      28.415  25.631  -4.981  0.00  0.00    -0.345 N 
HETATM    4  C   UNK N   1      27.686  26.776  -4.524  0.00  0.00     0.053 A 
HETATM    5  C   UNK N   1      27.820  24.548  -5.714  0.00  0.00     0.052 A 
HETATM    6  C   UNK N   1      26.287  26.909  -4.675  0.00  0.00     0.032 A 
HETATM    7  C   UNK N   1      26.433  24.472  -5.976  0.00  0.00     0.032 A 
HETATM    8  C   UNK N   1      28.392  27.828  -3.904  0.00  0.00     0.054 A 
HETATM    9  C   UNK N   1      28.645  23.510  -6.195  0.00  0.00     0.031 A 
HETATM   10  C   UNK N   1      25.646  28.064  -4.209  0.00  0.00     0.023 A 
HETATM   11  C   UNK N   1      25.921  23.384  -6.695  0.00  0.00     0.021 A 
HETATM   12  C   UNK N   1      27.742  28.973  -3.451  0.00  0.00     0.036 A 
HETATM   13  C   UNK N   1      28.122  22.437  -6.916  0.00  0.00     0.002 A 
HETATM   14  C   UNK N   1      26.366  29.091  -3.603  0.00  0.00     0.025 A 
HETATM   15  C   UNK N   1      26.757  22.374  -7.167  0.00  0.00     0.002 A 
ENDROOT
BRANCH   3  16
HETATM   16  C   UNK N   1      29.829  25.553  -4.644  0.00  0.00     0.131 C 
BRANCH  16  17
HETATM   17  C   UNK N   1      30.055  24.863  -3.312  0.00  0.00     0.050 C 
BRANCH  17  18
HETATM   18  C   UNK N   1      30.998  23.696  -3.560  0.00  0.00     0.273 C 
BRANCH  18  19
HETATM   19  N   UNK N   1      30.655  22.545  -2.735  0.00  0.00     0.080 N 
HETATM   20  C   UNK N   1      30.485  21.377  -3.586  0.00  0.00     0.309 C 
HETATM   21  C   UNK N   1      29.349  22.821  -2.164  0.00  0.00     0.309 C 
ENDBRANCH  18  19
ENDBRANCH  17  18
ENDBRANCH  16  17
ENDBRANCH   3  16
TORSDOF 4
ENDMDL
MODEL 8
REMARK VINA RESULT:      -5.3      4.517      7.076
REMARK  4 active torsions:
REMARK  status: ('A' for Active; 'I' for Inactive)
REMARK    1  A    between atoms: N_3  and  C_5 
REMARK    2  A    between atoms: N_4  and  C_7 
REMARK    3  A    between atoms: C_5  and  C_6 
REMARK    4  A    between atoms: C_6  and  C_7 
ROOT
HETATM    1 Cl   UNK N   1      27.980  16.075   5.350  0.00  0.00    -0.084 Cl
HETATM    2  S   UNK N   1      24.123  20.562   3.085  0.00  0.00    -0.086 SA
HETATM    3  N   UNK N   1      23.220  17.664   4.119  0.00  0.00    -0.345 N 
HETATM    4  C   UNK N   1      24.613  17.994   4.169  0.00  0.00     0.053 A 
HETATM    5  C   UNK N   1      22.220  18.514   3.535  0.00  0.00     0.052 A 
HETATM    6  C   UNK N   1      25.127  19.233   3.724  0.00  0.00     0.032 A 
HETATM    7  C   UNK N   1      22.510  19.803   3.033  0.00  0.00     0.032 A 
HETATM    8  C   UNK N   1      25.520  17.039   4.671  0.00  0.00     0.054 A 
HETATM    9  C   UNK N   1      20.889  18.055   3.459  0.00  0.00     0.031 A 
HETATM   10  C   UNK N   1      26.504  19.480   3.797  0.00  0.00     0.023 A 
HETATM   11  C   UNK N   1      21.483  20.580   2.479  0.00  0.00     0.021 A 
HETATM   12  C   UNK N   1      26.888  17.295   4.732  0.00  0.00     0.036 A 
HETATM   13  C   UNK N   1      19.879  18.836   2.899  0.00  0.00     0.002 A 
HETATM   14  C   UNK N   1      27.381  18.519   4.295  0.00  0.00     0.025 A 
HETATM   15  C   UNK N   1      20.176  20.101   2.407  0.00  0.00     0.002 A 
ENDROOT
BRANCH   3  16
HETATM   16  C   UNK N   1      22.802  16.412   4.732  0.00  0.00     0.131 C 
BRANCH  16  17
HETATM   17  C   UNK N   1      22.388  16.602   6.179  0.00  0.00     0.050 C 
BRANCH  17  18
HETATM   18  C   UNK N   1      22.685  15.302   6.911  0.00  0.00     0.273 C 
BRANCH  18  19
HETATM   19  N   UNK N   1      21.619  14.955   7.841  0.00  0.00     0.080 N 
HETATM   20  C   UNK N   1      20.716  14.007   7.206  0.00  0.00     0.309 C 
HETATM   21  C   UNK N   1      20.847  16.166   8.055  0.00  0.00     0.309 C 
ENDBRANCH  18  19
ENDBRANCH  17  18
ENDBRANCH  16  17
ENDBRANCH   3  16
TORSDOF 4
ENDMDL
MODEL 9
REMARK VINA RESULT:      -5.3     17.642     19.345
REMARK  4 active torsions:
REMARK  status: ('A' for Active; 'I' for Inactive)
REMARK    1  A    between atoms: N_3  and  C_5 
REMARK    2  A    between atoms: N_4  and  C_7 
REMARK    3  A    between atoms: C_5  and  C_6 
REMARK    4  A    between atoms: C_6  and  C_7 
ROOT
HETATM    1 Cl   UNK N   1      29.613  20.024  -7.854  0.00  0.00    -0.084 Cl
HETATM    2  S   UNK N   1      28.353  24.686  -3.753  0.00  0.00    -0.086 SA
HETATM    3  N   UNK N   1      26.737  24.082  -6.456  0.00  0.00    -0.345 N 
HETATM    4  C   UNK N   1      27.842  23.232  -6.127  0.00  0.00     0.053 A 
HETATM    5  C   UNK N   1      26.378  25.251  -5.701  0.00  0.00     0.052 A 
HETATM    6  C   UNK N   1      28.635  23.415  -4.972  0.00  0.00     0.032 A 
HETATM    7  C   UNK N   1      27.033  25.621  -4.505  0.00  0.00     0.032 A 
HETATM    8  C   UNK N   1      28.166  22.171  -6.997  0.00  0.00     0.054 A 
HETATM    9  C   UNK N   1      25.324  26.068  -6.162  0.00  0.00     0.031 A 
HETATM   10  C   UNK N   1      29.706  22.546  -4.722  0.00  0.00     0.023 A 
HETATM   11  C   UNK N   1      26.628  26.773  -3.819  0.00  0.00     0.021 A 
HETATM   12  C   UNK N   1      29.237  21.319  -6.739  0.00  0.00     0.036 A 
HETATM   13  C   UNK N   1      24.936  27.216  -5.473  0.00  0.00     0.002 A 
HETATM   14  C   UNK N   1      30.009  21.507  -5.598  0.00  0.00     0.025 A 
HETATM   15  C   UNK N   1      25.590  27.570  -4.299  0.00  0.00     0.002 A 
ENDROOT
BRANCH   3  16
HETATM   16  C   UNK N   1      25.916  23.707  -7.598  0.00  0.00     0.131 C 
BRANCH  16  17
HETATM   17  C   UNK N   1      26.411  24.343  -8.883  0.00  0.00     0.050 C 
BRANCH  17  18
HETATM   18  C   UNK N   1      25.187  24.746  -9.691  0.00  0.00     0.273 C 
BRANCH  18  19
HETATM   19  N   UNK N   1      25.539  25.640 -10.787  0.00  0.00     0.080 N 
HETATM   20  C   UNK N   1      25.754  24.857 -11.995  0.00  0.00     0.309 C 
HETATM   21  C   UNK N   1      26.826  26.220 -10.449  0.00  0.00     0.309 C 
ENDBRANCH  18  19
ENDBRANCH  17  18
ENDBRANCH  16  17
ENDBRANCH   3  16
TORSDOF 4
ENDMDL
