MODEL 1
REMARK VINA RESULT:      -5.2      0.000      0.000
REMARK  2 active torsions:
REMARK  status: ('A' for Active; 'I' for Inactive)
REMARK    1  A    between atoms: N_1  and  C_12 
REMARK    2  A    between atoms: C_2  and  C_12 
ROOT
HETATM    1  C   UNK N   1      26.199  26.793  -6.147  0.00  0.00    -0.020 C 
HETATM    2  C   UNK N   1      25.511  28.063  -4.070  0.00  0.00    -0.013 C 
HETATM    3  C   UNK N   1      27.468  26.479  -3.980  0.00  0.00    -0.013 C 
HETATM    4  C   UNK N   1      27.663  28.648  -5.241  0.00  0.00    -0.013 C 
HETATM    5  C   UNK N   1      25.010  27.372  -5.348  0.00  0.00     0.016 C 
HETATM    6  C   UNK N   1      26.961  25.789  -5.256  0.00  0.00     0.016 C 
HETATM    7  C   UNK N   1      27.162  27.943  -6.510  0.00  0.00     0.016 C 
HETATM    8  C   UNK N   1      26.269  27.044  -3.203  0.00  0.00     0.009 C 
HETATM    9  C   UNK N   1      26.462  29.206  -4.458  0.00  0.00     0.009 C 
HETATM   10  C   UNK N   1      28.410  27.631  -4.365  0.00  0.00     0.009 C 
ENDROOT
BRANCH   1  11
HETATM   11  C   UNK N   1      25.723  26.088  -7.430  0.00  0.00     0.078 C 
HETATM   12  C   UNK N   1      26.686  26.280  -8.594  0.00  0.00     0.032 C 
BRANCH  11  13
HETATM   13  N   UNK N   1      25.519  24.663  -7.209  0.00  0.00    -0.426 N 
HETATM   14  H   UNK N   1      25.823  23.799  -7.658  0.00  0.00     0.150 HD
HETATM   15  H   UNK N   1      24.919  24.485  -6.403  0.00  0.00     0.150 HD
ENDBRANCH  11  13
ENDBRANCH   1  11
TORSDOF 2
ENDMDL
MODEL 2
REMARK VINA RESULT:      -5.2      0.066      2.100
REMARK  2 active torsions:
REMARK  status: ('A' for Active; 'I' for Inactive)
REMARK    1  A    between atoms: N_1  and  C_12 
REMARK    2  A    between atoms: C_2  and  C_12 
ROOT
HETATM    1  C   UNK N   1      26.194  26.761  -6.135  0.00  0.00    -0.020 C 
HETATM    2  C   UNK N   1      27.677  28.619  -5.269  0.00  0.00    -0.013 C 
HETATM    3  C   UNK N   1      25.519  28.082  -4.084  0.00  0.00    -0.013 C 
HETATM    4  C   UNK N   1      27.456  26.480  -3.958  0.00  0.00    -0.013 C 
HETATM    5  C   UNK N   1      27.168  27.896  -6.526  0.00  0.00     0.016 C 
HETATM    6  C   UNK N   1      25.013  27.364  -5.344  0.00  0.00     0.016 C 
HETATM    7  C   UNK N   1      26.933  25.767  -5.214  0.00  0.00     0.016 C 
HETATM    8  C   UNK N   1      26.482  29.206  -4.498  0.00  0.00     0.009 C 
HETATM    9  C   UNK N   1      28.412  27.611  -4.373  0.00  0.00     0.009 C 
HETATM   10  C   UNK N   1      26.266  27.078  -3.192  0.00  0.00     0.009 C 
ENDROOT
BRANCH   1  11
HETATM   11  C   UNK N   1      25.663  26.024  -7.377  0.00  0.00     0.078 C 
HETATM   12  C   UNK N   1      26.546  26.231  -8.601  0.00  0.00     0.032 C 
BRANCH  11  13
HETATM   13  N   UNK N   1      25.519  24.597  -7.128  0.00  0.00    -0.426 N 
HETATM   14  H   UNK N   1      25.438  24.000  -6.305  0.00  0.00     0.150 HD
HETATM   15  H   UNK N   1      25.493  24.060  -7.994  0.00  0.00     0.150 HD
ENDBRANCH  11  13
ENDBRANCH   1  11
TORSDOF 2
ENDMDL
MODEL 3
REMARK VINA RESULT:      -5.2      0.112      2.067
REMARK  2 active torsions:
REMARK  status: ('A' for Active; 'I' for Inactive)
REMARK    1  A    between atoms: N_1  and  C_12 
REMARK    2  A    between atoms: C_2  and  C_12 
ROOT
HETATM    1  C   UNK N   1      26.181  26.705  -6.185  0.00  0.00    -0.020 C 
HETATM    2  C   UNK N   1      27.424  26.438  -3.998  0.00  0.00    -0.013 C 
HETATM    3  C   UNK N   1      27.689  28.554  -5.341  0.00  0.00    -0.013 C 
HETATM    4  C   UNK N   1      25.517  28.075  -4.163  0.00  0.00    -0.013 C 
HETATM    5  C   UNK N   1      26.901  25.711  -5.246  0.00  0.00     0.016 C 
HETATM    6  C   UNK N   1      27.169  27.821  -6.587  0.00  0.00     0.016 C 
HETATM    7  C   UNK N   1      25.008  27.352  -5.419  0.00  0.00     0.016 C 
HETATM    8  C   UNK N   1      28.402  27.546  -4.425  0.00  0.00     0.009 C 
HETATM    9  C   UNK N   1      26.239  27.069  -3.251  0.00  0.00     0.009 C 
HETATM   10  C   UNK N   1      26.504  29.175  -4.584  0.00  0.00     0.009 C 
ENDROOT
BRANCH   1  11
HETATM   11  C   UNK N   1      25.653  26.002  -7.448  0.00  0.00     0.078 C 
HETATM   12  C   UNK N   1      26.534  26.249  -8.666  0.00  0.00     0.032 C 
BRANCH  11  13
HETATM   13  N   UNK N   1      25.517  24.567  -7.240  0.00  0.00    -0.426 N 
HETATM   14  H   UNK N   1      24.828  23.853  -7.476  0.00  0.00     0.150 HD
HETATM   15  H   UNK N   1      26.309  24.180  -6.728  0.00  0.00     0.150 HD
ENDBRANCH  11  13
ENDBRANCH   1  11
TORSDOF 2
ENDMDL
MODEL 4
REMARK VINA RESULT:      -5.1     26.201     27.981
REMARK  2 active torsions:
REMARK  status: ('A' for Active; 'I' for Inactive)
REMARK    1  A    between atoms: N_1  and  C_12 
REMARK    2  A    between atoms: C_2  and  C_12 
ROOT
HETATM    1  C   UNK N   1      35.334  12.718  16.724  0.00  0.00    -0.020 C 
HETATM    2  C   UNK N   1      36.612  12.678  14.541  0.00  0.00    -0.013 C 
HETATM    3  C   UNK N   1      36.165  10.526  15.771  0.00  0.00    -0.013 C 
HETATM    4  C   UNK N   1      34.275  11.744  14.641  0.00  0.00    -0.013 C 
HETATM    5  C   UNK N   1      36.345  13.471  15.830  0.00  0.00     0.016 C 
HETATM    6  C   UNK N   1      35.903  11.322  17.058  0.00  0.00     0.016 C 
HETATM    7  C   UNK N   1      34.020  12.528  15.938  0.00  0.00     0.016 C 
HETATM    8  C   UNK N   1      37.173  11.292  14.901  0.00  0.00     0.009 C 
HETATM    9  C   UNK N   1      35.292  12.507  13.774  0.00  0.00     0.009 C 
HETATM   10  C   UNK N   1      34.848  10.363  14.996  0.00  0.00     0.009 C 
ENDROOT
BRANCH   1  11
HETATM   11  C   UNK N   1      35.054  13.489  18.026  0.00  0.00     0.078 C 
HETATM   12  C   UNK N   1      35.295  12.642  19.269  0.00  0.00     0.032 C 
BRANCH  11  13
HETATM   13  N   UNK N   1      35.858  14.700  18.110  0.00  0.00    -0.426 N 
HETATM   14  H   UNK N   1      36.733  14.972  18.558  0.00  0.00     0.150 HD
HETATM   15  H   UNK N   1      35.439  15.471  17.590  0.00  0.00     0.150 HD
ENDBRANCH  11  13
ENDBRANCH   1  11
TORSDOF 2
ENDMDL
MODEL 5
REMARK VINA RESULT:      -5.0     26.120     27.901
REMARK  2 active torsions:
REMARK  status: ('A' for Active; 'I' for Inactive)
REMARK    1  A    between atoms: N_1  and  C_12 
REMARK    2  A    between atoms: C_2  and  C_12 
ROOT
HETATM    1  C   UNK N   1      35.392  12.670  16.645  0.00  0.00    -0.020 C 
HETATM    2  C   UNK N   1      36.397  10.637  15.524  0.00  0.00    -0.013 C 
HETATM    3  C   UNK N   1      34.440  11.814  14.462  0.00  0.00    -0.013 C 
HETATM    4  C   UNK N   1      36.703  12.914  14.493  0.00  0.00    -0.013 C 
HETATM    5  C   UNK N   1      36.064  11.297  16.871  0.00  0.00     0.016 C 
HETATM    6  C   UNK N   1      34.108  12.469  15.811  0.00  0.00     0.016 C 
HETATM    7  C   UNK N   1      36.354  13.568  15.839  0.00  0.00     0.016 C 
HETATM    8  C   UNK N   1      35.104  10.451  14.712  0.00  0.00     0.009 C 
HETATM    9  C   UNK N   1      37.359  11.545  14.744  0.00  0.00     0.009 C 
HETATM   10  C   UNK N   1      35.413  12.716  13.684  0.00  0.00     0.009 C 
ENDROOT
BRANCH   1  11
HETATM   11  C   UNK N   1      35.041  13.350  17.980  0.00  0.00     0.078 C 
HETATM   12  C   UNK N   1      35.337  12.464  19.183  0.00  0.00     0.032 C 
BRANCH  11  13
HETATM   13  N   UNK N   1      35.745  14.615  18.134  0.00  0.00    -0.426 N 
HETATM   14  H   UNK N   1      36.651  14.991  17.852  0.00  0.00     0.150 HD
HETATM   15  H   UNK N   1      35.194  15.297  18.656  0.00  0.00     0.150 HD
ENDBRANCH  11  13
ENDBRANCH   1  11
TORSDOF 2
ENDMDL
MODEL 6
REMARK VINA RESULT:      -5.0     26.118     27.902
REMARK  2 active torsions:
REMARK  status: ('A' for Active; 'I' for Inactive)
REMARK    1  A    between atoms: N_1  and  C_12 
REMARK    2  A    between atoms: C_2  and  C_12 
ROOT
HETATM    1  C   UNK N   1      35.372  12.691  16.632  0.00  0.00    -0.020 C 
HETATM    2  C   UNK N   1      34.447  11.797  14.453  0.00  0.00    -0.013 C 
HETATM    3  C   UNK N   1      36.702  12.920  14.491  0.00  0.00    -0.013 C 
HETATM    4  C   UNK N   1      36.409  10.653  15.544  0.00  0.00    -0.013 C 
HETATM    5  C   UNK N   1      34.094  12.459  15.795  0.00  0.00     0.016 C 
HETATM    6  C   UNK N   1      36.343  13.583  15.829  0.00  0.00     0.016 C 
HETATM    7  C   UNK N   1      36.059  11.331  16.878  0.00  0.00     0.016 C 
HETATM    8  C   UNK N   1      35.417  12.703  13.676  0.00  0.00     0.009 C 
HETATM    9  C   UNK N   1      35.124  10.444  14.724  0.00  0.00     0.009 C 
HETATM   10  C   UNK N   1      37.368  11.561  14.759  0.00  0.00     0.009 C 
ENDROOT
BRANCH   1  11
HETATM   11  C   UNK N   1      35.047  13.360  17.979  0.00  0.00     0.078 C 
HETATM   12  C   UNK N   1      35.346  12.457  19.168  0.00  0.00     0.032 C 
BRANCH  11  13
HETATM   13  N   UNK N   1      35.770  14.614  18.137  0.00  0.00    -0.426 N 
HETATM   14  H   UNK N   1      36.344  15.211  17.543  0.00  0.00     0.150 HD
HETATM   15  H   UNK N   1      35.679  14.990  19.082  0.00  0.00     0.150 HD
ENDBRANCH  11  13
ENDBRANCH   1  11
TORSDOF 2
ENDMDL
MODEL 7
REMARK VINA RESULT:      -5.0      1.984      3.276
REMARK  2 active torsions:
REMARK  status: ('A' for Active; 'I' for Inactive)
REMARK    1  A    between atoms: N_1  and  C_12 
REMARK    2  A    between atoms: C_2  and  C_12 
ROOT
HETATM    1  C   UNK N   1      27.518  27.703  -5.949  0.00  0.00    -0.020 C 
HETATM    2  C   UNK N   1      26.961  25.940  -4.223  0.00  0.00    -0.013 C 
HETATM    3  C   UNK N   1      25.496  27.977  -4.452  0.00  0.00    -0.013 C 
HETATM    4  C   UNK N   1      25.492  26.216  -6.250  0.00  0.00    -0.013 C 
HETATM    5  C   UNK N   1      28.097  26.674  -4.952  0.00  0.00     0.016 C 
HETATM    6  C   UNK N   1      26.636  28.708  -5.178  0.00  0.00     0.016 C 
HETATM    7  C   UNK N   1      26.627  26.962  -6.968  0.00  0.00     0.016 C 
HETATM    8  C   UNK N   1      26.096  26.963  -3.466  0.00  0.00     0.009 C 
HETATM    9  C   UNK N   1      26.092  25.207  -5.256  0.00  0.00     0.009 C 
HETATM   10  C   UNK N   1      24.633  27.232  -5.483  0.00  0.00     0.009 C 
ENDROOT
BRANCH   1  11
HETATM   11  C   UNK N   1      28.637  28.458  -6.689  0.00  0.00     0.078 C 
HETATM   12  C   UNK N   1      28.618  28.205  -8.191  0.00  0.00     0.032 C 
BRANCH  11  13
HETATM   13  N   UNK N   1      28.562  29.891  -6.445  0.00  0.00    -0.426 N 
HETATM   14  H   UNK N   1      28.419  30.727  -7.012  0.00  0.00     0.150 HD
HETATM   15  H   UNK N   1      28.685  30.116  -5.457  0.00  0.00     0.150 HD
ENDBRANCH  11  13
ENDBRANCH   1  11
TORSDOF 2
ENDMDL
MODEL 8
REMARK VINA RESULT:      -5.0      2.040      3.699
REMARK  2 active torsions:
REMARK  status: ('A' for Active; 'I' for Inactive)
REMARK    1  A    between atoms: N_1  and  C_12 
REMARK    2  A    between atoms: C_2  and  C_12 
ROOT
HETATM    1  C   UNK N   1      26.895  28.061  -4.923  0.00  0.00    -0.020 C 
HETATM    2  C   UNK N   1      25.074  26.437  -5.592  0.00  0.00    -0.013 C 
HETATM    3  C   UNK N   1      27.033  26.827  -7.128  0.00  0.00    -0.013 C 
HETATM    4  C   UNK N   1      27.357  25.573  -4.970  0.00  0.00    -0.013 C 
HETATM    5  C   UNK N   1      25.381  27.756  -4.865  0.00  0.00     0.016 C 
HETATM    6  C   UNK N   1      27.333  28.146  -6.401  0.00  0.00     0.016 C 
HETATM    7  C   UNK N   1      27.663  26.899  -4.258  0.00  0.00     0.016 C 
HETATM    8  C   UNK N   1      25.524  26.546  -7.059  0.00  0.00     0.009 C 
HETATM    9  C   UNK N   1      25.845  25.296  -4.909  0.00  0.00     0.009 C 
HETATM   10  C   UNK N   1      27.793  25.682  -6.439  0.00  0.00     0.009 C 
ENDROOT
BRANCH   1  11
HETATM   11  C   UNK N   1      27.228  29.382  -4.207  0.00  0.00     0.078 C 
HETATM   12  C   UNK N   1      27.913  30.387  -5.124  0.00  0.00     0.032 C 
BRANCH  11  13
HETATM   13  N   UNK N   1      26.036  29.992  -3.635  0.00  0.00    -0.426 N 
HETATM   14  H   UNK N   1      25.034  29.803  -3.651  0.00  0.00     0.150 HD
HETATM   15  H   UNK N   1      26.260  30.818  -3.079  0.00  0.00     0.150 HD
ENDBRANCH  11  13
ENDBRANCH   1  11
TORSDOF 2
ENDMDL
MODEL 9
REMARK VINA RESULT:      -5.0      1.985      3.036
REMARK  2 active torsions:
REMARK  status: ('A' for Active; 'I' for Inactive)
REMARK    1  A    between atoms: N_1  and  C_12 
REMARK    2  A    between atoms: C_2  and  C_12 
ROOT
HETATM    1  C   UNK N   1      27.503  27.716  -5.968  0.00  0.00    -0.020 C 
HETATM    2  C   UNK N   1      25.502  27.972  -4.440  0.00  0.00    -0.013 C 
HETATM    3  C   UNK N   1      25.478  26.226  -6.256  0.00  0.00    -0.013 C 
HETATM    4  C   UNK N   1      26.970  25.934  -4.251  0.00  0.00    -0.013 C 
HETATM    5  C   UNK N   1      26.635  28.714  -5.168  0.00  0.00     0.016 C 
HETATM    6  C   UNK N   1      26.607  26.972  -6.982  0.00  0.00     0.016 C 
HETATM    7  C   UNK N   1      28.092  26.676  -4.992  0.00  0.00     0.016 C 
HETATM    8  C   UNK N   1      24.628  27.238  -5.471  0.00  0.00     0.009 C 
HETATM    9  C   UNK N   1      26.114  26.948  -3.472  0.00  0.00     0.009 C 
HETATM   10  C   UNK N   1      26.087  25.209  -5.277  0.00  0.00     0.009 C 
ENDROOT
BRANCH   1  11
HETATM   11  C   UNK N   1      28.641  28.435  -6.713  0.00  0.00     0.078 C 
HETATM   12  C   UNK N   1      28.625  28.160  -8.211  0.00  0.00     0.032 C 
BRANCH  11  13
HETATM   13  N   UNK N   1      28.597  29.873  -6.490  0.00  0.00    -0.426 N 
HETATM   14  H   UNK N   1      28.114  30.503  -5.850  0.00  0.00     0.150 HD
HETATM   15  H   UNK N   1      29.201  30.378  -7.140  0.00  0.00     0.150 HD
ENDBRANCH  11  13
ENDBRANCH   1  11
TORSDOF 2
ENDMDL
