MODEL 1
REMARK VINA RESULT:      -7.6      0.000      0.000
REMARK  22 active torsions:
REMARK  status: ('A' for Active; 'I' for Inactive)
REMARK    1  A    between atoms: C_19  and  O_1 
REMARK    2  A    between atoms: C_25  and  O_1 
REMARK    3  A    between atoms: C_20  and  O_2 
REMARK    4  A    between atoms: C_26  and  O_2 
REMARK    5  A    between atoms: C_22  and  O_3 
REMARK    6  A    between atoms: C_27  and  O_6 
REMARK    7  A    between atoms: C_29  and  O_7 
REMARK    8  A    between atoms: C_30  and  O_8 
REMARK    9  A    between atoms: C_31  and  O_9 
REMARK   10  A    between atoms: C_33  and  O_10 
REMARK   11  A    between atoms: O_12  and  C_36 
REMARK   12  A    between atoms: C_38  and  O_13 
REMARK   13  A    between atoms: C_21  and  N_14 
REMARK       I    between atoms: N_14  and  C_35 
REMARK   14  A    between atoms: C_23  and  N_15 
REMARK   15  A    between atoms: C_28  and  N_16 
REMARK   16  A    between atoms: N_17  and  C_37 
REMARK   17  A    between atoms: N_18  and  C_40 
REMARK   18  A    between atoms: C_32  and  C_36 
REMARK   19  A    between atoms: C_34  and  C_37 
REMARK   20  A    between atoms: C_35  and  C_38 
REMARK   21  A    between atoms: C_38  and  C_39 
REMARK   22  A    between atoms: C_39  and  C_40 
ROOT
HETATM    1  C   UNK N   1      22.813  18.384   5.352  0.00  0.00     0.178 C 
HETATM    2  C   UNK N   1      22.946  15.990   6.300  0.00  0.00     0.178 C 
HETATM    3  C   UNK N   1      23.807  17.867   4.294  0.00  0.00     0.118 C 
HETATM    4  C   UNK N   1      22.025  17.101   5.763  0.00  0.00     0.180 C 
HETATM    5  C   UNK N   1      24.082  15.684   5.312  0.00  0.00     0.107 C 
HETATM    6  C   UNK N   1      24.818  16.957   4.967  0.00  0.00     0.055 C 
ENDROOT
BRANCH   1   7
HETATM    7  O   UNK N   1      22.015  19.403   4.764  0.00  0.00    -0.349 OA
BRANCH   7   8
HETATM    8  C   UNK N   1      21.611  19.135   3.427  0.00  0.00     0.291 C 
HETATM    9  O   UNK N   1      20.619  18.143   3.298  0.00  0.00    -0.349 OA
HETATM   10  C   UNK N   1      20.787  17.677   1.980  0.00  0.00     0.179 C 
HETATM   11  C   UNK N   1      20.201  18.708   1.006  0.00  0.00     0.174 C 
HETATM   12  C   UNK N   1      20.938  20.038   1.224  0.00  0.00     0.139 C 
HETATM   13  C   UNK N   1      21.086  20.388   2.716  0.00  0.00     0.198 C 
BRANCH  10  14
HETATM   14  C   UNK N   1      20.199  16.284   1.825  0.00  0.00     0.198 C 
BRANCH  14  15
HETATM   15  O   UNK N   1      20.809  15.635   0.751  0.00  0.00    -0.398 OA
HETATM   16  H   UNK N   1      20.743  15.728  -0.212  0.00  0.00     0.209 HD
ENDBRANCH  14  15
ENDBRANCH  10  14
BRANCH  11  17
HETATM   17  O   UNK N   1      20.383  18.295  -0.315  0.00  0.00    -0.391 OA
HETATM   18  H   UNK N   1      20.629  17.397  -0.590  0.00  0.00     0.210 HD
ENDBRANCH  11  17
BRANCH  12  19
HETATM   19  N   UNK N   1      20.264  21.110   0.510  0.00  0.00    -0.421 N 
HETATM   20  H   UNK N   1      20.532  21.375  -0.439  0.00  0.00     0.150 HD
HETATM   21  H   UNK N   1      19.504  21.611   0.969  0.00  0.00     0.150 HD
ENDBRANCH  12  19
BRANCH  13  22
HETATM   22  O   UNK N   1      21.981  21.447   2.859  0.00  0.00    -0.388 OA
HETATM   23  H   UNK N   1      22.829  21.567   3.315  0.00  0.00     0.210 HD
ENDBRANCH  13  22
ENDBRANCH   7   8
ENDBRANCH   1   7
BRANCH   3  24
HETATM   24  N   UNK N   1      24.440  18.869   3.458  0.00  0.00    -0.352 N 
HETATM   25  C   UNK N   1      25.595  19.491   3.836  0.00  0.00     0.246 C 
HETATM   26  O   UNK N   1      26.115  20.296   3.074  0.00  0.00    -0.271 OA
HETATM   27  H   UNK N   1      24.026  19.107   2.598  0.00  0.00     0.163 HD
BRANCH  25  28
HETATM   28  C   UNK N   1      26.221  19.234   5.197  0.00  0.00     0.211 C 
BRANCH  28  29
HETATM   29  O   UNK N   1      27.541  18.795   5.064  0.00  0.00    -0.386 OA
HETATM   30  H   UNK N   1      28.322  18.363   4.685  0.00  0.00     0.210 HD
ENDBRANCH  28  29
BRANCH  28  31
HETATM   31  C   UNK N   1      26.153  20.404   6.168  0.00  0.00     0.060 C 
BRANCH  31  32
HETATM   32  C   UNK N   1      27.428  20.440   6.995  0.00  0.00     0.114 C 
BRANCH  32  33
HETATM   33  N   UNK N   1      27.367  19.439   8.043  0.00  0.00    -0.430 N 
HETATM   34  H   UNK N   1      27.457  19.713   9.021  0.00  0.00     0.149 HD
HETATM   35  H   UNK N   1      27.233  18.457   7.800  0.00  0.00     0.149 HD
ENDBRANCH  32  33
ENDBRANCH  31  32
ENDBRANCH  28  31
ENDBRANCH  25  28
ENDBRANCH   3  24
BRANCH   4  36
HETATM   36  O   UNK N   1      21.045  17.344   6.721  0.00  0.00    -0.390 OA
HETATM   37  H   UNK N   1      21.264  17.281   7.664  0.00  0.00     0.210 HD
ENDBRANCH   4  36
BRANCH   2  38
HETATM   38  O   UNK N   1      22.166  14.844   6.500  0.00  0.00    -0.349 OA
BRANCH  38  39
HETATM   39  C   UNK N   1      22.251  14.535   7.858  0.00  0.00     0.292 C 
HETATM   40  O   UNK N   1      23.187  13.499   8.014  0.00  0.00    -0.349 OA
HETATM   41  C   UNK N   1      23.446  13.379   9.389  0.00  0.00     0.173 C 
HETATM   42  C   UNK N   1      22.223  12.745  10.058  0.00  0.00     0.180 C 
HETATM   43  C   UNK N   1      21.037  13.692   9.859  0.00  0.00     0.183 C 
HETATM   44  C   UNK N   1      20.887  14.074   8.386  0.00  0.00     0.204 C 
BRANCH  41  45
HETATM   45  C   UNK N   1      24.689  12.527   9.589  0.00  0.00     0.145 C 
BRANCH  45  46
HETATM   46  N   UNK N   1      25.219  12.735  10.925  0.00  0.00    -0.428 N 
HETATM   47  H   UNK N   1      26.072  13.271  11.083  0.00  0.00     0.150 HD
HETATM   48  H   UNK N   1      24.727  12.335  11.725  0.00  0.00     0.150 HD
ENDBRANCH  45  46
ENDBRANCH  41  45
BRANCH  42  49
HETATM   49  O   UNK N   1      22.451  12.564  11.425  0.00  0.00    -0.390 OA
HETATM   50  H   UNK N   1      22.797  13.136  12.127  0.00  0.00     0.210 HD
ENDBRANCH  42  49
BRANCH  43  51
HETATM   51  O   UNK N   1      19.862  13.101  10.324  0.00  0.00    -0.390 OA
HETATM   52  H   UNK N   1      19.067  13.035   9.772  0.00  0.00     0.210 HD
ENDBRANCH  43  51
BRANCH  44  53
HETATM   53  O   UNK N   1      19.952  15.104   8.263  0.00  0.00    -0.388 OA
HETATM   54  H   UNK N   1      19.060  14.973   7.902  0.00  0.00     0.210 HD
ENDBRANCH  44  53
ENDBRANCH  38  39
ENDBRANCH   2  38
BRANCH   5  55
HETATM   55  N   UNK N   1      25.022  14.730   5.871  0.00  0.00    -0.423 N 
HETATM   56  H   UNK N   1      26.033  14.749   5.737  0.00  0.00     0.150 HD
HETATM   57  H   UNK N   1      24.641  13.979   6.445  0.00  0.00     0.150 HD
ENDBRANCH   5  55
TORSDOF 22
ENDMDL
MODEL 2
REMARK VINA RESULT:      -7.5      2.702      5.559
REMARK  22 active torsions:
REMARK  status: ('A' for Active; 'I' for Inactive)
REMARK    1  A    between atoms: C_19  and  O_1 
REMARK    2  A    between atoms: C_25  and  O_1 
REMARK    3  A    between atoms: C_20  and  O_2 
REMARK    4  A    between atoms: C_26  and  O_2 
REMARK    5  A    between atoms: C_22  and  O_3 
REMARK    6  A    between atoms: C_27  and  O_6 
REMARK    7  A    between atoms: C_29  and  O_7 
REMARK    8  A    between atoms: C_30  and  O_8 
REMARK    9  A    between atoms: C_31  and  O_9 
REMARK   10  A    between atoms: C_33  and  O_10 
REMARK   11  A    between atoms: O_12  and  C_36 
REMARK   12  A    between atoms: C_38  and  O_13 
REMARK   13  A    between atoms: C_21  and  N_14 
REMARK       I    between atoms: N_14  and  C_35 
REMARK   14  A    between atoms: C_23  and  N_15 
REMARK   15  A    between atoms: C_28  and  N_16 
REMARK   16  A    between atoms: N_17  and  C_37 
REMARK   17  A    between atoms: N_18  and  C_40 
REMARK   18  A    between atoms: C_32  and  C_36 
REMARK   19  A    between atoms: C_34  and  C_37 
REMARK   20  A    between atoms: C_35  and  C_38 
REMARK   21  A    between atoms: C_38  and  C_39 
REMARK   22  A    between atoms: C_39  and  C_40 
ROOT
HETATM    1  C   UNK N   1      21.942  15.717   4.226  0.00  0.00     0.178 C 
HETATM    2  C   UNK N   1      23.654  14.459   5.688  0.00  0.00     0.178 C 
HETATM    3  C   UNK N   1      21.447  14.308   3.846  0.00  0.00     0.118 C 
HETATM    4  C   UNK N   1      22.534  15.516   5.656  0.00  0.00     0.180 C 
HETATM    5  C   UNK N   1      23.187  13.137   5.060  0.00  0.00     0.107 C 
HETATM    6  C   UNK N   1      22.643  13.392   3.675  0.00  0.00     0.055 C 
ENDROOT
BRANCH   1   7
HETATM    7  O   UNK N   1      20.844  16.617   4.164  0.00  0.00    -0.349 OA
BRANCH   7   8
HETATM    8  C   UNK N   1      21.193  17.946   3.794  0.00  0.00     0.291 C 
HETATM    9  O   UNK N   1      22.544  18.124   3.438  0.00  0.00    -0.349 OA
HETATM   10  C   UNK N   1      22.765  19.497   3.659  0.00  0.00     0.179 C 
HETATM   11  C   UNK N   1      22.126  20.296   2.514  0.00  0.00     0.174 C 
HETATM   12  C   UNK N   1      20.624  19.971   2.491  0.00  0.00     0.139 C 
HETATM   13  C   UNK N   1      20.350  18.462   2.621  0.00  0.00     0.198 C 
BRANCH  10  14
HETATM   14  C   UNK N   1      24.247  19.777   3.848  0.00  0.00     0.198 C 
BRANCH  14  15
HETATM   15  O   UNK N   1      24.761  20.374   2.696  0.00  0.00    -0.398 OA
HETATM   16  H   UNK N   1      25.436  21.054   2.539  0.00  0.00     0.209 HD
ENDBRANCH  14  15
ENDBRANCH  10  14
BRANCH  11  17
HETATM   17  O   UNK N   1      22.295  21.667   2.719  0.00  0.00    -0.391 OA
HETATM   18  H   UNK N   1      22.858  22.246   2.182  0.00  0.00     0.210 HD
ENDBRANCH  11  17
BRANCH  12  19
HETATM   19  N   UNK N   1      20.013  20.502   1.284  0.00  0.00    -0.421 N 
HETATM   20  H   UNK N   1      19.001  20.517   1.156  0.00  0.00     0.150 HD
HETATM   21  H   UNK N   1      20.612  20.870   0.545  0.00  0.00     0.150 HD
ENDBRANCH  12  19
BRANCH  13  22
HETATM   22  O   UNK N   1      18.992  18.255   2.861  0.00  0.00    -0.388 OA
HETATM   23  H   UNK N   1      18.337  17.605   2.561  0.00  0.00     0.210 HD
ENDBRANCH  13  22
ENDBRANCH   7   8
ENDBRANCH   1   7
BRANCH   3  24
HETATM   24  N   UNK N   1      20.527  14.228   2.728  0.00  0.00    -0.352 N 
HETATM   25  C   UNK N   1      19.316  13.607   2.839  0.00  0.00     0.246 C 
HETATM   26  O   UNK N   1      18.556  13.607   1.879  0.00  0.00    -0.271 OA
HETATM   27  H   UNK N   1      20.782  14.631   1.867  0.00  0.00     0.163 HD
BRANCH  25  28
HETATM   28  C   UNK N   1      18.915  12.883   4.114  0.00  0.00     0.211 C 
BRANCH  28  29
HETATM   29  O   UNK N   1      17.812  13.499   4.712  0.00  0.00    -0.386 OA
HETATM   30  H   UNK N   1      17.014  13.611   5.250  0.00  0.00     0.210 HD
ENDBRANCH  28  29
BRANCH  28  31
HETATM   31  C   UNK N   1      18.660  11.391   3.955  0.00  0.00     0.060 C 
BRANCH  31  32
HETATM   32  C   UNK N   1      19.553  10.627   4.920  0.00  0.00     0.114 C 
BRANCH  32  33
HETATM   33  N   UNK N   1      20.207  11.551   5.826  0.00  0.00    -0.430 N 
HETATM   34  H   UNK N   1      20.347  11.300   6.805  0.00  0.00     0.149 HD
HETATM   35  H   UNK N   1      20.530  12.457   5.483  0.00  0.00     0.149 HD
ENDBRANCH  32  33
ENDBRANCH  31  32
ENDBRANCH  28  31
ENDBRANCH  25  28
ENDBRANCH   3  24
BRANCH   4  36
HETATM   36  O   UNK N   1      23.040  16.689   6.209  0.00  0.00    -0.390 OA
HETATM   37  H   UNK N   1      23.850  17.084   5.850  0.00  0.00     0.210 HD
ENDBRANCH   4  36
BRANCH   2  38
HETATM   38  O   UNK N   1      24.012  14.252   7.026  0.00  0.00    -0.349 OA
BRANCH  38  39
HETATM   39  C   UNK N   1      22.882  13.738   7.666  0.00  0.00     0.292 C 
HETATM   40  O   UNK N   1      22.199  14.805   8.274  0.00  0.00    -0.349 OA
HETATM   41  C   UNK N   1      20.950  14.314   8.686  0.00  0.00     0.173 C 
HETATM   42  C   UNK N   1      21.166  13.403   9.899  0.00  0.00     0.180 C 
HETATM   43  C   UNK N   1      22.036  12.226   9.450  0.00  0.00     0.183 C 
HETATM   44  C   UNK N   1      23.295  12.720   8.737  0.00  0.00     0.204 C 
BRANCH  41  45
HETATM   45  C   UNK N   1      20.045  15.486   9.031  0.00  0.00     0.145 C 
BRANCH  45  46
HETATM   46  N   UNK N   1      20.459  16.664   8.288  0.00  0.00    -0.428 N 
HETATM   47  H   UNK N   1      20.858  16.592   7.353  0.00  0.00     0.150 HD
HETATM   48  H   UNK N   1      20.348  17.585   8.713  0.00  0.00     0.150 HD
ENDBRANCH  45  46
ENDBRANCH  41  45
BRANCH  42  49
HETATM   49  O   UNK N   1      19.943  12.924  10.375  0.00  0.00    -0.390 OA
HETATM   50  H   UNK N   1      19.313  13.242  11.041  0.00  0.00     0.210 HD
ENDBRANCH  42  49
BRANCH  43  51
HETATM   51  O   UNK N   1      22.384  11.437  10.546  0.00  0.00    -0.390 OA
HETATM   52  H   UNK N   1      22.643  11.825  11.398  0.00  0.00     0.210 HD
ENDBRANCH  43  51
BRANCH  44  53
HETATM   53  O   UNK N   1      23.951  11.640   8.144  0.00  0.00    -0.388 OA
HETATM   54  H   UNK N   1      24.103  10.795   8.598  0.00  0.00     0.210 HD
ENDBRANCH  44  53
ENDBRANCH  38  39
ENDBRANCH   2  38
BRANCH   5  55
HETATM   55  N   UNK N   1      24.277  12.182   4.973  0.00  0.00    -0.423 N 
HETATM   56  H   UNK N   1      24.901  12.069   4.174  0.00  0.00     0.150 HD
HETATM   57  H   UNK N   1      24.432  11.575   5.777  0.00  0.00     0.150 HD
ENDBRANCH   5  55
TORSDOF 22
ENDMDL
MODEL 3
REMARK VINA RESULT:      -7.5      2.691      8.371
REMARK  22 active torsions:
REMARK  status: ('A' for Active; 'I' for Inactive)
REMARK    1  A    between atoms: C_19  and  O_1 
REMARK    2  A    between atoms: C_25  and  O_1 
REMARK    3  A    between atoms: C_20  and  O_2 
REMARK    4  A    between atoms: C_26  and  O_2 
REMARK    5  A    between atoms: C_22  and  O_3 
REMARK    6  A    between atoms: C_27  and  O_6 
REMARK    7  A    between atoms: C_29  and  O_7 
REMARK    8  A    between atoms: C_30  and  O_8 
REMARK    9  A    between atoms: C_31  and  O_9 
REMARK   10  A    between atoms: C_33  and  O_10 
REMARK   11  A    between atoms: O_12  and  C_36 
REMARK   12  A    between atoms: C_38  and  O_13 
REMARK   13  A    between atoms: C_21  and  N_14 
REMARK       I    between atoms: N_14  and  C_35 
REMARK   14  A    between atoms: C_23  and  N_15 
REMARK   15  A    between atoms: C_28  and  N_16 
REMARK   16  A    between atoms: N_17  and  C_37 
REMARK   17  A    between atoms: N_18  and  C_40 
REMARK   18  A    between atoms: C_32  and  C_36 
REMARK   19  A    between atoms: C_34  and  C_37 
REMARK   20  A    between atoms: C_35  and  C_38 
REMARK   21  A    between atoms: C_38  and  C_39 
REMARK   22  A    between atoms: C_39  and  C_40 
ROOT
HETATM    1  C   UNK N   1      23.171  15.031   6.392  0.00  0.00     0.178 C 
HETATM    2  C   UNK N   1      24.997  16.514   5.334  0.00  0.00     0.178 C 
HETATM    3  C   UNK N   1      22.189  16.020   5.734  0.00  0.00     0.118 C 
HETATM    4  C   UNK N   1      24.421  15.091   5.458  0.00  0.00     0.180 C 
HETATM    5  C   UNK N   1      23.911  17.518   4.919  0.00  0.00     0.107 C 
HETATM    6  C   UNK N   1      22.739  17.427   5.867  0.00  0.00     0.055 C 
ENDROOT
BRANCH   1   7
HETATM    7  O   UNK N   1      22.550  13.755   6.464  0.00  0.00    -0.349 OA
BRANCH   7   8
HETATM    8  C   UNK N   1      22.518  13.190   7.769  0.00  0.00     0.291 C 
HETATM    9  O   UNK N   1      23.643  13.480   8.566  0.00  0.00    -0.349 OA
HETATM   10  C   UNK N   1      23.660  12.432   9.507  0.00  0.00     0.179 C 
HETATM   11  C   UNK N   1      22.570  12.687  10.558  0.00  0.00     0.174 C 
HETATM   12  C   UNK N   1      21.219  12.760   9.831  0.00  0.00     0.139 C 
HETATM   13  C   UNK N   1      21.282  13.631   8.564  0.00  0.00     0.198 C 
BRANCH  10  14
HETATM   14  C   UNK N   1      25.051  12.263  10.095  0.00  0.00     0.198 C 
BRANCH  14  15
HETATM   15  O   UNK N   1      25.048  12.673  11.429  0.00  0.00    -0.398 OA
HETATM   16  H   UNK N   1      25.245  13.514  11.872  0.00  0.00     0.209 HD
ENDBRANCH  14  15
ENDBRANCH  10  14
BRANCH  11  17
HETATM   17  O   UNK N   1      22.534  11.648  11.489  0.00  0.00    -0.391 OA
HETATM   18  H   UNK N   1      21.786  11.448  12.073  0.00  0.00     0.210 HD
ENDBRANCH  11  17
BRANCH  12  19
HETATM   19  N   UNK N   1      20.187  13.242  10.734  0.00  0.00    -0.421 N 
HETATM   20  H   UNK N   1      20.416  13.698  11.618  0.00  0.00     0.150 HD
HETATM   21  H   UNK N   1      19.207  13.122  10.478  0.00  0.00     0.150 HD
ENDBRANCH  12  19
BRANCH  13  22
HETATM   22  O   UNK N   1      20.122  13.446   7.812  0.00  0.00    -0.388 OA
HETATM   23  H   UNK N   1      19.824  12.784   7.168  0.00  0.00     0.210 HD
ENDBRANCH  13  22
ENDBRANCH   7   8
ENDBRANCH   1   7
BRANCH   3  24
HETATM   24  N   UNK N   1      20.804  15.928   6.153  0.00  0.00    -0.352 N 
HETATM   25  C   UNK N   1      19.780  15.926   5.249  0.00  0.00     0.246 C 
HETATM   26  O   UNK N   1      18.631  15.800   5.652  0.00  0.00    -0.271 OA
HETATM   27  H   UNK N   1      20.596  15.867   7.113  0.00  0.00     0.163 HD
BRANCH  25  28
HETATM   28  C   UNK N   1      20.039  16.119   3.764  0.00  0.00     0.211 C 
BRANCH  28  29
HETATM   29  O   UNK N   1      19.291  15.214   3.006  0.00  0.00    -0.386 OA
HETATM   30  H   UNK N   1      18.759  14.860   2.277  0.00  0.00     0.210 HD
ENDBRANCH  28  29
BRANCH  28  31
HETATM   31  C   UNK N   1      19.824  17.536   3.252  0.00  0.00     0.060 C 
BRANCH  31  32
HETATM   32  C   UNK N   1      20.268  17.614   1.800  0.00  0.00     0.114 C 
BRANCH  32  33
HETATM   33  N   UNK N   1      19.151  17.319   0.924  0.00  0.00    -0.430 N 
HETATM   34  H   UNK N   1      19.152  17.652  -0.040  0.00  0.00     0.149 HD
HETATM   35  H   UNK N   1      18.360  16.777   1.273  0.00  0.00     0.149 HD
ENDBRANCH  32  33
ENDBRANCH  31  32
ENDBRANCH  28  31
ENDBRANCH  25  28
ENDBRANCH   3  24
BRANCH   4  36
HETATM   36  O   UNK N   1      25.450  14.248   5.867  0.00  0.00    -0.390 OA
HETATM   37  H   UNK N   1      25.296  13.293   5.935  0.00  0.00     0.210 HD
ENDBRANCH   4  36
BRANCH   2  38
HETATM   38  O   UNK N   1      26.012  16.484   4.371  0.00  0.00    -0.349 OA
BRANCH  38  39
HETATM   39  C   UNK N   1      27.222  16.486   5.067  0.00  0.00     0.292 C 
HETATM   40  O   UNK N   1      27.022  17.141   6.294  0.00  0.00    -0.349 OA
HETATM   41  C   UNK N   1      28.163  16.910   7.077  0.00  0.00     0.173 C 
HETATM   42  C   UNK N   1      29.317  17.744   6.508  0.00  0.00     0.180 C 
HETATM   43  C   UNK N   1      29.587  17.256   5.084  0.00  0.00     0.183 C 
HETATM   44  C   UNK N   1      28.298  17.228   4.263  0.00  0.00     0.204 C 
BRANCH  41  45
HETATM   45  C   UNK N   1      27.864  17.293   8.518  0.00  0.00     0.145 C 
BRANCH  45  46
HETATM   46  N   UNK N   1      27.795  18.739   8.639  0.00  0.00    -0.428 N 
HETATM   47  H   UNK N   1      28.225  19.230   9.423  0.00  0.00     0.150 HD
HETATM   48  H   UNK N   1      27.306  19.277   7.923  0.00  0.00     0.150 HD
ENDBRANCH  45  46
ENDBRANCH  41  45
BRANCH  42  49
HETATM   49  O   UNK N   1      30.467  17.582   7.285  0.00  0.00    -0.390 OA
HETATM   50  H   UNK N   1      30.632  17.221   8.170  0.00  0.00     0.210 HD
ENDBRANCH  42  49
BRANCH  43  51
HETATM   51  O   UNK N   1      30.533  18.074   4.464  0.00  0.00    -0.390 OA
HETATM   52  H   UNK N   1      31.027  17.785   3.680  0.00  0.00     0.210 HD
ENDBRANCH  43  51
BRANCH  44  53
HETATM   53  O   UNK N   1      28.528  16.572   3.052  0.00  0.00    -0.388 OA
HETATM   54  H   UNK N   1      27.848  16.060   2.586  0.00  0.00     0.210 HD
ENDBRANCH  44  53
ENDBRANCH  38  39
ENDBRANCH   2  38
BRANCH   5  55
HETATM   55  N   UNK N   1      24.421  18.877   4.925  0.00  0.00    -0.423 N 
HETATM   56  H   UNK N   1      23.851  19.722   4.904  0.00  0.00     0.150 HD
HETATM   57  H   UNK N   1      25.433  18.996   4.954  0.00  0.00     0.150 HD
ENDBRANCH   5  55
TORSDOF 22
ENDMDL
MODEL 4
REMARK VINA RESULT:      -7.4      2.659      5.870
REMARK  22 active torsions:
REMARK  status: ('A' for Active; 'I' for Inactive)
REMARK    1  A    between atoms: C_19  and  O_1 
REMARK    2  A    between atoms: C_25  and  O_1 
REMARK    3  A    between atoms: C_20  and  O_2 
REMARK    4  A    between atoms: C_26  and  O_2 
REMARK    5  A    between atoms: C_22  and  O_3 
REMARK    6  A    between atoms: C_27  and  O_6 
REMARK    7  A    between atoms: C_29  and  O_7 
REMARK    8  A    between atoms: C_30  and  O_8 
REMARK    9  A    between atoms: C_31  and  O_9 
REMARK   10  A    between atoms: C_33  and  O_10 
REMARK   11  A    between atoms: O_12  and  C_36 
REMARK   12  A    between atoms: C_38  and  O_13 
REMARK   13  A    between atoms: C_21  and  N_14 
REMARK       I    between atoms: N_14  and  C_35 
REMARK   14  A    between atoms: C_23  and  N_15 
REMARK   15  A    between atoms: C_28  and  N_16 
REMARK   16  A    between atoms: N_17  and  C_37 
REMARK   17  A    between atoms: N_18  and  C_40 
REMARK   18  A    between atoms: C_32  and  C_36 
REMARK   19  A    between atoms: C_34  and  C_37 
REMARK   20  A    between atoms: C_35  and  C_38 
REMARK   21  A    between atoms: C_38  and  C_39 
REMARK   22  A    between atoms: C_39  and  C_40 
ROOT
HETATM    1  C   UNK N   1      23.062  15.177   4.625  0.00  0.00     0.178 C 
HETATM    2  C   UNK N   1      21.942  14.168   6.718  0.00  0.00     0.178 C 
HETATM    3  C   UNK N   1      22.308  14.070   3.864  0.00  0.00     0.118 C 
HETATM    4  C   UNK N   1      22.158  15.437   5.871  0.00  0.00     0.180 C 
HETATM    5  C   UNK N   1      21.425  13.007   5.855  0.00  0.00     0.107 C 
HETATM    6  C   UNK N   1      22.348  12.791   4.679  0.00  0.00     0.055 C 
ENDROOT
BRANCH   1   7
HETATM    7  O   UNK N   1      23.214  16.297   3.764  0.00  0.00    -0.349 OA
BRANCH   7   8
HETATM    8  C   UNK N   1      24.521  16.861   3.758  0.00  0.00     0.291 C 
HETATM    9  O   UNK N   1      24.875  17.541   4.940  0.00  0.00    -0.349 OA
HETATM   10  C   UNK N   1      25.882  18.431   4.519  0.00  0.00     0.179 C 
HETATM   11  C   UNK N   1      27.186  17.647   4.312  0.00  0.00     0.174 C 
HETATM   12  C   UNK N   1      26.925  16.562   3.256  0.00  0.00     0.139 C 
HETATM   13  C   UNK N   1      25.607  15.808   3.506  0.00  0.00     0.198 C 
BRANCH  10  14
HETATM   14  C   UNK N   1      26.013  19.591   5.491  0.00  0.00     0.198 C 
BRANCH  14  15
HETATM   15  O   UNK N   1      26.954  19.277   6.472  0.00  0.00    -0.398 OA
HETATM   16  H   UNK N   1      27.142  19.629   7.357  0.00  0.00     0.209 HD
ENDBRANCH  14  15
ENDBRANCH  10  14
BRANCH  11  17
HETATM   17  O   UNK N   1      28.201  18.493   3.859  0.00  0.00    -0.391 OA
HETATM   18  H   UNK N   1      28.504  18.557   2.940  0.00  0.00     0.210 HD
ENDBRANCH  11  17
BRANCH  12  19
HETATM   19  N   UNK N   1      28.044  15.636   3.199  0.00  0.00    -0.421 N 
HETATM   20  H   UNK N   1      28.957  15.918   2.842  0.00  0.00     0.150 HD
HETATM   21  H   UNK N   1      27.912  14.678   3.523  0.00  0.00     0.150 HD
ENDBRANCH  12  19
BRANCH  13  22
HETATM   22  O   UNK N   1      25.293  15.035   2.388  0.00  0.00    -0.388 OA
HETATM   23  H   UNK N   1      25.234  14.083   2.211  0.00  0.00     0.210 HD
ENDBRANCH  13  22
ENDBRANCH   7   8
ENDBRANCH   1   7
BRANCH   3  24
HETATM   24  N   UNK N   1      22.698  13.855   2.484  0.00  0.00    -0.352 N 
HETATM   25  C   UNK N   1      21.991  14.393   1.447  0.00  0.00     0.246 C 
HETATM   26  O   UNK N   1      22.389  14.220   0.302  0.00  0.00    -0.271 OA
HETATM   27  H   UNK N   1      23.493  13.307   2.289  0.00  0.00     0.163 HD
BRANCH  25  28
HETATM   28  C   UNK N   1      20.702  15.162   1.686  0.00  0.00     0.211 C 
BRANCH  28  29
HETATM   29  O   UNK N   1      20.964  16.514   1.921  0.00  0.00    -0.386 OA
HETATM   30  H   UNK N   1      21.047  17.355   2.395  0.00  0.00     0.210 HD
ENDBRANCH  28  29
BRANCH  28  31
HETATM   31  C   UNK N   1      19.652  15.013   0.595  0.00  0.00     0.060 C 
BRANCH  31  32
HETATM   32  C   UNK N   1      19.330  16.384   0.023  0.00  0.00     0.114 C 
BRANCH  32  33
HETATM   33  N   UNK N   1      17.906  16.492  -0.230  0.00  0.00    -0.430 N 
HETATM   34  H   UNK N   1      17.274  16.803   0.509  0.00  0.00     0.149 HD
HETATM   35  H   UNK N   1      17.533  16.258  -1.151  0.00  0.00     0.149 HD
ENDBRANCH  32  33
ENDBRANCH  31  32
ENDBRANCH  28  31
ENDBRANCH  25  28
ENDBRANCH   3  24
BRANCH   4  36
HETATM   36  O   UNK N   1      22.654  16.430   6.710  0.00  0.00    -0.390 OA
HETATM   37  H   UNK N   1      22.214  17.293   6.753  0.00  0.00     0.210 HD
ENDBRANCH   4  36
BRANCH   2  38
HETATM   38  O   UNK N   1      21.009  14.472   7.716  0.00  0.00    -0.349 OA
BRANCH  38  39
HETATM   39  C   UNK N   1      21.603  14.133   8.934  0.00  0.00     0.292 C 
HETATM   40  O   UNK N   1      22.826  13.496   8.662  0.00  0.00    -0.349 OA
HETATM   41  C   UNK N   1      23.518  13.396   9.879  0.00  0.00     0.173 C 
HETATM   42  C   UNK N   1      22.837  12.324  10.737  0.00  0.00     0.180 C 
HETATM   43  C   UNK N   1      21.407  12.791  11.018  0.00  0.00     0.183 C 
HETATM   44  C   UNK N   1      20.695  13.181   9.722  0.00  0.00     0.204 C 
BRANCH  41  45
HETATM   45  C   UNK N   1      24.969  13.037   9.598  0.00  0.00     0.145 C 
BRANCH  45  46
HETATM   46  N   UNK N   1      25.830  13.649  10.596  0.00  0.00    -0.428 N 
HETATM   47  H   UNK N   1      26.202  14.590  10.474  0.00  0.00     0.150 HD
HETATM   48  H   UNK N   1      26.067  13.124  11.439  0.00  0.00     0.150 HD
ENDBRANCH  45  46
ENDBRANCH  41  45
BRANCH  42  49
HETATM   49  O   UNK N   1      23.519  12.155  11.944  0.00  0.00    -0.390 OA
HETATM   50  H   UNK N   1      23.665  12.724  12.716  0.00  0.00     0.210 HD
ENDBRANCH  42  49
BRANCH  43  51
HETATM   51  O   UNK N   1      20.692  11.789  11.675  0.00  0.00    -0.390 OA
HETATM   52  H   UNK N   1      20.951  10.855  11.625  0.00  0.00     0.210 HD
ENDBRANCH  43  51
BRANCH  44  53
HETATM   53  O   UNK N   1      19.486  13.810  10.023  0.00  0.00    -0.388 OA
HETATM   54  H   UNK N   1      19.056  13.749  10.891  0.00  0.00     0.210 HD
ENDBRANCH  44  53
ENDBRANCH  38  39
ENDBRANCH   2  38
BRANCH   5  55
HETATM   55  N   UNK N   1      21.343  11.778   6.623  0.00  0.00    -0.423 N 
HETATM   56  H   UNK N   1      21.764  10.887   6.360  0.00  0.00     0.150 HD
HETATM   57  H   UNK N   1      20.821  11.807   7.499  0.00  0.00     0.150 HD
ENDBRANCH   5  55
TORSDOF 22
ENDMDL
MODEL 5
REMARK VINA RESULT:      -7.4      2.816      6.884
REMARK  22 active torsions:
REMARK  status: ('A' for Active; 'I' for Inactive)
REMARK    1  A    between atoms: C_19  and  O_1 
REMARK    2  A    between atoms: C_25  and  O_1 
REMARK    3  A    between atoms: C_20  and  O_2 
REMARK    4  A    between atoms: C_26  and  O_2 
REMARK    5  A    between atoms: C_22  and  O_3 
REMARK    6  A    between atoms: C_27  and  O_6 
REMARK    7  A    between atoms: C_29  and  O_7 
REMARK    8  A    between atoms: C_30  and  O_8 
REMARK    9  A    between atoms: C_31  and  O_9 
REMARK   10  A    between atoms: C_33  and  O_10 
REMARK   11  A    between atoms: O_12  and  C_36 
REMARK   12  A    between atoms: C_38  and  O_13 
REMARK   13  A    between atoms: C_21  and  N_14 
REMARK       I    between atoms: N_14  and  C_35 
REMARK   14  A    between atoms: C_23  and  N_15 
REMARK   15  A    between atoms: C_28  and  N_16 
REMARK   16  A    between atoms: N_17  and  C_37 
REMARK   17  A    between atoms: N_18  and  C_40 
REMARK   18  A    between atoms: C_32  and  C_36 
REMARK   19  A    between atoms: C_34  and  C_37 
REMARK   20  A    between atoms: C_35  and  C_38 
REMARK   21  A    between atoms: C_38  and  C_39 
REMARK   22  A    between atoms: C_39  and  C_40 
ROOT
HETATM    1  C   UNK N   1      22.843  15.938   4.862  0.00  0.00     0.178 C 
HETATM    2  C   UNK N   1      25.353  15.447   5.185  0.00  0.00     0.178 C 
HETATM    3  C   UNK N   1      22.644  14.485   5.334  0.00  0.00     0.118 C 
HETATM    4  C   UNK N   1      24.174  16.364   5.558  0.00  0.00     0.180 C 
HETATM    5  C   UNK N   1      25.011  13.971   5.437  0.00  0.00     0.107 C 
HETATM    6  C   UNK N   1      23.728  13.614   4.726  0.00  0.00     0.055 C 
ENDROOT
BRANCH   1   7
HETATM    7  O   UNK N   1      21.706  16.700   5.248  0.00  0.00    -0.349 OA
BRANCH   7   8
HETATM    8  C   UNK N   1      21.241  17.605   4.254  0.00  0.00     0.291 C 
HETATM    9  O   UNK N   1      22.256  18.295   3.562  0.00  0.00    -0.349 OA
HETATM   10  C   UNK N   1      21.606  19.451   3.090  0.00  0.00     0.179 C 
HETATM   11  C   UNK N   1      20.730  19.075   1.886  0.00  0.00     0.174 C 
HETATM   12  C   UNK N   1      19.717  18.018   2.349  0.00  0.00     0.139 C 
HETATM   13  C   UNK N   1      20.370  16.913   3.198  0.00  0.00     0.198 C 
BRANCH  10  14
HETATM   14  C   UNK N   1      22.615  20.549   2.794  0.00  0.00     0.198 C 
BRANCH  14  15
HETATM   15  O   UNK N   1      21.974  21.789   2.805  0.00  0.00    -0.398 OA
HETATM   16  H   UNK N   1      22.267  22.692   3.005  0.00  0.00     0.209 HD
ENDBRANCH  14  15
ENDBRANCH  10  14
BRANCH  11  17
HETATM   17  O   UNK N   1      20.041  20.194   1.412  0.00  0.00    -0.391 OA
HETATM   18  H   UNK N   1      20.184  20.612   0.549  0.00  0.00     0.210 HD
ENDBRANCH  11  17
BRANCH  12  19
HETATM   19  N   UNK N   1      19.027  17.446   1.205  0.00  0.00    -0.421 N 
HETATM   20  H   UNK N   1      18.154  17.839   0.852  0.00  0.00     0.150 HD
HETATM   21  H   UNK N   1      19.426  16.629   0.743  0.00  0.00     0.150 HD
ENDBRANCH  12  19
BRANCH  13  22
HETATM   22  O   UNK N   1      19.378  16.143   3.806  0.00  0.00    -0.388 OA
HETATM   23  H   UNK N   1      19.027  16.071   4.707  0.00  0.00     0.210 HD
ENDBRANCH  13  22
ENDBRANCH   7   8
ENDBRANCH   1   7
BRANCH   3  24
HETATM   24  N   UNK N   1      21.320  13.922   5.153  0.00  0.00    -0.352 N 
HETATM   25  C   UNK N   1      20.523  13.610   6.217  0.00  0.00     0.246 C 
HETATM   26  O   UNK N   1      19.395  13.182   6.009  0.00  0.00    -0.271 OA
HETATM   27  H   UNK N   1      20.988  13.761   4.241  0.00  0.00     0.163 HD
BRANCH  25  28
HETATM   28  C   UNK N   1      21.024  13.746   7.645  0.00  0.00     0.211 C 
BRANCH  28  29
HETATM   29  O   UNK N   1      20.007  14.200   8.489  0.00  0.00    -0.386 OA
HETATM   30  H   UNK N   1      19.568  14.529   9.288  0.00  0.00     0.210 HD
ENDBRANCH  28  29
BRANCH  28  31
HETATM   31  C   UNK N   1      21.666  12.493   8.223  0.00  0.00     0.060 C 
BRANCH  31  32
HETATM   32  C   UNK N   1      21.579  12.544   9.740  0.00  0.00     0.114 C 
BRANCH  32  33
HETATM   33  N   UNK N   1      22.663  13.348  10.272  0.00  0.00    -0.430 N 
HETATM   34  H   UNK N   1      23.630  13.129  10.033  0.00  0.00     0.149 HD
HETATM   35  H   UNK N   1      22.457  14.136  10.886  0.00  0.00     0.149 HD
ENDBRANCH  32  33
ENDBRANCH  31  32
ENDBRANCH  28  31
ENDBRANCH  25  28
ENDBRANCH   3  24
BRANCH   4  36
HETATM   36  O   UNK N   1      24.545  17.675   5.273  0.00  0.00    -0.390 OA
HETATM   37  H   UNK N   1      25.152  18.145   5.865  0.00  0.00     0.210 HD
ENDBRANCH   4  36
BRANCH   2  38
HETATM   38  O   UNK N   1      26.453  15.822   5.967  0.00  0.00    -0.349 OA
BRANCH  38  39
HETATM   39  C   UNK N   1      27.411  16.331   5.090  0.00  0.00     0.292 C 
HETATM   40  O   UNK N   1      27.753  15.319   4.177  0.00  0.00    -0.349 OA
HETATM   41  C   UNK N   1      28.513  15.918   3.161  0.00  0.00     0.173 C 
HETATM   42  C   UNK N   1      29.898  16.253   3.726  0.00  0.00     0.180 C 
HETATM   43  C   UNK N   1      29.707  17.261   4.861  0.00  0.00     0.183 C 
HETATM   44  C   UNK N   1      28.664  16.764   5.863  0.00  0.00     0.204 C 
BRANCH  41  45
HETATM   45  C   UNK N   1      28.615  14.960   1.985  0.00  0.00     0.145 C 
BRANCH  45  46
HETATM   46  N   UNK N   1      29.593  13.926   2.275  0.00  0.00    -0.428 N 
HETATM   47  H   UNK N   1      30.591  14.131   2.315  0.00  0.00     0.150 HD
HETATM   48  H   UNK N   1      29.274  12.971   2.443  0.00  0.00     0.150 HD
ENDBRANCH  45  46
ENDBRANCH  41  45
BRANCH  42  49
HETATM   49  O   UNK N   1      30.709  16.812   2.736  0.00  0.00    -0.390 OA
HETATM   50  H   UNK N   1      31.134  16.457   1.940  0.00  0.00     0.210 HD
ENDBRANCH  42  49
BRANCH  43  51
HETATM   51  O   UNK N   1      30.921  17.495   5.509  0.00  0.00    -0.390 OA
HETATM   52  H   UNK N   1      31.655  16.861   5.469  0.00  0.00     0.210 HD
ENDBRANCH  43  51
BRANCH  44  53
HETATM   53  O   UNK N   1      28.346  17.790   6.755  0.00  0.00    -0.388 OA
HETATM   54  H   UNK N   1      28.345  18.728   6.508  0.00  0.00     0.210 HD
ENDBRANCH  44  53
ENDBRANCH  38  39
ENDBRANCH   2  38
BRANCH   5  55
HETATM   55  N   UNK N   1      26.071  13.098   4.968  0.00  0.00    -0.423 N 
HETATM   56  H   UNK N   1      26.360  12.227   5.414  0.00  0.00     0.150 HD
HETATM   57  H   UNK N   1      26.568  13.378   4.123  0.00  0.00     0.150 HD
ENDBRANCH   5  55
TORSDOF 22
ENDMDL
MODEL 6
REMARK VINA RESULT:      -7.3      3.630      7.235
REMARK  22 active torsions:
REMARK  status: ('A' for Active; 'I' for Inactive)
REMARK    1  A    between atoms: C_19  and  O_1 
REMARK    2  A    between atoms: C_25  and  O_1 
REMARK    3  A    between atoms: C_20  and  O_2 
REMARK    4  A    between atoms: C_26  and  O_2 
REMARK    5  A    between atoms: C_22  and  O_3 
REMARK    6  A    between atoms: C_27  and  O_6 
REMARK    7  A    between atoms: C_29  and  O_7 
REMARK    8  A    between atoms: C_30  and  O_8 
REMARK    9  A    between atoms: C_31  and  O_9 
REMARK   10  A    between atoms: C_33  and  O_10 
REMARK   11  A    between atoms: O_12  and  C_36 
REMARK   12  A    between atoms: C_38  and  O_13 
REMARK   13  A    between atoms: C_21  and  N_14 
REMARK       I    between atoms: N_14  and  C_35 
REMARK   14  A    between atoms: C_23  and  N_15 
REMARK   15  A    between atoms: C_28  and  N_16 
REMARK   16  A    between atoms: N_17  and  C_37 
REMARK   17  A    between atoms: N_18  and  C_40 
REMARK   18  A    between atoms: C_32  and  C_36 
REMARK   19  A    between atoms: C_34  and  C_37 
REMARK   20  A    between atoms: C_35  and  C_38 
REMARK   21  A    between atoms: C_38  and  C_39 
REMARK   22  A    between atoms: C_39  and  C_40 
ROOT
HETATM    1  C   UNK N   1      26.476  16.505   4.241  0.00  0.00     0.178 C 
HETATM    2  C   UNK N   1      24.408  18.046   4.236  0.00  0.00     0.178 C 
HETATM    3  C   UNK N   1      27.257  17.793   4.567  0.00  0.00     0.118 C 
HETATM    4  C   UNK N   1      25.059  16.784   4.833  0.00  0.00     0.180 C 
HETATM    5  C   UNK N   1      25.340  19.261   4.357  0.00  0.00     0.107 C 
HETATM    6  C   UNK N   1      26.686  18.938   3.752  0.00  0.00     0.055 C 
ENDROOT
BRANCH   1   7
HETATM    7  O   UNK N   1      27.153  15.402   4.829  0.00  0.00    -0.349 OA
BRANCH   7   8
HETATM    8  C   UNK N   1      27.274  14.266   3.981  0.00  0.00     0.291 C 
HETATM    9  O   UNK N   1      26.159  14.026   3.154  0.00  0.00    -0.349 OA
HETATM   10  C   UNK N   1      26.254  12.652   2.863  0.00  0.00     0.179 C 
HETATM   11  C   UNK N   1      27.358  12.438   1.818  0.00  0.00     0.174 C 
HETATM   12  C   UNK N   1      28.674  12.974   2.402  0.00  0.00     0.139 C 
HETATM   13  C   UNK N   1      28.501  14.353   3.064  0.00  0.00     0.198 C 
BRANCH  10  14
HETATM   14  C   UNK N   1      24.901  12.098   2.447  0.00  0.00     0.198 C 
BRANCH  14  15
HETATM   15  O   UNK N   1      24.807  12.089   1.054  0.00  0.00    -0.398 OA
HETATM   16  H   UNK N   1      25.458  12.167   0.339  0.00  0.00     0.209 HD
ENDBRANCH  14  15
ENDBRANCH  10  14
BRANCH  11  17
HETATM   17  O   UNK N   1      27.505  11.079   1.531  0.00  0.00    -0.391 OA
HETATM   18  H   UNK N   1      27.663  10.384   2.189  0.00  0.00     0.210 HD
ENDBRANCH  11  17
BRANCH  12  19
HETATM   19  N   UNK N   1      29.698  13.025   1.372  0.00  0.00    -0.421 N 
HETATM   20  H   UNK N   1      30.661  13.288   1.584  0.00  0.00     0.150 HD
HETATM   21  H   UNK N   1      29.449  12.791   0.412  0.00  0.00     0.150 HD
ENDBRANCH  12  19
BRANCH  13  22
HETATM   22  O   UNK N   1      29.644  14.663   3.800  0.00  0.00    -0.388 OA
HETATM   23  H   UNK N   1      29.811  15.101   4.649  0.00  0.00     0.210 HD
ENDBRANCH  13  22
ENDBRANCH   7   8
ENDBRANCH   1   7
BRANCH   3  24
HETATM   24  N   UNK N   1      28.702  17.714   4.467  0.00  0.00    -0.352 N 
HETATM   25  C   UNK N   1      29.490  17.595   5.576  0.00  0.00     0.246 C 
HETATM   26  O   UNK N   1      30.702  17.486   5.435  0.00  0.00    -0.271 OA
HETATM   27  H   UNK N   1      29.124  17.747   3.579  0.00  0.00     0.163 HD
BRANCH  25  28
HETATM   28  C   UNK N   1      28.897  17.640   6.974  0.00  0.00     0.211 C 
BRANCH  28  29
HETATM   29  O   UNK N   1      28.286  16.425   7.295  0.00  0.00    -0.386 OA
HETATM   30  H   UNK N   1      28.172  15.471   7.429  0.00  0.00     0.210 HD
ENDBRANCH  28  29
BRANCH  28  31
HETATM   31  C   UNK N   1      29.869  18.044   8.073  0.00  0.00     0.060 C 
BRANCH  31  32
HETATM   32  C   UNK N   1      29.090  18.335   9.346  0.00  0.00     0.114 C 
BRANCH  32  33
HETATM   33  N   UNK N   1      27.706  18.624   9.023  0.00  0.00    -0.430 N 
HETATM   34  H   UNK N   1      26.955  18.270   9.616  0.00  0.00     0.149 HD
HETATM   35  H   UNK N   1      27.482  19.184   8.199  0.00  0.00     0.149 HD
ENDBRANCH  32  33
ENDBRANCH  31  32
ENDBRANCH  28  31
ENDBRANCH  25  28
ENDBRANCH   3  24
BRANCH   4  36
HETATM   36  O   UNK N   1      24.174  15.724   4.658  0.00  0.00    -0.390 OA
HETATM   37  H   UNK N   1      24.139  15.009   5.312  0.00  0.00     0.210 HD
ENDBRANCH   4  36
BRANCH   2  38
HETATM   38  O   UNK N   1      23.218  18.286   4.932  0.00  0.00    -0.349 OA
BRANCH  38  39
HETATM   39  C   UNK N   1      22.180  18.147   4.008  0.00  0.00     0.292 C 
HETATM   40  O   UNK N   1      21.725  19.432   3.664  0.00  0.00    -0.349 OA
HETATM   41  C   UNK N   1      20.872  19.285   2.559  0.00  0.00     0.173 C 
HETATM   42  C   UNK N   1      19.562  18.652   3.041  0.00  0.00     0.180 C 
HETATM   43  C   UNK N   1      19.891  17.265   3.599  0.00  0.00     0.183 C 
HETATM   44  C   UNK N   1      21.026  17.345   4.621  0.00  0.00     0.204 C 
BRANCH  41  45
HETATM   45  C   UNK N   1      20.628  20.649   1.934  0.00  0.00     0.145 C 
BRANCH  45  46
HETATM   46  N   UNK N   1      20.485  20.513   0.494  0.00  0.00    -0.428 N 
HETATM   47  H   UNK N   1      20.976  21.130  -0.151  0.00  0.00     0.150 HD
HETATM   48  H   UNK N   1      19.878  19.782   0.121  0.00  0.00     0.150 HD
ENDBRANCH  45  46
ENDBRANCH  41  45
BRANCH  42  49
HETATM   49  O   UNK N   1      18.660  18.527   1.981  0.00  0.00    -0.390 OA
HETATM   50  H   UNK N   1      18.360  17.778   1.442  0.00  0.00     0.210 HD
ENDBRANCH  42  49
BRANCH  43  51
HETATM   51  O   UNK N   1      18.758  16.698   4.184  0.00  0.00    -0.390 OA
HETATM   52  H   UNK N   1      18.202  17.190   4.810  0.00  0.00     0.210 HD
ENDBRANCH  43  51
BRANCH  44  53
HETATM   53  O   UNK N   1      21.456  16.056   4.944  0.00  0.00    -0.388 OA
HETATM   54  H   UNK N   1      21.712  15.398   4.278  0.00  0.00     0.210 HD
ENDBRANCH  44  53
ENDBRANCH  38  39
ENDBRANCH   2  38
BRANCH   5  55
HETATM   55  N   UNK N   1      24.784  20.420   3.682  0.00  0.00    -0.423 N 
HETATM   56  H   UNK N   1      24.941  21.391   3.950  0.00  0.00     0.150 HD
HETATM   57  H   UNK N   1      24.185  20.248   2.874  0.00  0.00     0.150 HD
ENDBRANCH   5  55
TORSDOF 22
ENDMDL
MODEL 7
REMARK VINA RESULT:      -7.3      2.531      7.945
REMARK  22 active torsions:
REMARK  status: ('A' for Active; 'I' for Inactive)
REMARK    1  A    between atoms: C_19  and  O_1 
REMARK    2  A    between atoms: C_25  and  O_1 
REMARK    3  A    between atoms: C_20  and  O_2 
REMARK    4  A    between atoms: C_26  and  O_2 
REMARK    5  A    between atoms: C_22  and  O_3 
REMARK    6  A    between atoms: C_27  and  O_6 
REMARK    7  A    between atoms: C_29  and  O_7 
REMARK    8  A    between atoms: C_30  and  O_8 
REMARK    9  A    between atoms: C_31  and  O_9 
REMARK   10  A    between atoms: C_33  and  O_10 
REMARK   11  A    between atoms: O_12  and  C_36 
REMARK   12  A    between atoms: C_38  and  O_13 
REMARK   13  A    between atoms: C_21  and  N_14 
REMARK       I    between atoms: N_14  and  C_35 
REMARK   14  A    between atoms: C_23  and  N_15 
REMARK   15  A    between atoms: C_28  and  N_16 
REMARK   16  A    between atoms: N_17  and  C_37 
REMARK   17  A    between atoms: N_18  and  C_40 
REMARK   18  A    between atoms: C_32  and  C_36 
REMARK   19  A    between atoms: C_34  and  C_37 
REMARK   20  A    between atoms: C_35  and  C_38 
REMARK   21  A    between atoms: C_38  and  C_39 
REMARK   22  A    between atoms: C_39  and  C_40 
ROOT
HETATM    1  C   UNK N   1      22.355  14.714   5.315  0.00  0.00     0.178 C 
HETATM    2  C   UNK N   1      20.584  16.408   4.511  0.00  0.00     0.178 C 
HETATM    3  C   UNK N   1      22.638  14.516   3.814  0.00  0.00     0.118 C 
HETATM    4  C   UNK N   1      21.828  16.182   5.390  0.00  0.00     0.180 C 
HETATM    5  C   UNK N   1      20.836  15.953   3.065  0.00  0.00     0.107 C 
HETATM    6  C   UNK N   1      21.325  14.524   3.056  0.00  0.00     0.055 C 
ENDROOT
BRANCH   1   7
HETATM    7  O   UNK N   1      23.556  14.482   6.039  0.00  0.00    -0.349 OA
BRANCH   7   8
HETATM    8  C   UNK N   1      23.409  13.615   7.157  0.00  0.00     0.291 C 
HETATM    9  O   UNK N   1      22.163  13.697   7.809  0.00  0.00    -0.349 OA
HETATM   10  C   UNK N   1      22.437  13.228   9.107  0.00  0.00     0.179 C 
HETATM   11  C   UNK N   1      22.569  11.698   9.068  0.00  0.00     0.174 C 
HETATM   12  C   UNK N   1      23.705  11.345   8.097  0.00  0.00     0.139 C 
HETATM   13  C   UNK N   1      23.622  12.142   6.783  0.00  0.00     0.198 C 
BRANCH  10  14
HETATM   14  C   UNK N   1      21.392  13.727  10.090  0.00  0.00     0.198 C 
BRANCH  14  15
HETATM   15  O   UNK N   1      20.335  12.818  10.152  0.00  0.00    -0.398 OA
HETATM   16  H   UNK N   1      19.429  12.867  10.497  0.00  0.00     0.209 HD
ENDBRANCH  14  15
ENDBRANCH  10  14
BRANCH  11  17
HETATM   17  O   UNK N   1      22.877  11.200  10.336  0.00  0.00    -0.391 OA
HETATM   18  H   UNK N   1      23.601  10.584  10.532  0.00  0.00     0.210 HD
ENDBRANCH  11  17
BRANCH  12  19
HETATM   19  N   UNK N   1      23.714   9.916   7.831  0.00  0.00    -0.421 N 
HETATM   20  H   UNK N   1      24.429   9.483   7.245  0.00  0.00     0.150 HD
HETATM   21  H   UNK N   1      22.987   9.330   8.240  0.00  0.00     0.150 HD
ENDBRANCH  12  19
BRANCH  13  22
HETATM   22  O   UNK N   1      24.806  11.983   6.065  0.00  0.00    -0.388 OA
HETATM   23  H   UNK N   1      25.170  11.289   5.493  0.00  0.00     0.210 HD
ENDBRANCH  13  22
ENDBRANCH   7   8
ENDBRANCH   1   7
BRANCH   3  24
HETATM   24  N   UNK N   1      23.471  13.383   3.459  0.00  0.00    -0.352 N 
HETATM   25  C   UNK N   1      24.788  13.536   3.133  0.00  0.00     0.246 C 
HETATM   26  O   UNK N   1      25.460  12.542   2.887  0.00  0.00    -0.271 OA
HETATM   27  H   UNK N   1      23.077  12.481   3.452  0.00  0.00     0.163 HD
BRANCH  25  28
HETATM   28  C   UNK N   1      25.421  14.914   3.031  0.00  0.00     0.211 C 
BRANCH  28  29
HETATM   29  O   UNK N   1      25.910  15.331   4.272  0.00  0.00    -0.386 OA
HETATM   30  H   UNK N   1      26.303  15.903   4.949  0.00  0.00     0.210 HD
ENDBRANCH  28  29
BRANCH  28  31
HETATM   31  C   UNK N   1      26.501  15.049   1.968  0.00  0.00     0.060 C 
BRANCH  31  32
HETATM   32  C   UNK N   1      27.793  15.508   2.626  0.00  0.00     0.114 C 
BRANCH  32  33
HETATM   33  N   UNK N   1      28.541  14.360   3.101  0.00  0.00    -0.430 N 
HETATM   34  H   UNK N   1      28.502  14.092   4.085  0.00  0.00     0.149 HD
HETATM   35  H   UNK N   1      29.108  13.817   2.449  0.00  0.00     0.149 HD
ENDBRANCH  32  33
ENDBRANCH  31  32
ENDBRANCH  28  31
ENDBRANCH  25  28
ENDBRANCH   3  24
BRANCH   4  36
HETATM   36  O   UNK N   1      21.514  16.586   6.685  0.00  0.00    -0.390 OA
HETATM   37  H   UNK N   1      20.622  16.906   6.889  0.00  0.00     0.210 HD
ENDBRANCH   4  36
BRANCH   2  38
HETATM   38  O   UNK N   1      20.283  17.775   4.535  0.00  0.00    -0.349 OA
BRANCH  38  39
HETATM   39  C   UNK N   1      21.217  18.404   3.709  0.00  0.00     0.292 C 
HETATM   40  O   UNK N   1      22.321  18.773   4.497  0.00  0.00    -0.349 OA
HETATM   41  C   UNK N   1      23.343  19.165   3.619  0.00  0.00     0.173 C 
HETATM   42  C   UNK N   1      22.970  20.525   3.019  0.00  0.00     0.180 C 
HETATM   43  C   UNK N   1      21.675  20.345   2.223  0.00  0.00     0.183 C 
HETATM   44  C   UNK N   1      20.605  19.657   3.071  0.00  0.00     0.204 C 
BRANCH  41  45
HETATM   45  C   UNK N   1      24.655  19.241   4.384  0.00  0.00     0.145 C 
BRANCH  45  46
HETATM   46  N   UNK N   1      24.797  18.073   5.235  0.00  0.00    -0.428 N 
HETATM   47  H   UNK N   1      24.019  17.434   5.399  0.00  0.00     0.150 HD
HETATM   48  H   UNK N   1      25.696  17.887   5.680  0.00  0.00     0.150 HD
ENDBRANCH  45  46
ENDBRANCH  41  45
BRANCH  42  49
HETATM   49  O   UNK N   1      23.981  20.980   2.169  0.00  0.00    -0.390 OA
HETATM   50  H   UNK N   1      24.472  20.576   1.437  0.00  0.00     0.210 HD
ENDBRANCH  42  49
BRANCH  43  51
HETATM   51  O   UNK N   1      21.209  21.580   1.771  0.00  0.00    -0.390 OA
HETATM   52  H   UNK N   1      20.692  21.667   0.955  0.00  0.00     0.210 HD
ENDBRANCH  43  51
BRANCH  44  53
HETATM   53  O   UNK N   1      19.523  19.304   2.263  0.00  0.00    -0.388 OA
HETATM   54  H   UNK N   1      18.621  19.186   2.602  0.00  0.00     0.210 HD
ENDBRANCH  44  53
ENDBRANCH  38  39
ENDBRANCH   2  38
BRANCH   5  55
HETATM   55  N   UNK N   1      19.628  16.046   2.267  0.00  0.00    -0.423 N 
HETATM   56  H   UNK N   1      18.759  16.493   2.560  0.00  0.00     0.150 HD
HETATM   57  H   UNK N   1      19.648  15.631   1.336  0.00  0.00     0.150 HD
ENDBRANCH   5  55
TORSDOF 22
ENDMDL
MODEL 8
REMARK VINA RESULT:      -7.3      3.687      7.745
REMARK  22 active torsions:
REMARK  status: ('A' for Active; 'I' for Inactive)
REMARK    1  A    between atoms: C_19  and  O_1 
REMARK    2  A    between atoms: C_25  and  O_1 
REMARK    3  A    between atoms: C_20  and  O_2 
REMARK    4  A    between atoms: C_26  and  O_2 
REMARK    5  A    between atoms: C_22  and  O_3 
REMARK    6  A    between atoms: C_27  and  O_6 
REMARK    7  A    between atoms: C_29  and  O_7 
REMARK    8  A    between atoms: C_30  and  O_8 
REMARK    9  A    between atoms: C_31  and  O_9 
REMARK   10  A    between atoms: C_33  and  O_10 
REMARK   11  A    between atoms: O_12  and  C_36 
REMARK   12  A    between atoms: C_38  and  O_13 
REMARK   13  A    between atoms: C_21  and  N_14 
REMARK       I    between atoms: N_14  and  C_35 
REMARK   14  A    between atoms: C_23  and  N_15 
REMARK   15  A    between atoms: C_28  and  N_16 
REMARK   16  A    between atoms: N_17  and  C_37 
REMARK   17  A    between atoms: N_18  and  C_40 
REMARK   18  A    between atoms: C_32  and  C_36 
REMARK   19  A    between atoms: C_34  and  C_37 
REMARK   20  A    between atoms: C_35  and  C_38 
REMARK   21  A    between atoms: C_38  and  C_39 
REMARK   22  A    between atoms: C_39  and  C_40 
ROOT
HETATM    1  C   UNK N   1      26.546  16.578   4.136  0.00  0.00     0.178 C 
HETATM    2  C   UNK N   1      24.454  18.084   4.190  0.00  0.00     0.178 C 
HETATM    3  C   UNK N   1      27.308  17.867   4.496  0.00  0.00     0.118 C 
HETATM    4  C   UNK N   1      25.128  16.816   4.745  0.00  0.00     0.180 C 
HETATM    5  C   UNK N   1      25.367  19.310   4.343  0.00  0.00     0.107 C 
HETATM    6  C   UNK N   1      26.713  19.028   3.721  0.00  0.00     0.055 C 
ENDROOT
BRANCH   1   7
HETATM    7  O   UNK N   1      27.244  15.469   4.686  0.00  0.00    -0.349 OA
BRANCH   7   8
HETATM    8  C   UNK N   1      28.004  14.725   3.741  0.00  0.00     0.291 C 
HETATM    9  O   UNK N   1      29.339  14.479   4.119  0.00  0.00    -0.349 OA
HETATM   10  C   UNK N   1      29.995  14.263   2.892  0.00  0.00     0.179 C 
HETATM   11  C   UNK N   1      29.645  12.858   2.379  0.00  0.00     0.174 C 
HETATM   12  C   UNK N   1      28.120  12.780   2.215  0.00  0.00     0.139 C 
HETATM   13  C   UNK N   1      27.370  13.364   3.426  0.00  0.00     0.198 C 
BRANCH  10  14
HETATM   14  C   UNK N   1      31.488  14.509   3.032  0.00  0.00     0.198 C 
BRANCH  14  15
HETATM   15  O   UNK N   1      31.735  15.882   3.065  0.00  0.00    -0.398 OA
HETATM   16  H   UNK N   1      32.506  16.418   3.311  0.00  0.00     0.209 HD
ENDBRANCH  14  15
ENDBRANCH  10  14
BRANCH  11  17
HETATM   17  O   UNK N   1      30.251  12.622   1.143  0.00  0.00    -0.391 OA
HETATM   18  H   UNK N   1      29.961  11.959   0.497  0.00  0.00     0.210 HD
ENDBRANCH  11  17
BRANCH  12  19
HETATM   19  N   UNK N   1      27.709  11.408   1.971  0.00  0.00    -0.421 N 
HETATM   20  H   UNK N   1      27.560  11.051   1.027  0.00  0.00     0.150 HD
HETATM   21  H   UNK N   1      27.566  10.784   2.765  0.00  0.00     0.150 HD
ENDBRANCH  12  19
BRANCH  13  22
HETATM   22  O   UNK N   1      26.020  13.511   3.112  0.00  0.00    -0.388 OA
HETATM   23  H   UNK N   1      25.323  12.914   2.796  0.00  0.00     0.210 HD
ENDBRANCH  13  22
ENDBRANCH   7   8
ENDBRANCH   1   7
BRANCH   3  24
HETATM   24  N   UNK N   1      28.753  17.815   4.386  0.00  0.00    -0.352 N 
HETATM   25  C   UNK N   1      29.549  17.639   5.482  0.00  0.00     0.246 C 
HETATM   26  O   UNK N   1      30.761  17.555   5.330  0.00  0.00    -0.271 OA
HETATM   27  H   UNK N   1      29.171  17.910   3.500  0.00  0.00     0.163 HD
BRANCH  25  28
HETATM   28  C   UNK N   1      28.962  17.588   6.883  0.00  0.00     0.211 C 
BRANCH  28  29
HETATM   29  O   UNK N   1      28.320  16.368   7.111  0.00  0.00    -0.386 OA
HETATM   30  H   UNK N   1      28.040  15.558   7.564  0.00  0.00     0.210 HD
ENDBRANCH  28  29
BRANCH  28  31
HETATM   31  C   UNK N   1      29.949  17.879   8.005  0.00  0.00     0.060 C 
BRANCH  31  32
HETATM   32  C   UNK N   1      29.234  18.635   9.113  0.00  0.00     0.114 C 
BRANCH  32  33
HETATM   33  N   UNK N   1      27.803  18.423   9.013  0.00  0.00    -0.430 N 
HETATM   34  H   UNK N   1      27.156  19.194   9.179  0.00  0.00     0.149 HD
HETATM   35  H   UNK N   1      27.441  17.499   8.774  0.00  0.00     0.149 HD
ENDBRANCH  32  33
ENDBRANCH  31  32
ENDBRANCH  28  31
ENDBRANCH  25  28
ENDBRANCH   3  24
BRANCH   4  36
HETATM   36  O   UNK N   1      24.259  15.747   4.542  0.00  0.00    -0.390 OA
HETATM   37  H   UNK N   1      24.268  14.994   5.152  0.00  0.00     0.210 HD
ENDBRANCH   4  36
BRANCH   2  38
HETATM   38  O   UNK N   1      23.264  18.284   4.900  0.00  0.00    -0.349 OA
BRANCH  38  39
HETATM   39  C   UNK N   1      22.223  18.153   3.979  0.00  0.00     0.292 C 
HETATM   40  O   UNK N   1      21.767  19.440   3.646  0.00  0.00    -0.349 OA
HETATM   41  C   UNK N   1      20.909  19.303   2.544  0.00  0.00     0.173 C 
HETATM   42  C   UNK N   1      19.601  18.667   3.026  0.00  0.00     0.180 C 
HETATM   43  C   UNK N   1      19.931  17.276   3.572  0.00  0.00     0.183 C 
HETATM   44  C   UNK N   1      21.070  17.347   4.590  0.00  0.00     0.204 C 
BRANCH  41  45
HETATM   45  C   UNK N   1      20.664  20.672   1.930  0.00  0.00     0.145 C 
BRANCH  45  46
HETATM   46  N   UNK N   1      20.490  20.543   0.493  0.00  0.00    -0.428 N 
HETATM   47  H   UNK N   1      19.736  21.023   0.002  0.00  0.00     0.150 HD
HETATM   48  H   UNK N   1      21.137  19.959  -0.037  0.00  0.00     0.150 HD
ENDBRANCH  45  46
ENDBRANCH  41  45
BRANCH  42  49
HETATM   49  O   UNK N   1      18.695  18.551   1.969  0.00  0.00    -0.390 OA
HETATM   50  H   UNK N   1      17.763  18.795   1.856  0.00  0.00     0.210 HD
ENDBRANCH  42  49
BRANCH  43  51
HETATM   51  O   UNK N   1      18.800  16.706   4.157  0.00  0.00    -0.390 OA
HETATM   52  H   UNK N   1      17.917  16.794   3.762  0.00  0.00     0.210 HD
ENDBRANCH  43  51
BRANCH  44  53
HETATM   53  O   UNK N   1      21.500  16.055   4.902  0.00  0.00    -0.388 OA
HETATM   54  H   UNK N   1      21.663  15.373   4.231  0.00  0.00     0.210 HD
ENDBRANCH  44  53
ENDBRANCH  38  39
ENDBRANCH   2  38
BRANCH   5  55
HETATM   55  N   UNK N   1      24.787  20.480   3.707  0.00  0.00    -0.423 N 
HETATM   56  H   UNK N   1      23.884  20.892   3.941  0.00  0.00     0.150 HD
HETATM   57  H   UNK N   1      25.327  20.926   2.966  0.00  0.00     0.150 HD
ENDBRANCH   5  55
TORSDOF 22
ENDMDL
MODEL 9
REMARK VINA RESULT:      -7.2      6.094      9.391
REMARK  22 active torsions:
REMARK  status: ('A' for Active; 'I' for Inactive)
REMARK    1  A    between atoms: C_19  and  O_1 
REMARK    2  A    between atoms: C_25  and  O_1 
REMARK    3  A    between atoms: C_20  and  O_2 
REMARK    4  A    between atoms: C_26  and  O_2 
REMARK    5  A    between atoms: C_22  and  O_3 
REMARK    6  A    between atoms: C_27  and  O_6 
REMARK    7  A    between atoms: C_29  and  O_7 
REMARK    8  A    between atoms: C_30  and  O_8 
REMARK    9  A    between atoms: C_31  and  O_9 
REMARK   10  A    between atoms: C_33  and  O_10 
REMARK   11  A    between atoms: O_12  and  C_36 
REMARK   12  A    between atoms: C_38  and  O_13 
REMARK   13  A    between atoms: C_21  and  N_14 
REMARK       I    between atoms: N_14  and  C_35 
REMARK   14  A    between atoms: C_23  and  N_15 
REMARK   15  A    between atoms: C_28  and  N_16 
REMARK   16  A    between atoms: N_17  and  C_37 
REMARK   17  A    between atoms: N_18  and  C_40 
REMARK   18  A    between atoms: C_32  and  C_36 
REMARK   19  A    between atoms: C_34  and  C_37 
REMARK   20  A    between atoms: C_35  and  C_38 
REMARK   21  A    between atoms: C_38  and  C_39 
REMARK   22  A    between atoms: C_39  and  C_40 
ROOT
HETATM    1  C   UNK N   1      29.817  16.603   5.260  0.00  0.00     0.178 C 
HETATM    2  C   UNK N   1      31.591  17.045   7.079  0.00  0.00     0.178 C 
HETATM    3  C   UNK N   1      28.881  17.411   6.179  0.00  0.00     0.118 C 
HETATM    4  C   UNK N   1      31.230  17.181   5.588  0.00  0.00     0.180 C 
HETATM    5  C   UNK N   1      30.495  17.645   7.973  0.00  0.00     0.107 C 
HETATM    6  C   UNK N   1      29.159  17.036   7.623  0.00  0.00     0.055 C 
ENDROOT
BRANCH   1   7
HETATM    7  O   UNK N   1      29.403  16.789   3.913  0.00  0.00    -0.349 OA
BRANCH   7   8
HETATM    8  C   UNK N   1      29.237  15.583   3.178  0.00  0.00     0.291 C 
HETATM    9  O   UNK N   1      30.065  14.521   3.591  0.00  0.00    -0.349 OA
HETATM   10  C   UNK N   1      30.139  13.697   2.451  0.00  0.00     0.179 C 
HETATM   11  C   UNK N   1      28.825  12.915   2.313  0.00  0.00     0.174 C 
HETATM   12  C   UNK N   1      27.679  13.932   2.192  0.00  0.00     0.139 C 
HETATM   13  C   UNK N   1      27.793  15.068   3.224  0.00  0.00     0.198 C 
BRANCH  10  14
HETATM   14  C   UNK N   1      31.374  12.814   2.508  0.00  0.00     0.198 C 
BRANCH  14  15
HETATM   15  O   UNK N   1      31.714  12.400   1.219  0.00  0.00    -0.398 OA
HETATM   16  H   UNK N   1      31.642  11.556   0.746  0.00  0.00     0.209 HD
ENDBRANCH  14  15
ENDBRANCH  10  14
BRANCH  11  17
HETATM   17  O   UNK N   1      28.849  12.113   1.171  0.00  0.00    -0.391 OA
HETATM   18  H   UNK N   1      28.911  11.145   1.170  0.00  0.00     0.210 HD
ENDBRANCH  11  17
BRANCH  12  19
HETATM   19  N   UNK N   1      26.396  13.260   2.306  0.00  0.00    -0.421 N 
HETATM   20  H   UNK N   1      25.519  13.781   2.356  0.00  0.00     0.150 HD
HETATM   21  H   UNK N   1      26.370  12.241   2.338  0.00  0.00     0.150 HD
ENDBRANCH  12  19
BRANCH  13  22
HETATM   22  O   UNK N   1      26.896  16.085   2.898  0.00  0.00    -0.388 OA
HETATM   23  H   UNK N   1      26.896  17.051   2.994  0.00  0.00     0.210 HD
ENDBRANCH  13  22
ENDBRANCH   7   8
ENDBRANCH   1   7
BRANCH   3  24
HETATM   24  N   UNK N   1      27.467  17.366   5.861  0.00  0.00    -0.352 N 
HETATM   25  C   UNK N   1      26.841  18.404   5.232  0.00  0.00     0.246 C 
HETATM   26  O   UNK N   1      25.656  18.297   4.943  0.00  0.00    -0.271 OA
HETATM   27  H   UNK N   1      26.946  16.568   6.104  0.00  0.00     0.163 HD
BRANCH  25  28
HETATM   28  C   UNK N   1      27.576  19.699   4.924  0.00  0.00     0.211 C 
BRANCH  28  29
HETATM   29  O   UNK N   1      28.100  19.678   3.628  0.00  0.00    -0.386 OA
HETATM   30  H   UNK N   1      28.592  19.373   2.851  0.00  0.00     0.210 HD
ENDBRANCH  28  29
BRANCH  28  31
HETATM   31  C   UNK N   1      26.764  20.967   5.142  0.00  0.00     0.060 C 
BRANCH  31  32
HETATM   32  C   UNK N   1      27.087  21.536   6.514  0.00  0.00     0.114 C 
BRANCH  32  33
HETATM   33  N   UNK N   1      26.123  21.059   7.487  0.00  0.00    -0.430 N 
HETATM   34  H   UNK N   1      25.124  21.116   7.291  0.00  0.00     0.149 HD
HETATM   35  H   UNK N   1      26.446  20.665   8.371  0.00  0.00     0.149 HD
ENDBRANCH  32  33
ENDBRANCH  31  32
ENDBRANCH  28  31
ENDBRANCH  25  28
ENDBRANCH   3  24
BRANCH   4  36
HETATM   36  O   UNK N   1      32.249  16.590   4.847  0.00  0.00    -0.390 OA
HETATM   37  H   UNK N   1      32.295  16.730   3.888  0.00  0.00     0.210 HD
ENDBRANCH   4  36
BRANCH   2  38
HETATM   38  O   UNK N   1      32.801  17.718   7.291  0.00  0.00    -0.349 OA
BRANCH  38  39
HETATM   39  C   UNK N   1      33.713  16.765   7.748  0.00  0.00     0.292 C 
HETATM   40  O   UNK N   1      33.025  15.553   7.933  0.00  0.00    -0.349 OA
HETATM   41  C   UNK N   1      33.992  14.557   8.141  0.00  0.00     0.173 C 
HETATM   42  C   UNK N   1      34.590  14.748   9.539  0.00  0.00     0.180 C 
HETATM   43  C   UNK N   1      35.274  16.116   9.572  0.00  0.00     0.183 C 
HETATM   44  C   UNK N   1      34.327  17.211   9.080  0.00  0.00     0.204 C 
BRANCH  41  45
HETATM   45  C   UNK N   1      33.338  13.192   8.002  0.00  0.00     0.145 C 
BRANCH  45  46
HETATM   46  N   UNK N   1      32.565  12.892   9.195  0.00  0.00    -0.428 N 
HETATM   47  H   UNK N   1      31.760  13.458   9.464  0.00  0.00     0.150 HD
HETATM   48  H   UNK N   1      32.833  12.098   9.776  0.00  0.00     0.150 HD
ENDBRANCH  45  46
ENDBRANCH  41  45
BRANCH  42  49
HETATM   49  O   UNK N   1      35.528  13.749   9.811  0.00  0.00    -0.390 OA
HETATM   50  H   UNK N   1      35.464  12.849  10.165  0.00  0.00     0.210 HD
ENDBRANCH  42  49
BRANCH  43  51
HETATM   51  O   UNK N   1      35.713  16.406  10.864  0.00  0.00    -0.390 OA
HETATM   52  H   UNK N   1      35.134  16.823  11.522  0.00  0.00     0.210 HD
ENDBRANCH  43  51
BRANCH  44  53
HETATM   53  O   UNK N   1      35.037  18.401   8.907  0.00  0.00    -0.388 OA
HETATM   54  H   UNK N   1      35.963  18.512   9.176  0.00  0.00     0.210 HD
ENDBRANCH  44  53
ENDBRANCH  38  39
ENDBRANCH   2  38
BRANCH   5  55
HETATM   55  N   UNK N   1      30.772  17.405   9.377  0.00  0.00    -0.423 N 
HETATM   56  H   UNK N   1      30.111  17.019  10.052  0.00  0.00     0.150 HD
HETATM   57  H   UNK N   1      31.704  17.641   9.718  0.00  0.00     0.150 HD
ENDBRANCH   5  55
TORSDOF 22
ENDMDL
