MODEL 1
REMARK VINA RESULT:      -6.6      0.000      0.000
REMARK  2 active torsions:
REMARK  status: ('A' for Active; 'I' for Inactive)
REMARK    1  A    between atoms: N_4  and  C_7 
REMARK    2  A    between atoms: N_6  and  C_16 
ROOT
HETATM    1  O   UNK N   1      29.025  24.224  -6.174  0.00  0.00    -0.267 OA
HETATM    2  N   UNK N   1      26.805  24.699  -5.997  0.00  0.00    -0.330 N 
HETATM    3  C   UNK N   1      25.541  24.082  -6.398  0.00  0.00     0.169 A 
HETATM    4  C   UNK N   1      26.026  22.827  -7.081  0.00  0.00     0.002 A 
HETATM    5  C   UNK N   1      27.856  23.943  -6.390  0.00  0.00     0.255 A 
HETATM    6  C   UNK N   1      27.396  22.774  -7.076  0.00  0.00     0.042 A 
HETATM    7  C   UNK N   1      25.275  21.800  -7.658  0.00  0.00     0.034 A 
HETATM    8  C   UNK N   1      28.102  21.716  -7.647  0.00  0.00     0.018 A 
HETATM    9  C   UNK N   1      25.953  20.717  -8.243  0.00  0.00     0.029 A 
HETATM   10  C   UNK N   1      27.364  20.678  -8.242  0.00  0.00     0.003 A 
ENDROOT
BRANCH   2  11
HETATM   11  C   UNK N   1      26.945  25.942  -5.238  0.00  0.00     0.180 C 
HETATM   12  C   UNK N   1      26.221  27.103  -5.907  0.00  0.00     0.044 C 
HETATM   13  C   UNK N   1      26.568  28.399  -5.180  0.00  0.00     0.106 C 
HETATM   14  C   UNK N   1      26.343  28.266  -3.695  0.00  0.00     0.224 C 
HETATM   15  O   UNK N   1      26.178  29.271  -3.025  0.00  0.00    -0.273 OA
HETATM   16  N   UNK N   1      26.304  27.047  -3.094  0.00  0.00    -0.296 N 
HETATM   17  C   UNK N   1      26.529  25.892  -3.772  0.00  0.00     0.247 C 
HETATM   18  H   UNK N   1      26.106  27.000  -2.131  0.00  0.00     0.171 HD
HETATM   19  O   UNK N   1      26.423  24.830  -3.180  0.00  0.00    -0.271 OA
ENDBRANCH   2  11
BRANCH   7  20
HETATM   20  N   UNK N   1      23.866  21.841  -7.649  0.00  0.00    -0.399 N 
HETATM   21  H   UNK N   1      23.371  21.940  -8.494  0.00  0.00     0.156 HD
HETATM   22  H   UNK N   1      23.379  21.771  -6.797  0.00  0.00     0.156 HD
ENDBRANCH   7  20
TORSDOF 2
ENDMDL
MODEL 2
REMARK VINA RESULT:      -6.5     13.822     14.976
REMARK  2 active torsions:
REMARK  status: ('A' for Active; 'I' for Inactive)
REMARK    1  A    between atoms: N_4  and  C_7 
REMARK    2  A    between atoms: N_6  and  C_16 
ROOT
HETATM    1  O   UNK N   1      20.780  18.812   7.254  0.00  0.00    -0.267 OA
HETATM    2  N   UNK N   1      21.189  17.573   5.387  0.00  0.00    -0.330 N 
HETATM    3  C   UNK N   1      21.350  16.159   5.052  0.00  0.00     0.169 A 
HETATM    4  C   UNK N   1      21.162  15.511   6.402  0.00  0.00     0.002 A 
HETATM    5  C   UNK N   1      20.959  17.732   6.711  0.00  0.00     0.255 A 
HETATM    6  C   UNK N   1      20.947  16.460   7.367  0.00  0.00     0.042 A 
HETATM    7  C   UNK N   1      21.177  14.153   6.729  0.00  0.00     0.034 A 
HETATM    8  C   UNK N   1      20.746  16.128   8.706  0.00  0.00     0.018 A 
HETATM    9  C   UNK N   1      20.977  13.780   8.069  0.00  0.00     0.029 A 
HETATM   10  C   UNK N   1      20.767  14.766   9.056  0.00  0.00     0.003 A 
ENDROOT
BRANCH   2  11
HETATM   11  C   UNK N   1      21.223  18.685   4.436  0.00  0.00     0.180 C 
HETATM   12  C   UNK N   1      22.606  18.867   3.824  0.00  0.00     0.044 C 
HETATM   13  C   UNK N   1      22.626  20.152   3.000  0.00  0.00     0.106 C 
HETATM   14  C   UNK N   1      21.476  20.192   2.025  0.00  0.00     0.224 C 
HETATM   15  O   UNK N   1      21.552  20.910   1.043  0.00  0.00    -0.273 OA
HETATM   16  N   UNK N   1      20.366  19.430   2.213  0.00  0.00    -0.296 N 
HETATM   17  C   UNK N   1      20.195  18.647   3.310  0.00  0.00     0.247 C 
HETATM   18  H   UNK N   1      19.659  19.447   1.529  0.00  0.00     0.171 HD
HETATM   19  O   UNK N   1      19.199  17.947   3.387  0.00  0.00    -0.271 OA
ENDBRANCH   2  11
BRANCH   7  20
HETATM   20  N   UNK N   1      21.378  13.172   5.736  0.00  0.00    -0.399 N 
HETATM   21  H   UNK N   1      21.527  13.442   4.801  0.00  0.00     0.156 HD
HETATM   22  H   UNK N   1      21.369  12.218   5.979  0.00  0.00     0.156 HD
ENDBRANCH   7  20
TORSDOF 2
ENDMDL
MODEL 3
REMARK VINA RESULT:      -6.4     19.801     21.013
REMARK  2 active torsions:
REMARK  status: ('A' for Active; 'I' for Inactive)
REMARK    1  A    between atoms: N_4  and  C_7 
REMARK    2  A    between atoms: N_6  and  C_16 
ROOT
HETATM    1  O   UNK N   1      35.921  17.280  10.554  0.00  0.00    -0.267 OA
HETATM    2  N   UNK N   1      34.959  15.218  10.470  0.00  0.00    -0.330 N 
HETATM    3  C   UNK N   1      33.971  14.529   9.641  0.00  0.00     0.169 A 
HETATM    4  C   UNK N   1      33.615  15.605   8.645  0.00  0.00     0.002 A 
HETATM    5  C   UNK N   1      35.144  16.489  10.043  0.00  0.00     0.255 A 
HETATM    6  C   UNK N   1      34.309  16.756   8.911  0.00  0.00     0.042 A 
HETATM    7  C   UNK N   1      32.730  15.539   7.566  0.00  0.00     0.034 A 
HETATM    8  C   UNK N   1      34.163  17.908   8.139  0.00  0.00     0.018 A 
HETATM    9  C   UNK N   1      32.558  16.681   6.766  0.00  0.00     0.029 A 
HETATM   10  C   UNK N   1      33.269  17.865   7.056  0.00  0.00     0.003 A 
ENDROOT
BRANCH   2  11
HETATM   11  C   UNK N   1      35.695  14.628  11.589  0.00  0.00     0.180 C 
HETATM   12  C   UNK N   1      34.823  13.691  12.413  0.00  0.00     0.044 C 
HETATM   13  C   UNK N   1      35.584  13.267  13.667  0.00  0.00     0.106 C 
HETATM   14  C   UNK N   1      36.953  12.740  13.320  0.00  0.00     0.224 C 
HETATM   15  O   UNK N   1      37.526  12.006  14.107  0.00  0.00    -0.273 OA
HETATM   16  N   UNK N   1      37.552  13.054  12.140  0.00  0.00    -0.296 N 
HETATM   17  C   UNK N   1      36.992  13.905  11.241  0.00  0.00     0.247 C 
HETATM   18  H   UNK N   1      38.424  12.650  11.929  0.00  0.00     0.171 HD
HETATM   19  O   UNK N   1      37.559  14.098  10.178  0.00  0.00    -0.271 OA
ENDBRANCH   2  11
BRANCH   7  20
HETATM   20  N   UNK N   1      32.029  14.351   7.277  0.00  0.00    -0.399 N 
HETATM   21  H   UNK N   1      31.998  14.010   6.354  0.00  0.00     0.156 HD
HETATM   22  H   UNK N   1      31.570  13.863   7.999  0.00  0.00     0.156 HD
ENDBRANCH   7  20
TORSDOF 2
ENDMDL
MODEL 4
REMARK VINA RESULT:      -6.4     26.099     27.422
REMARK  2 active torsions:
REMARK  status: ('A' for Active; 'I' for Inactive)
REMARK    1  A    between atoms: N_4  and  C_7 
REMARK    2  A    between atoms: N_6  and  C_16 
ROOT
HETATM    1  O   UNK N   1      36.856  10.157  15.691  0.00  0.00    -0.267 OA
HETATM    2  N   UNK N   1      35.977  12.201  16.175  0.00  0.00    -0.330 N 
HETATM    3  C   UNK N   1      35.428  12.882  17.346  0.00  0.00     0.169 A 
HETATM    4  C   UNK N   1      35.561  11.813  18.402  0.00  0.00     0.002 A 
HETATM    5  C   UNK N   1      36.357  10.940  16.485  0.00  0.00     0.255 A 
HETATM    6  C   UNK N   1      36.098  10.671  17.867  0.00  0.00     0.042 A 
HETATM    7  C   UNK N   1      35.226  11.876  19.757  0.00  0.00     0.034 A 
HETATM    8  C   UNK N   1      36.326   9.527  18.630  0.00  0.00     0.018 A 
HETATM    9  C   UNK N   1      35.442  10.742  20.557  0.00  0.00     0.029 A 
HETATM   10  C   UNK N   1      35.985   9.568  19.994  0.00  0.00     0.003 A 
ENDROOT
BRANCH   2  11
HETATM   11  C   UNK N   1      36.145  12.790  14.845  0.00  0.00     0.180 C 
HETATM   12  C   UNK N   1      34.835  12.829  14.070  0.00  0.00     0.044 C 
HETATM   13  C   UNK N   1      35.113  13.266  12.634  0.00  0.00     0.106 C 
HETATM   14  C   UNK N   1      35.924  14.537  12.599  0.00  0.00     0.224 C 
HETATM   15  O   UNK N   1      35.897  15.233  11.599  0.00  0.00    -0.273 OA
HETATM   16  N   UNK N   1      36.669  14.927  13.667  0.00  0.00    -0.296 N 
HETATM   17  C   UNK N   1      36.782  14.174  14.793  0.00  0.00     0.247 C 
HETATM   18  H   UNK N   1      37.145  15.787  13.623  0.00  0.00     0.171 HD
HETATM   19  O   UNK N   1      37.423  14.613  15.734  0.00  0.00    -0.271 OA
ENDBRANCH   2  11
BRANCH   7  20
HETATM   20  N   UNK N   1      34.691  13.054  20.315  0.00  0.00    -0.399 N 
HETATM   21  H   UNK N   1      35.287  13.710  20.745  0.00  0.00     0.156 HD
HETATM   22  H   UNK N   1      33.722  13.221  20.276  0.00  0.00     0.156 HD
ENDBRANCH   7  20
TORSDOF 2
ENDMDL
MODEL 5
REMARK VINA RESULT:      -6.4      3.431      6.622
REMARK  2 active torsions:
REMARK  status: ('A' for Active; 'I' for Inactive)
REMARK    1  A    between atoms: N_4  and  C_7 
REMARK    2  A    between atoms: N_6  and  C_16 
ROOT
HETATM    1  O   UNK N   1      26.657  24.094  -2.904  0.00  0.00    -0.267 OA
HETATM    2  N   UNK N   1      28.483  24.528  -4.194  0.00  0.00    -0.330 N 
HETATM    3  C   UNK N   1      29.058  25.680  -4.885  0.00  0.00     0.169 A 
HETATM    4  C   UNK N   1      28.060  26.760  -4.543  0.00  0.00     0.002 A 
HETATM    5  C   UNK N   1      27.334  24.867  -3.563  0.00  0.00     0.255 A 
HETATM    6  C   UNK N   1      27.046  26.253  -3.774  0.00  0.00     0.042 A 
HETATM    7  C   UNK N   1      28.080  28.111  -4.898  0.00  0.00     0.034 A 
HETATM    8  C   UNK N   1      25.989  27.043  -3.322  0.00  0.00     0.018 A 
HETATM    9  C   UNK N   1      27.031  28.938  -4.459  0.00  0.00     0.029 A 
HETATM   10  C   UNK N   1      25.985  28.403  -3.677  0.00  0.00     0.003 A 
ENDROOT
BRANCH   2  11
HETATM   11  C   UNK N   1      29.067  23.187  -4.138  0.00  0.00     0.180 C 
HETATM   12  C   UNK N   1      29.586  22.735  -5.496  0.00  0.00     0.044 C 
HETATM   13  C   UNK N   1      29.998  21.268  -5.415  0.00  0.00     0.106 C 
HETATM   14  C   UNK N   1      30.929  21.027  -4.254  0.00  0.00     0.224 C 
HETATM   15  O   UNK N   1      31.658  20.050  -4.267  0.00  0.00    -0.273 OA
HETATM   16  N   UNK N   1      30.983  21.889  -3.203  0.00  0.00    -0.296 N 
HETATM   17  C   UNK N   1      30.164  22.968  -3.102  0.00  0.00     0.247 C 
HETATM   18  H   UNK N   1      31.639  21.723  -2.489  0.00  0.00     0.171 HD
HETATM   19  O   UNK N   1      30.305  23.730  -2.159  0.00  0.00    -0.271 OA
ENDBRANCH   2  11
BRANCH   7  20
HETATM   20  N   UNK N   1      29.132  28.641  -5.672  0.00  0.00    -0.399 N 
HETATM   21  H   UNK N   1      28.973  29.425  -6.247  0.00  0.00     0.156 HD
HETATM   22  H   UNK N   1      30.024  28.227  -5.638  0.00  0.00     0.156 HD
ENDBRANCH   7  20
TORSDOF 2
ENDMDL
MODEL 6
REMARK VINA RESULT:      -6.3      3.362      5.960
REMARK  2 active torsions:
REMARK  status: ('A' for Active; 'I' for Inactive)
REMARK    1  A    between atoms: N_4  and  C_7 
REMARK    2  A    between atoms: N_6  and  C_16 
ROOT
HETATM    1  O   UNK N   1      27.019  23.485  -5.643  0.00  0.00    -0.267 OA
HETATM    2  N   UNK N   1      28.318  24.753  -4.269  0.00  0.00    -0.330 N 
HETATM    3  C   UNK N   1      28.295  26.108  -3.722  0.00  0.00     0.169 A 
HETATM    4  C   UNK N   1      27.021  26.651  -4.323  0.00  0.00     0.002 A 
HETATM    5  C   UNK N   1      27.247  24.537  -5.067  0.00  0.00     0.255 A 
HETATM    6  C   UNK N   1      26.428  25.710  -5.124  0.00  0.00     0.042 A 
HETATM    7  C   UNK N   1      26.438  27.907  -4.146  0.00  0.00     0.034 A 
HETATM    8  C   UNK N   1      25.236  25.956  -5.803  0.00  0.00     0.018 A 
HETATM    9  C   UNK N   1      25.235  28.191  -4.815  0.00  0.00     0.029 A 
HETATM   10  C   UNK N   1      24.638  27.219  -5.647  0.00  0.00     0.003 A 
ENDROOT
BRANCH   2  11
HETATM   11  C   UNK N   1      29.325  23.731  -3.978  0.00  0.00     0.180 C 
HETATM   12  C   UNK N   1      30.741  24.260  -4.162  0.00  0.00     0.044 C 
HETATM   13  C   UNK N   1      31.730  23.104  -4.038  0.00  0.00     0.106 C 
HETATM   14  C   UNK N   1      31.492  22.318  -2.774  0.00  0.00     0.224 C 
HETATM   15  O   UNK N   1      32.396  21.641  -2.314  0.00  0.00    -0.273 OA
HETATM   16  N   UNK N   1      30.296  22.364  -2.129  0.00  0.00    -0.296 N 
HETATM   17  C   UNK N   1      29.233  23.057  -2.613  0.00  0.00     0.247 C 
HETATM   18  H   UNK N   1      30.196  21.876  -1.281  0.00  0.00     0.171 HD
HETATM   19  O   UNK N   1      28.207  23.101  -1.954  0.00  0.00    -0.271 OA
ENDBRANCH   2  11
BRANCH   7  20
HETATM   20  N   UNK N   1      27.034  28.871  -3.308  0.00  0.00    -0.399 N 
HETATM   21  H   UNK N   1      26.830  28.879  -2.345  0.00  0.00     0.156 HD
HETATM   22  H   UNK N   1      27.654  29.535  -3.687  0.00  0.00     0.156 HD
ENDBRANCH   7  20
TORSDOF 2
ENDMDL
MODEL 7
REMARK VINA RESULT:      -6.3     17.733     18.777
REMARK  2 active torsions:
REMARK  status: ('A' for Active; 'I' for Inactive)
REMARK    1  A    between atoms: N_4  and  C_7 
REMARK    2  A    between atoms: N_6  and  C_16 
ROOT
HETATM    1  O   UNK N   1      24.121  14.207   7.486  0.00  0.00    -0.267 OA
HETATM    2  N   UNK N   1      21.919  13.963   8.014  0.00  0.00    -0.330 N 
HETATM    3  C   UNK N   1      21.135  13.367   9.095  0.00  0.00     0.169 A 
HETATM    4  C   UNK N   1      22.225  12.833   9.993  0.00  0.00     0.002 A 
HETATM    5  C   UNK N   1      23.245  13.796   8.231  0.00  0.00     0.255 A 
HETATM    6  C   UNK N   1      23.460  13.086   9.455  0.00  0.00     0.042 A 
HETATM    7  C   UNK N   1      22.102  12.172  11.217  0.00  0.00     0.034 A 
HETATM    8  C   UNK N   1      24.640  12.694  10.086  0.00  0.00     0.018 A 
HETATM    9  C   UNK N   1      23.270  11.762  11.882  0.00  0.00     0.029 A 
HETATM   10  C   UNK N   1      24.537  12.018  11.314  0.00  0.00     0.003 A 
ENDROOT
BRANCH   2  11
HETATM   11  C   UNK N   1      21.376  14.684   6.863  0.00  0.00     0.180 C 
HETATM   12  C   UNK N   1      20.343  13.858   6.109  0.00  0.00     0.044 C 
HETATM   13  C   UNK N   1      19.964  14.580   4.819  0.00  0.00     0.106 C 
HETATM   14  C   UNK N   1      19.574  16.011   5.091  0.00  0.00     0.224 C 
HETATM   15  O   UNK N   1      18.879  16.603   4.283  0.00  0.00    -0.273 OA
HETATM   16  N   UNK N   1      19.969  16.645   6.227  0.00  0.00    -0.296 N 
HETATM   17  C   UNK N   1      20.784  16.061   7.143  0.00  0.00     0.247 C 
HETATM   18  H   UNK N   1      19.652  17.562   6.391  0.00  0.00     0.171 HD
HETATM   19  O   UNK N   1      21.053  16.669   8.167  0.00  0.00    -0.271 OA
ENDBRANCH   2  11
BRANCH   7  20
HETATM   20  N   UNK N   1      20.834  11.927  11.783  0.00  0.00    -0.399 N 
HETATM   21  H   UNK N   1      20.253  12.681  12.033  0.00  0.00     0.156 HD
HETATM   22  H   UNK N   1      20.532  11.001  11.929  0.00  0.00     0.156 HD
ENDBRANCH   7  20
TORSDOF 2
ENDMDL
MODEL 8
REMARK VINA RESULT:      -6.2     16.556     17.659
REMARK  2 active torsions:
REMARK  status: ('A' for Active; 'I' for Inactive)
REMARK    1  A    between atoms: N_4  and  C_7 
REMARK    2  A    between atoms: N_6  and  C_16 
ROOT
HETATM    1  O   UNK N   1      19.314  15.664   8.735  0.00  0.00    -0.267 OA
HETATM    2  N   UNK N   1      20.853  15.204   7.122  0.00  0.00    -0.330 N 
HETATM    3  C   UNK N   1      21.964  14.272   6.934  0.00  0.00     0.169 A 
HETATM    4  C   UNK N   1      21.928  13.501   8.231  0.00  0.00     0.002 A 
HETATM    5  C   UNK N   1      20.270  15.022   8.330  0.00  0.00     0.255 A 
HETATM    6  C   UNK N   1      20.929  13.971   9.043  0.00  0.00     0.042 A 
HETATM    7  C   UNK N   1      22.739  12.440   8.639  0.00  0.00     0.034 A 
HETATM    8  C   UNK N   1      20.681  13.432  10.305  0.00  0.00     0.018 A 
HETATM    9  C   UNK N   1      22.518  11.871   9.905  0.00  0.00     0.029 A 
HETATM   10  C   UNK N   1      21.494  12.370  10.738  0.00  0.00     0.003 A 
ENDROOT
BRANCH   2  11
HETATM   11  C   UNK N   1      20.385  16.183   6.140  0.00  0.00     0.180 C 
HETATM   12  C   UNK N   1      21.538  16.824   5.381  0.00  0.00     0.044 C 
HETATM   13  C   UNK N   1      21.003  17.967   4.522  0.00  0.00     0.106 C 
HETATM   14  C   UNK N   1      19.843  17.512   3.673  0.00  0.00     0.224 C 
HETATM   15  O   UNK N   1      19.558  18.139   2.667  0.00  0.00    -0.273 OA
HETATM   16  N   UNK N   1      19.121  16.406   3.999  0.00  0.00    -0.296 N 
HETATM   17  C   UNK N   1      19.353  15.691   5.131  0.00  0.00     0.247 C 
HETATM   18  H   UNK N   1      18.404  16.114   3.393  0.00  0.00     0.171 HD
HETATM   19  O   UNK N   1      18.704  14.678   5.332  0.00  0.00    -0.271 OA
ENDBRANCH   2  11
BRANCH   7  20
HETATM   20  N   UNK N   1      23.755  11.940   7.799  0.00  0.00    -0.399 N 
HETATM   21  H   UNK N   1      24.105  11.031   7.937  0.00  0.00     0.156 HD
HETATM   22  H   UNK N   1      24.113  12.502   7.074  0.00  0.00     0.156 HD
ENDBRANCH   7  20
TORSDOF 2
ENDMDL
MODEL 9
REMARK VINA RESULT:      -6.2     15.563     16.535
REMARK  2 active torsions:
REMARK  status: ('A' for Active; 'I' for Inactive)
REMARK    1  A    between atoms: N_4  and  C_7 
REMARK    2  A    between atoms: N_6  and  C_16 
ROOT
HETATM    1  O   UNK N   1      31.911  14.447   5.767  0.00  0.00    -0.267 OA
HETATM    2  N   UNK N   1      31.368  16.284   6.998  0.00  0.00    -0.330 N 
HETATM    3  C   UNK N   1      30.183  17.108   7.229  0.00  0.00     0.169 A 
HETATM    4  C   UNK N   1      29.165  16.417   6.356  0.00  0.00     0.002 A 
HETATM    5  C   UNK N   1      31.098  15.285   6.126  0.00  0.00     0.255 A 
HETATM    6  C   UNK N   1      29.732  15.352   5.704  0.00  0.00     0.042 A 
HETATM    7  C   UNK N   1      27.815  16.728   6.174  0.00  0.00     0.034 A 
HETATM    8  C   UNK N   1      29.007  14.543   4.831  0.00  0.00     0.018 A 
HETATM    9  C   UNK N   1      27.053  15.933   5.301  0.00  0.00     0.029 A 
HETATM   10  C   UNK N   1      27.650  14.846   4.626  0.00  0.00     0.003 A 
ENDROOT
BRANCH   2  11
HETATM   11  C   UNK N   1      32.672  16.464   7.639  0.00  0.00     0.180 C 
HETATM   12  C   UNK N   1      33.063  17.932   7.731  0.00  0.00     0.044 C 
HETATM   13  C   UNK N   1      34.504  18.040   8.223  0.00  0.00     0.106 C 
HETATM   14  C   UNK N   1      34.711  17.235   9.481  0.00  0.00     0.224 C 
HETATM   15  O   UNK N   1      35.641  17.511  10.219  0.00  0.00    -0.273 OA
HETATM   16  N   UNK N   1      33.870  16.220   9.815  0.00  0.00    -0.296 N 
HETATM   17  C   UNK N   1      32.844  15.828   9.014  0.00  0.00     0.247 C 
HETATM   18  H   UNK N   1      34.009  15.751  10.669  0.00  0.00     0.171 HD
HETATM   19  O   UNK N   1      32.095  14.947   9.403  0.00  0.00    -0.271 OA
ENDBRANCH   2  11
BRANCH   7  20
HETATM   20  N   UNK N   1      27.223  17.809   6.857  0.00  0.00    -0.399 N 
HETATM   21  H   UNK N   1      26.281  18.040   6.690  0.00  0.00     0.156 HD
HETATM   22  H   UNK N   1      27.753  18.334   7.499  0.00  0.00     0.156 HD
ENDBRANCH   7  20
TORSDOF 2
ENDMDL
