REMARK  2 active torsions:
REMARK  status: ('A' for Active; 'I' for Inactive)
REMARK    1  A    between atoms: N_4  and  C_7 
REMARK    2  A    between atoms: N_6  and  C_16 
ROOT
HETATM    1  O   UNK N   1       3.856  -2.504   0.152  0.00  0.00    -0.267 OA
HETATM    2  N   UNK N   1       4.353  -0.282   0.141  0.00  0.00    -0.330 N 
HETATM    3  C   UNK N   1       3.621   0.980   0.047  0.00  0.00     0.169 A 
HETATM    4  C   UNK N   1       2.197   0.491  -0.059  0.00  0.00     0.002 A 
HETATM    5  C   UNK N   1       3.506  -1.336   0.086  0.00  0.00     0.255 A 
HETATM    6  C   UNK N   1       2.156  -0.879  -0.048  0.00  0.00     0.042 A 
HETATM    7  C   UNK N   1       1.021   1.239  -0.149  0.00  0.00     0.034 A 
HETATM    8  C   UNK N   1       0.959  -1.588  -0.136  0.00  0.00     0.018 A 
HETATM    9  C   UNK N   1      -0.205   0.558  -0.239  0.00  0.00     0.029 A 
HETATM   10  C   UNK N   1      -0.235  -0.853  -0.238  0.00  0.00     0.003 A 
ENDROOT
BRANCH   2  11
HETATM   11  C   UNK N   1       5.800  -0.419   0.314  0.00  0.00     0.180 C 
HETATM   12  C   UNK N   1       6.417  -1.320  -0.747  0.00  0.00     0.044 C 
HETATM   13  C   UNK N   1       7.880  -1.580  -0.398  0.00  0.00     0.106 C 
HETATM   14  C   UNK N   1       8.615  -0.289  -0.138  0.00  0.00     0.224 C 
HETATM   15  O   UNK N   1       9.829  -0.263  -0.243  0.00  0.00    -0.273 OA
HETATM   16  N   UNK N   1       7.947   0.848   0.194  0.00  0.00    -0.296 N 
HETATM   17  C   UNK N   1       6.601   0.877   0.376  0.00  0.00     0.247 C 
HETATM   18  H   UNK N   1       8.458   1.681   0.307  0.00  0.00     0.171 HD
HETATM   19  O   UNK N   1       6.061   1.944   0.618  0.00  0.00    -0.271 OA
ENDBRANCH   2  11
BRANCH   7  20
HETATM   20  N   UNK N   1       1.057   2.648  -0.141  0.00  0.00    -0.399 N 
HETATM   21  H   UNK N   1       1.922   3.118  -0.135  0.00  0.00     0.156 HD
HETATM   22  H   UNK N   1       0.217   3.161  -0.141  0.00  0.00     0.156 HD
ENDBRANCH   7  20
TORSDOF 2
