MODEL 1
REMARK VINA RESULT:      -8.6      0.000      0.000
REMARK  9 active torsions:
REMARK  status: ('A' for Active; 'I' for Inactive)
REMARK    1  A    between atoms: O_2  and  C_13 
REMARK    2  A    between atoms: O_2  and  C_14 
REMARK    3  A    between atoms: O_4  and  C_29 
REMARK    4  A    between atoms: O_5  and  C_34 
REMARK    5  A    between atoms: N_6  and  C_12 
REMARK    6  A    between atoms: C_12  and  C_13 
REMARK    7  A    between atoms: C_15  and  C_20 
REMARK    8  A    between atoms: C_17  and  C_25 
REMARK    9  A    between atoms: C_19  and  C_20 
ROOT
HETATM    1  S   UNK N   1      30.047  16.001   5.664  0.00  0.00    -0.088 SA
HETATM    2  C   UNK N   1      32.109  16.910   6.731  0.00  0.00     0.044 A 
HETATM    3  C   UNK N   1      30.969  17.353   7.497  0.00  0.00    -0.003 A 
HETATM    4  C   UNK N   1      31.723  16.082   5.636  0.00  0.00     0.031 A 
HETATM    5  C   UNK N   1      29.746  16.929   6.995  0.00  0.00     0.019 A 
HETATM    6  C   UNK N   1      30.991  18.100   8.684  0.00  0.00     0.016 A 
HETATM    7  C   UNK N   1      28.533  17.253   7.601  0.00  0.00     0.056 A 
HETATM    8  C   UNK N   1      29.791  18.446   9.313  0.00  0.00     0.037 A 
HETATM    9  C   UNK N   1      28.564  18.034   8.771  0.00  0.00     0.067 A 
ENDROOT
BRANCH   2  10
HETATM   10  C   UNK N   1      33.516  17.252   7.136  0.00  0.00     0.194 C 
HETATM   11  O   UNK N   1      34.180  18.023   6.467  0.00  0.00    -0.287 OA
BRANCH  10  12
HETATM   12  C   UNK N   1      34.157  16.507   8.242  0.00  0.00     0.015 A 
HETATM   13  C   UNK N   1      34.535  15.172   8.048  0.00  0.00     0.018 A 
HETATM   14  C   UNK N   1      35.347  14.527   8.970  0.00  0.00     0.037 A 
HETATM   15  C   UNK N   1      35.799  15.207  10.096  0.00  0.00     0.068 A 
HETATM   16  C   UNK N   1      35.344  16.517  10.349  0.00  0.00     0.037 A 
HETATM   17  C   UNK N   1      34.513  17.163   9.426  0.00  0.00     0.018 A 
BRANCH  15  18
HETATM   18  O   UNK N   1      36.703  14.595  10.889  0.00  0.00    -0.349 OA
BRANCH  18  19
HETATM   19  C   UNK N   1      36.454  13.441  11.591  0.00  0.00     0.206 C 
BRANCH  19  20
HETATM   20  C   UNK N   1      35.854  13.828  12.936  0.00  0.00     0.299 C 
BRANCH  20  21
HETATM   21  N   UNK N   1      34.971  12.804  13.500  0.00  0.00     0.090 N 
HETATM   22  C   UNK N   1      35.139  12.664  14.960  0.00  0.00     0.272 C 
HETATM   23  C   UNK N   1      34.612  11.326  15.498  0.00  0.00     0.030 C 
HETATM   24  C   UNK N   1      33.537  10.761  14.576  0.00  0.00     0.003 C 
HETATM   25  C   UNK N   1      34.083  10.547  13.159  0.00  0.00     0.030 C 
HETATM   26  C   UNK N   1      35.196  11.539  12.807  0.00  0.00     0.272 C 
ENDBRANCH  20  21
ENDBRANCH  19  20
ENDBRANCH  18  19
ENDBRANCH  15  18
ENDBRANCH  10  12
ENDBRANCH   2  10
BRANCH   4  27
HETATM   27  C   UNK N   1      32.561  15.401   4.614  0.00  0.00    -0.018 A 
HETATM   28  C   UNK N   1      33.043  16.081   3.490  0.00  0.00     0.015 A 
HETATM   29  C   UNK N   1      33.856  15.437   2.555  0.00  0.00     0.037 A 
HETATM   30  C   UNK N   1      34.193  14.095   2.735  0.00  0.00     0.065 A 
HETATM   31  C   UNK N   1      33.704  13.395   3.841  0.00  0.00     0.037 A 
HETATM   32  C   UNK N   1      32.889  14.044   4.775  0.00  0.00     0.015 A 
BRANCH  30  33
HETATM   33  O   UNK N   1      34.988  13.480   1.845  0.00  0.00    -0.361 OA
HETATM   34  H   UNK N   1      34.757  12.633   1.518  0.00  0.00     0.217 HD
ENDBRANCH  30  33
ENDBRANCH   4  27
BRANCH   9  35
HETATM   35  O   UNK N   1      27.420  18.381   9.381  0.00  0.00    -0.361 OA
HETATM   36  H   UNK N   1      27.442  18.889  10.168  0.00  0.00     0.217 HD
ENDBRANCH   9  35
TORSDOF 9
ENDMDL
MODEL 2
REMARK VINA RESULT:      -7.8      6.373     11.300
REMARK  9 active torsions:
REMARK  status: ('A' for Active; 'I' for Inactive)
REMARK    1  A    between atoms: O_2  and  C_13 
REMARK    2  A    between atoms: O_2  and  C_14 
REMARK    3  A    between atoms: O_4  and  C_29 
REMARK    4  A    between atoms: O_5  and  C_34 
REMARK    5  A    between atoms: N_6  and  C_12 
REMARK    6  A    between atoms: C_12  and  C_13 
REMARK    7  A    between atoms: C_15  and  C_20 
REMARK    8  A    between atoms: C_17  and  C_25 
REMARK    9  A    between atoms: C_19  and  C_20 
ROOT
HETATM    1  S   UNK N   1      28.553  18.736   6.945  0.00  0.00    -0.088 SA
HETATM    2  C   UNK N   1      28.871  17.145   5.051  0.00  0.00     0.044 A 
HETATM    3  C   UNK N   1      29.790  16.786   6.104  0.00  0.00    -0.003 A 
HETATM    4  C   UNK N   1      28.057  18.260   5.413  0.00  0.00     0.031 A 
HETATM    5  C   UNK N   1      29.729  17.611   7.219  0.00  0.00     0.019 A 
HETATM    6  C   UNK N   1      30.666  15.691   6.120  0.00  0.00     0.016 A 
HETATM    7  C   UNK N   1      30.536  17.420   8.339  0.00  0.00     0.056 A 
HETATM    8  C   UNK N   1      31.493  15.474   7.227  0.00  0.00     0.037 A 
HETATM    9  C   UNK N   1      31.438  16.340   8.330  0.00  0.00     0.067 A 
ENDROOT
BRANCH   2  10
HETATM   10  C   UNK N   1      28.778  16.353   3.777  0.00  0.00     0.194 C 
HETATM   11  O   UNK N   1      29.633  16.465   2.917  0.00  0.00    -0.287 OA
BRANCH  10  12
HETATM   12  C   UNK N   1      27.551  15.578   3.489  0.00  0.00     0.015 A 
HETATM   13  C   UNK N   1      26.931  14.858   4.519  0.00  0.00     0.018 A 
HETATM   14  C   UNK N   1      25.663  14.325   4.344  0.00  0.00     0.037 A 
HETATM   15  C   UNK N   1      24.991  14.508   3.140  0.00  0.00     0.068 A 
HETATM   16  C   UNK N   1      25.645  15.144   2.065  0.00  0.00     0.037 A 
HETATM   17  C   UNK N   1      26.931  15.670   2.238  0.00  0.00     0.018 A 
BRANCH  15  18
HETATM   18  O   UNK N   1      23.706  14.104   3.061  0.00  0.00    -0.349 OA
BRANCH  18  19
HETATM   19  C   UNK N   1      22.685  14.635   3.811  0.00  0.00     0.206 C 
BRANCH  19  20
HETATM   20  C   UNK N   1      21.750  15.386   2.871  0.00  0.00     0.299 C 
BRANCH  20  21
HETATM   21  N   UNK N   1      21.572  16.795   3.225  0.00  0.00     0.090 N 
HETATM   22  C   UNK N   1      21.769  17.039   4.667  0.00  0.00     0.272 C 
HETATM   23  C   UNK N   1      21.140  18.356   5.145  0.00  0.00     0.030 C 
HETATM   24  C   UNK N   1      21.024  19.345   3.990  0.00  0.00     0.003 C 
HETATM   25  C   UNK N   1      20.170  18.769   2.854  0.00  0.00     0.030 C 
HETATM   26  C   UNK N   1      20.255  17.242   2.777  0.00  0.00     0.272 C 
ENDBRANCH  20  21
ENDBRANCH  19  20
ENDBRANCH  18  19
ENDBRANCH  15  18
ENDBRANCH  10  12
ENDBRANCH   2  10
BRANCH   4  27
HETATM   27  C   UNK N   1      26.979  18.941   4.650  0.00  0.00    -0.018 A 
HETATM   28  C   UNK N   1      27.246  20.044   3.831  0.00  0.00     0.015 A 
HETATM   29  C   UNK N   1      26.229  20.654   3.095  0.00  0.00     0.037 A 
HETATM   30  C   UNK N   1      24.924  20.165   3.175  0.00  0.00     0.065 A 
HETATM   31  C   UNK N   1      24.636  19.078   4.003  0.00  0.00     0.037 A 
HETATM   32  C   UNK N   1      25.659  18.470   4.740  0.00  0.00     0.015 A 
BRANCH  30  33
HETATM   33  O   UNK N   1      23.949  20.741   2.455  0.00  0.00    -0.361 OA
HETATM   34  H   UNK N   1      23.836  21.671   2.478  0.00  0.00     0.217 HD
ENDBRANCH  30  33
ENDBRANCH   4  27
BRANCH   9  35
HETATM   35  O   UNK N   1      32.244  16.124   9.381  0.00  0.00    -0.361 OA
HETATM   36  H   UNK N   1      32.919  16.740   9.591  0.00  0.00     0.217 HD
ENDBRANCH   9  35
TORSDOF 9
ENDMDL
MODEL 3
REMARK VINA RESULT:      -7.8      9.892     13.351
REMARK  9 active torsions:
REMARK  status: ('A' for Active; 'I' for Inactive)
REMARK    1  A    between atoms: O_2  and  C_13 
REMARK    2  A    between atoms: O_2  and  C_14 
REMARK    3  A    between atoms: O_4  and  C_29 
REMARK    4  A    between atoms: O_5  and  C_34 
REMARK    5  A    between atoms: N_6  and  C_12 
REMARK    6  A    between atoms: C_12  and  C_13 
REMARK    7  A    between atoms: C_15  and  C_20 
REMARK    8  A    between atoms: C_17  and  C_25 
REMARK    9  A    between atoms: C_19  and  C_20 
ROOT
HETATM    1  S   UNK N   1      24.945  13.276   7.007  0.00  0.00    -0.088 SA
HETATM    2  C   UNK N   1      22.471  13.013   6.834  0.00  0.00     0.044 A 
HETATM    3  C   UNK N   1      22.853  12.820   8.212  0.00  0.00    -0.003 A 
HETATM    4  C   UNK N   1      23.596  13.316   6.010  0.00  0.00     0.031 A 
HETATM    5  C   UNK N   1      24.218  12.921   8.445  0.00  0.00     0.019 A 
HETATM    6  C   UNK N   1      21.996  12.600   9.300  0.00  0.00     0.016 A 
HETATM    7  C   UNK N   1      24.776  12.770   9.713  0.00  0.00     0.056 A 
HETATM    8  C   UNK N   1      22.525  12.438  10.585  0.00  0.00     0.037 A 
HETATM    9  C   UNK N   1      23.910  12.513  10.793  0.00  0.00     0.067 A 
ENDROOT
BRANCH   2  10
HETATM   10  C   UNK N   1      21.034  12.962   6.395  0.00  0.00     0.194 C 
HETATM   11  O   UNK N   1      20.406  11.921   6.460  0.00  0.00    -0.287 OA
BRANCH  10  12
HETATM   12  C   UNK N   1      20.440  14.132   5.712  0.00  0.00     0.015 A 
HETATM   13  C   UNK N   1      20.465  15.385   6.339  0.00  0.00     0.018 A 
HETATM   14  C   UNK N   1      20.140  16.534   5.634  0.00  0.00     0.037 A 
HETATM   15  C   UNK N   1      19.789  16.451   4.290  0.00  0.00     0.068 A 
HETATM   16  C   UNK N   1      19.665  15.187   3.679  0.00  0.00     0.037 A 
HETATM   17  C   UNK N   1      19.980  14.026   4.394  0.00  0.00     0.018 A 
BRANCH  15  18
HETATM   18  O   UNK N   1      19.624  17.600   3.604  0.00  0.00    -0.349 OA
BRANCH  18  19
HETATM   19  C   UNK N   1      20.526  18.087   2.688  0.00  0.00     0.206 C 
BRANCH  19  20
HETATM   20  C   UNK N   1      21.250  19.268   3.320  0.00  0.00     0.299 C 
BRANCH  20  21
HETATM   21  N   UNK N   1      22.708  19.136   3.307  0.00  0.00     0.090 N 
HETATM   22  C   UNK N   1      23.226  18.525   4.546  0.00  0.00     0.272 C 
HETATM   23  C   UNK N   1      24.719  18.802   4.774  0.00  0.00     0.030 C 
HETATM   24  C   UNK N   1      25.422  19.080   3.450  0.00  0.00     0.003 C 
HETATM   25  C   UNK N   1      24.796  20.283   2.735  0.00  0.00     0.030 C 
HETATM   26  C   UNK N   1      23.307  20.445   3.060  0.00  0.00     0.272 C 
ENDBRANCH  20  21
ENDBRANCH  19  20
ENDBRANCH  18  19
ENDBRANCH  15  18
ENDBRANCH  10  12
ENDBRANCH   2  10
BRANCH   4  27
HETATM   27  C   UNK N   1      23.660  13.604   4.553  0.00  0.00    -0.018 A 
HETATM   28  C   UNK N   1      23.746  12.577   3.606  0.00  0.00     0.015 A 
HETATM   29  C   UNK N   1      23.773  12.862   2.239  0.00  0.00     0.037 A 
HETATM   30  C   UNK N   1      23.717  14.186   1.804  0.00  0.00     0.065 A 
HETATM   31  C   UNK N   1      23.650  15.224   2.736  0.00  0.00     0.037 A 
HETATM   32  C   UNK N   1      23.624  14.935   4.105  0.00  0.00     0.015 A 
BRANCH  30  33
HETATM   33  O   UNK N   1      23.725  14.459   0.490  0.00  0.00    -0.361 OA
HETATM   34  H   UNK N   1      24.300  13.990  -0.083  0.00  0.00     0.217 HD
ENDBRANCH  30  33
ENDBRANCH   4  27
BRANCH   9  35
HETATM   35  O   UNK N   1      24.404  12.347  12.029  0.00  0.00    -0.361 OA
HETATM   36  H   UNK N   1      23.934  12.672  12.772  0.00  0.00     0.217 HD
ENDBRANCH   9  35
TORSDOF 9
ENDMDL
MODEL 4
REMARK VINA RESULT:      -7.7     14.779     18.265
REMARK  9 active torsions:
REMARK  status: ('A' for Active; 'I' for Inactive)
REMARK    1  A    between atoms: O_2  and  C_13 
REMARK    2  A    between atoms: O_2  and  C_14 
REMARK    3  A    between atoms: O_4  and  C_29 
REMARK    4  A    between atoms: O_5  and  C_34 
REMARK    5  A    between atoms: N_6  and  C_12 
REMARK    6  A    between atoms: C_12  and  C_13 
REMARK    7  A    between atoms: C_15  and  C_20 
REMARK    8  A    between atoms: C_17  and  C_25 
REMARK    9  A    between atoms: C_19  and  C_20 
ROOT
HETATM    1  S   UNK N   1      26.194  26.515  -7.076  0.00  0.00    -0.088 SA
HETATM    2  C   UNK N   1      26.769  25.045  -5.146  0.00  0.00     0.044 A 
HETATM    3  C   UNK N   1      26.383  24.207  -6.256  0.00  0.00    -0.003 A 
HETATM    4  C   UNK N   1      26.732  26.429  -5.488  0.00  0.00     0.031 A 
HETATM    5  C   UNK N   1      26.017  24.907  -7.397  0.00  0.00     0.019 A 
HETATM    6  C   UNK N   1      26.395  22.805  -6.297  0.00  0.00     0.016 A 
HETATM    7  C   UNK N   1      25.618  24.271  -8.572  0.00  0.00     0.056 A 
HETATM    8  C   UNK N   1      25.995  22.137  -7.458  0.00  0.00     0.037 A 
HETATM    9  C   UNK N   1      25.598  22.864  -8.591  0.00  0.00     0.067 A 
ENDROOT
BRANCH   2  10
HETATM   10  C   UNK N   1      27.218  24.464  -3.834  0.00  0.00     0.194 C 
HETATM   11  O   UNK N   1      26.453  24.414  -2.888  0.00  0.00    -0.287 OA
BRANCH  10  12
HETATM   12  C   UNK N   1      28.644  24.124  -3.638  0.00  0.00     0.015 A 
HETATM   13  C   UNK N   1      29.011  23.250  -2.606  0.00  0.00     0.018 A 
HETATM   14  C   UNK N   1      30.294  22.726  -2.547  0.00  0.00     0.037 A 
HETATM   15  C   UNK N   1      31.229  23.062  -3.521  0.00  0.00     0.068 A 
HETATM   16  C   UNK N   1      30.900  24.016  -4.505  0.00  0.00     0.037 A 
HETATM   17  C   UNK N   1      29.609  24.556  -4.556  0.00  0.00     0.018 A 
BRANCH  15  18
HETATM   18  O   UNK N   1      32.415  22.419  -3.512  0.00  0.00    -0.349 OA
BRANCH  18  19
HETATM   19  C   UNK N   1      32.995  21.860  -4.625  0.00  0.00     0.206 C 
BRANCH  19  20
HETATM   20  C   UNK N   1      32.161  20.653  -5.036  0.00  0.00     0.299 C 
BRANCH  20  21
HETATM   21  N   UNK N   1      31.465  20.830  -6.311  0.00  0.00     0.090 N 
HETATM   22  C   UNK N   1      29.997  20.768  -6.160  0.00  0.00     0.272 C 
HETATM   23  C   UNK N   1      29.270  20.471  -7.480  0.00  0.00     0.030 C 
HETATM   24  C   UNK N   1      30.116  20.912  -8.670  0.00  0.00     0.003 C 
HETATM   25  C   UNK N   1      31.472  20.196  -8.677  0.00  0.00     0.030 C 
HETATM   26  C   UNK N   1      31.951  19.838  -7.267  0.00  0.00     0.272 C 
ENDBRANCH  20  21
ENDBRANCH  19  20
ENDBRANCH  18  19
ENDBRANCH  15  18
ENDBRANCH  10  12
ENDBRANCH   2  10
BRANCH   4  27
HETATM   27  C   UNK N   1      27.066  27.623  -4.668  0.00  0.00    -0.018 A 
HETATM   28  C   UNK N   1      26.075  28.503  -4.217  0.00  0.00     0.015 A 
HETATM   29  C   UNK N   1      26.401  29.602  -3.421  0.00  0.00     0.037 A 
HETATM   30  C   UNK N   1      27.730  29.836  -3.069  0.00  0.00     0.065 A 
HETATM   31  C   UNK N   1      28.734  28.980  -3.526  0.00  0.00     0.037 A 
HETATM   32  C   UNK N   1      28.404  27.879  -4.325  0.00  0.00     0.015 A 
BRANCH  30  33
HETATM   33  O   UNK N   1      28.041  30.884  -2.289  0.00  0.00    -0.361 OA
HETATM   34  H   UNK N   1      28.224  31.718  -2.675  0.00  0.00     0.217 HD
ENDBRANCH  30  33
ENDBRANCH   4  27
BRANCH   9  35
HETATM   35  O   UNK N   1      25.209  22.209  -9.696  0.00  0.00    -0.361 OA
HETATM   36  H   UNK N   1      25.451  21.313  -9.821  0.00  0.00     0.217 HD
ENDBRANCH   9  35
TORSDOF 9
ENDMDL
MODEL 5
REMARK VINA RESULT:      -7.6     11.322     14.280
REMARK  9 active torsions:
REMARK  status: ('A' for Active; 'I' for Inactive)
REMARK    1  A    between atoms: O_2  and  C_13 
REMARK    2  A    between atoms: O_2  and  C_14 
REMARK    3  A    between atoms: O_4  and  C_29 
REMARK    4  A    between atoms: O_5  and  C_34 
REMARK    5  A    between atoms: N_6  and  C_12 
REMARK    6  A    between atoms: C_12  and  C_13 
REMARK    7  A    between atoms: C_15  and  C_20 
REMARK    8  A    between atoms: C_17  and  C_25 
REMARK    9  A    between atoms: C_19  and  C_20 
ROOT
HETATM    1  S   UNK N   1      22.405  17.782   5.687  0.00  0.00    -0.088 SA
HETATM    2  C   UNK N   1      20.295  16.590   5.098  0.00  0.00     0.044 A 
HETATM    3  C   UNK N   1      20.507  17.642   4.133  0.00  0.00    -0.003 A 
HETATM    4  C   UNK N   1      21.346  16.533   6.060  0.00  0.00     0.031 A 
HETATM    5  C   UNK N   1      21.647  18.401   4.359  0.00  0.00     0.019 A 
HETATM    6  C   UNK N   1      19.722  17.919   3.004  0.00  0.00     0.016 A 
HETATM    7  C   UNK N   1      22.021  19.458   3.531  0.00  0.00     0.056 A 
HETATM    8  C   UNK N   1      20.067  18.977   2.156  0.00  0.00     0.037 A 
HETATM    9  C   UNK N   1      21.207  19.752   2.421  0.00  0.00     0.067 A 
ENDROOT
BRANCH   2  10
HETATM   10  C   UNK N   1      19.124  15.651   5.002  0.00  0.00     0.194 C 
HETATM   11  O   UNK N   1      18.072  15.920   5.552  0.00  0.00    -0.287 OA
BRANCH  10  12
HETATM   12  C   UNK N   1      19.311  14.315   4.396  0.00  0.00     0.015 A 
HETATM   13  C   UNK N   1      19.326  14.185   3.001  0.00  0.00     0.018 A 
HETATM   14  C   UNK N   1      19.736  13.001   2.406  0.00  0.00     0.037 A 
HETATM   15  C   UNK N   1      20.142  11.930   3.195  0.00  0.00     0.068 A 
HETATM   16  C   UNK N   1      20.036  12.017   4.598  0.00  0.00     0.037 A 
HETATM   17  C   UNK N   1      19.609  13.207   5.198  0.00  0.00     0.018 A 
BRANCH  15  18
HETATM   18  O   UNK N   1      20.672  10.852   2.580  0.00  0.00    -0.349 OA
BRANCH  18  19
HETATM   19  C   UNK N   1      21.795  10.891   1.790  0.00  0.00     0.206 C 
BRANCH  19  20
HETATM   20  C   UNK N   1      22.997  11.137   2.691  0.00  0.00     0.299 C 
BRANCH  20  21
HETATM   21  N   UNK N   1      23.610  12.454   2.504  0.00  0.00     0.090 N 
HETATM   22  C   UNK N   1      23.308  13.375   3.616  0.00  0.00     0.272 C 
HETATM   23  C   UNK N   1      23.512  14.851   3.246  0.00  0.00     0.030 C 
HETATM   24  C   UNK N   1      24.517  14.985   2.107  0.00  0.00     0.003 C 
HETATM   25  C   UNK N   1      24.048  14.220   0.864  0.00  0.00     0.030 C 
HETATM   26  C   UNK N   1      23.187  13.003   1.218  0.00  0.00     0.272 C 
ENDBRANCH  20  21
ENDBRANCH  19  20
ENDBRANCH  18  19
ENDBRANCH  15  18
ENDBRANCH  10  12
ENDBRANCH   2  10
BRANCH   4  27
HETATM   27  C   UNK N   1      21.541  15.606   7.205  0.00  0.00    -0.018 A 
HETATM   28  C   UNK N   1      20.720  15.658   8.338  0.00  0.00     0.015 A 
HETATM   29  C   UNK N   1      20.895  14.759   9.392  0.00  0.00     0.037 A 
HETATM   30  C   UNK N   1      21.902  13.796   9.325  0.00  0.00     0.065 A 
HETATM   31  C   UNK N   1      22.743  13.743   8.211  0.00  0.00     0.037 A 
HETATM   32  C   UNK N   1      22.565  14.646   7.157  0.00  0.00     0.015 A 
BRANCH  30  33
HETATM   33  O   UNK N   1      22.059  12.921  10.331  0.00  0.00    -0.361 OA
HETATM   34  H   UNK N   1      22.773  12.315  10.317  0.00  0.00     0.217 HD
ENDBRANCH  30  33
ENDBRANCH   4  27
BRANCH   9  35
HETATM   35  O   UNK N   1      21.521  20.768   1.604  0.00  0.00    -0.361 OA
HETATM   36  H   UNK N   1      21.128  21.610   1.727  0.00  0.00     0.217 HD
ENDBRANCH   9  35
TORSDOF 9
ENDMDL
MODEL 6
REMARK VINA RESULT:      -7.6      3.630      8.391
REMARK  9 active torsions:
REMARK  status: ('A' for Active; 'I' for Inactive)
REMARK    1  A    between atoms: O_2  and  C_13 
REMARK    2  A    between atoms: O_2  and  C_14 
REMARK    3  A    between atoms: O_4  and  C_29 
REMARK    4  A    between atoms: O_5  and  C_34 
REMARK    5  A    between atoms: N_6  and  C_12 
REMARK    6  A    between atoms: C_12  and  C_13 
REMARK    7  A    between atoms: C_15  and  C_20 
REMARK    8  A    between atoms: C_17  and  C_25 
REMARK    9  A    between atoms: C_19  and  C_20 
ROOT
HETATM    1  S   UNK N   1      34.998  13.507   8.067  0.00  0.00    -0.088 SA
HETATM    2  C   UNK N   1      34.418  15.886   7.596  0.00  0.00     0.044 A 
HETATM    3  C   UNK N   1      34.882  15.793   8.960  0.00  0.00    -0.003 A 
HETATM    4  C   UNK N   1      34.455  14.622   6.936  0.00  0.00     0.031 A 
HETATM    5  C   UNK N   1      35.223  14.508   9.359  0.00  0.00     0.019 A 
HETATM    6  C   UNK N   1      35.062  16.852   9.862  0.00  0.00     0.016 A 
HETATM    7  C   UNK N   1      35.697  14.221  10.638  0.00  0.00     0.056 A 
HETATM    8  C   UNK N   1      35.531  16.596  11.154  0.00  0.00     0.037 A 
HETATM    9  C   UNK N   1      35.839  15.285  11.548  0.00  0.00     0.067 A 
ENDROOT
BRANCH   2  10
HETATM   10  C   UNK N   1      34.026  17.200   6.981  0.00  0.00     0.194 C 
HETATM   11  O   UNK N   1      34.654  18.212   7.236  0.00  0.00    -0.287 OA
BRANCH  10  12
HETATM   12  C   UNK N   1      32.765  17.298   6.213  0.00  0.00     0.015 A 
HETATM   13  C   UNK N   1      32.814  17.523   4.831  0.00  0.00     0.018 A 
HETATM   14  C   UNK N   1      31.676  17.379   4.051  0.00  0.00     0.037 A 
HETATM   15  C   UNK N   1      30.472  17.003   4.639  0.00  0.00     0.068 A 
HETATM   16  C   UNK N   1      30.391  16.872   6.040  0.00  0.00     0.037 A 
HETATM   17  C   UNK N   1      31.537  17.031   6.828  0.00  0.00     0.018 A 
BRANCH  15  18
HETATM   18  O   UNK N   1      29.427  16.731   3.830  0.00  0.00    -0.349 OA
BRANCH  18  19
HETATM   19  C   UNK N   1      28.244  16.180   4.260  0.00  0.00     0.206 C 
BRANCH  19  20
HETATM   20  C   UNK N   1      27.103  16.905   3.560  0.00  0.00     0.299 C 
BRANCH  20  21
HETATM   21  N   UNK N   1      26.990  18.316   3.933  0.00  0.00     0.090 N 
HETATM   22  C   UNK N   1      27.125  18.523   5.388  0.00  0.00     0.272 C 
HETATM   23  C   UNK N   1      26.551  19.867   5.860  0.00  0.00     0.030 C 
HETATM   24  C   UNK N   1      26.553  20.881   4.721  0.00  0.00     0.003 C 
HETATM   25  C   UNK N   1      25.727  20.377   3.532  0.00  0.00     0.030 C 
HETATM   26  C   UNK N   1      25.727  18.848   3.428  0.00  0.00     0.272 C 
ENDBRANCH  20  21
ENDBRANCH  19  20
ENDBRANCH  18  19
ENDBRANCH  15  18
ENDBRANCH  10  12
ENDBRANCH   2  10
BRANCH   4  27
HETATM   27  C   UNK N   1      34.091  14.265   5.540  0.00  0.00    -0.018 A 
HETATM   28  C   UNK N   1      32.814  13.792   5.215  0.00  0.00     0.015 A 
HETATM   29  C   UNK N   1      32.476  13.491   3.894  0.00  0.00     0.037 A 
HETATM   30  C   UNK N   1      33.419  13.658   2.880  0.00  0.00     0.065 A 
HETATM   31  C   UNK N   1      34.704  14.109   3.189  0.00  0.00     0.037 A 
HETATM   32  C   UNK N   1      35.039  14.409   4.514  0.00  0.00     0.015 A 
BRANCH  30  33
HETATM   33  O   UNK N   1      33.089  13.384   1.608  0.00  0.00    -0.361 OA
HETATM   34  H   UNK N   1      32.760  12.537   1.380  0.00  0.00     0.217 HD
ENDBRANCH  30  33
ENDBRANCH   4  27
BRANCH   9  35
HETATM   35  O   UNK N   1      36.279  15.054  12.794  0.00  0.00    -0.361 OA
HETATM   36  H   UNK N   1      37.186  15.167  13.002  0.00  0.00     0.217 HD
ENDBRANCH   9  35
TORSDOF 9
ENDMDL
MODEL 7
REMARK VINA RESULT:      -7.6      2.352      3.644
REMARK  9 active torsions:
REMARK  status: ('A' for Active; 'I' for Inactive)
REMARK    1  A    between atoms: O_2  and  C_13 
REMARK    2  A    between atoms: O_2  and  C_14 
REMARK    3  A    between atoms: O_4  and  C_29 
REMARK    4  A    between atoms: O_5  and  C_34 
REMARK    5  A    between atoms: N_6  and  C_12 
REMARK    6  A    between atoms: C_12  and  C_13 
REMARK    7  A    between atoms: C_15  and  C_20 
REMARK    8  A    between atoms: C_17  and  C_25 
REMARK    9  A    between atoms: C_19  and  C_20 
ROOT
HETATM    1  S   UNK N   1      30.101  15.953   5.763  0.00  0.00    -0.088 SA
HETATM    2  C   UNK N   1      32.162  16.909   6.792  0.00  0.00     0.044 A 
HETATM    3  C   UNK N   1      31.022  17.371   7.547  0.00  0.00    -0.003 A 
HETATM    4  C   UNK N   1      31.777  16.042   5.726  0.00  0.00     0.031 A 
HETATM    5  C   UNK N   1      29.800  16.923   7.064  0.00  0.00     0.019 A 
HETATM    6  C   UNK N   1      31.043  18.157   8.708  0.00  0.00     0.016 A 
HETATM    7  C   UNK N   1      28.587  17.260   7.662  0.00  0.00     0.056 A 
HETATM    8  C   UNK N   1      29.844  18.517   9.330  0.00  0.00     0.037 A 
HETATM    9  C   UNK N   1      28.617  18.080   8.806  0.00  0.00     0.067 A 
ENDROOT
BRANCH   2  10
HETATM   10  C   UNK N   1      33.569  17.273   7.180  0.00  0.00     0.194 C 
HETATM   11  O   UNK N   1      34.178  18.124   6.559  0.00  0.00    -0.287 OA
BRANCH  10  12
HETATM   12  C   UNK N   1      34.275  16.465   8.197  0.00  0.00     0.015 A 
HETATM   13  C   UNK N   1      34.792  15.210   7.846  0.00  0.00     0.018 A 
HETATM   14  C   UNK N   1      35.660  14.541   8.697  0.00  0.00     0.037 A 
HETATM   15  C   UNK N   1      36.030  15.117   9.908  0.00  0.00     0.068 A 
HETATM   16  C   UNK N   1      35.439  16.330  10.313  0.00  0.00     0.037 A 
HETATM   17  C   UNK N   1      34.552  16.999   9.461  0.00  0.00     0.018 A 
BRANCH  15  18
HETATM   18  O   UNK N   1      36.987  14.506  10.637  0.00  0.00    -0.349 OA
BRANCH  18  19
HETATM   19  C   UNK N   1      37.312  13.176  10.520  0.00  0.00     0.206 C 
BRANCH  19  20
HETATM   20  C   UNK N   1      38.805  13.078  10.240  0.00  0.00     0.299 C 
BRANCH  20  21
HETATM   21  N   UNK N   1      39.119  12.675   8.868  0.00  0.00     0.090 N 
HETATM   22  C   UNK N   1      38.034  11.883   8.255  0.00  0.00     0.272 C 
HETATM   23  C   UNK N   1      38.500  11.060   7.046  0.00  0.00     0.030 C 
HETATM   24  C   UNK N   1      39.732  11.693   6.408  0.00  0.00     0.003 C 
HETATM   25  C   UNK N   1      40.884  11.794   7.415  0.00  0.00     0.030 C 
HETATM   26  C   UNK N   1      40.387  11.951   8.856  0.00  0.00     0.272 C 
ENDBRANCH  20  21
ENDBRANCH  19  20
ENDBRANCH  18  19
ENDBRANCH  15  18
ENDBRANCH  10  12
ENDBRANCH   2  10
BRANCH   4  27
HETATM   27  C   UNK N   1      32.616  15.333   4.725  0.00  0.00    -0.018 A 
HETATM   28  C   UNK N   1      32.966  13.987   4.885  0.00  0.00     0.015 A 
HETATM   29  C   UNK N   1      33.727  13.325   3.919  0.00  0.00     0.037 A 
HETATM   30  C   UNK N   1      34.150  14.007   2.779  0.00  0.00     0.065 A 
HETATM   31  C   UNK N   1      33.826  15.356   2.613  0.00  0.00     0.037 A 
HETATM   32  C   UNK N   1      33.065  16.017   3.583  0.00  0.00     0.015 A 
BRANCH  30  33
HETATM   33  O   UNK N   1      34.868  13.366   1.843  0.00  0.00    -0.361 OA
HETATM   34  H   UNK N   1      34.902  12.430   1.838  0.00  0.00     0.217 HD
ENDBRANCH  30  33
ENDBRANCH   4  27
BRANCH   9  35
HETATM   35  O   UNK N   1      27.474  18.440   9.408  0.00  0.00    -0.361 OA
HETATM   36  H   UNK N   1      26.738  17.859   9.409  0.00  0.00     0.217 HD
ENDBRANCH   9  35
TORSDOF 9
ENDMDL
MODEL 8
REMARK VINA RESULT:      -7.5      1.226      5.013
REMARK  9 active torsions:
REMARK  status: ('A' for Active; 'I' for Inactive)
REMARK    1  A    between atoms: O_2  and  C_13 
REMARK    2  A    between atoms: O_2  and  C_14 
REMARK    3  A    between atoms: O_4  and  C_29 
REMARK    4  A    between atoms: O_5  and  C_34 
REMARK    5  A    between atoms: N_6  and  C_12 
REMARK    6  A    between atoms: C_12  and  C_13 
REMARK    7  A    between atoms: C_15  and  C_20 
REMARK    8  A    between atoms: C_17  and  C_25 
REMARK    9  A    between atoms: C_19  and  C_20 
ROOT
HETATM    1  S   UNK N   1      31.056  15.169   4.628  0.00  0.00    -0.088 SA
HETATM    2  C   UNK N   1      32.752  16.235   6.112  0.00  0.00     0.044 A 
HETATM    3  C   UNK N   1      33.431  15.302   5.244  0.00  0.00    -0.003 A 
HETATM    4  C   UNK N   1      31.352  16.285   5.846  0.00  0.00     0.031 A 
HETATM    5  C   UNK N   1      32.591  14.621   4.373  0.00  0.00     0.019 A 
HETATM    6  C   UNK N   1      34.812  15.072   5.171  0.00  0.00     0.016 A 
HETATM    7  C   UNK N   1      33.062  13.683   3.457  0.00  0.00     0.056 A 
HETATM    8  C   UNK N   1      35.316  14.132   4.266  0.00  0.00     0.037 A 
HETATM    9  C   UNK N   1      34.447  13.432   3.417  0.00  0.00     0.067 A 
ENDROOT
BRANCH   2  10
HETATM   10  C   UNK N   1      33.501  17.080   7.106  0.00  0.00     0.194 C 
HETATM   11  O   UNK N   1      34.053  18.105   6.751  0.00  0.00    -0.287 OA
BRANCH  10  12
HETATM   12  C   UNK N   1      33.722  16.568   8.476  0.00  0.00     0.015 A 
HETATM   13  C   UNK N   1      32.995  15.457   8.924  0.00  0.00     0.018 A 
HETATM   14  C   UNK N   1      33.347  14.810  10.100  0.00  0.00     0.037 A 
HETATM   15  C   UNK N   1      34.433  15.259  10.843  0.00  0.00     0.068 A 
HETATM   16  C   UNK N   1      35.108  16.434  10.453  0.00  0.00     0.037 A 
HETATM   17  C   UNK N   1      34.743  17.095   9.274  0.00  0.00     0.018 A 
BRANCH  15  18
HETATM   18  O   UNK N   1      34.833  14.518  11.897  0.00  0.00    -0.349 OA
BRANCH  18  19
HETATM   19  C   UNK N   1      35.986  14.750  12.608  0.00  0.00     0.206 C 
BRANCH  19  20
HETATM   20  C   UNK N   1      35.927  13.922  13.885  0.00  0.00     0.299 C 
BRANCH  20  21
HETATM   21  N   UNK N   1      35.141  12.695  13.752  0.00  0.00     0.090 N 
HETATM   22  C   UNK N   1      34.444  12.338  15.003  0.00  0.00     0.272 C 
HETATM   23  C   UNK N   1      34.020  10.864  15.056  0.00  0.00     0.030 C 
HETATM   24  C   UNK N   1      33.855  10.302  13.648  0.00  0.00     0.003 C 
HETATM   25  C   UNK N   1      35.160  10.417  12.852  0.00  0.00     0.030 C 
HETATM   26  C   UNK N   1      36.009  11.614  13.292  0.00  0.00     0.272 C 
ENDBRANCH  20  21
ENDBRANCH  19  20
ENDBRANCH  18  19
ENDBRANCH  15  18
ENDBRANCH  10  12
ENDBRANCH   2  10
BRANCH   4  27
HETATM   27  C   UNK N   1      30.290  17.111   6.479  0.00  0.00    -0.018 A 
HETATM   28  C   UNK N   1      30.194  17.239   7.870  0.00  0.00     0.015 A 
HETATM   29  C   UNK N   1      29.211  18.044   8.450  0.00  0.00     0.037 A 
HETATM   30  C   UNK N   1      28.307  18.730   7.638  0.00  0.00     0.065 A 
HETATM   31  C   UNK N   1      28.377  18.597   6.250  0.00  0.00     0.037 A 
HETATM   32  C   UNK N   1      29.362  17.789   5.673  0.00  0.00     0.015 A 
BRANCH  30  33
HETATM   33  O   UNK N   1      27.373  19.517   8.195  0.00  0.00    -0.361 OA
HETATM   34  H   UNK N   1      27.627  20.289   8.661  0.00  0.00     0.217 HD
ENDBRANCH  30  33
ENDBRANCH   4  27
BRANCH   9  35
HETATM   35  O   UNK N   1      34.944  12.527   2.559  0.00  0.00    -0.361 OA
HETATM   36  H   UNK N   1      34.495  12.341   1.758  0.00  0.00     0.217 HD
ENDBRANCH   9  35
TORSDOF 9
ENDMDL
MODEL 9
REMARK VINA RESULT:      -7.5      7.224     11.531
REMARK  9 active torsions:
REMARK  status: ('A' for Active; 'I' for Inactive)
REMARK    1  A    between atoms: O_2  and  C_13 
REMARK    2  A    between atoms: O_2  and  C_14 
REMARK    3  A    between atoms: O_4  and  C_29 
REMARK    4  A    between atoms: O_5  and  C_34 
REMARK    5  A    between atoms: N_6  and  C_12 
REMARK    6  A    between atoms: C_12  and  C_13 
REMARK    7  A    between atoms: C_15  and  C_20 
REMARK    8  A    between atoms: C_17  and  C_25 
REMARK    9  A    between atoms: C_19  and  C_20 
ROOT
HETATM    1  S   UNK N   1      20.727  15.372   8.398  0.00  0.00    -0.088 SA
HETATM    2  C   UNK N   1      22.376  14.296   6.868  0.00  0.00     0.044 A 
HETATM    3  C   UNK N   1      22.323  13.529   8.090  0.00  0.00    -0.003 A 
HETATM    4  C   UNK N   1      21.470  15.397   6.892  0.00  0.00     0.031 A 
HETATM    5  C   UNK N   1      21.449  14.036   9.042  0.00  0.00     0.019 A 
HETATM    6  C   UNK N   1      23.009  12.337   8.367  0.00  0.00     0.016 A 
HETATM    7  C   UNK N   1      21.258  13.431  10.283  0.00  0.00     0.056 A 
HETATM    8  C   UNK N   1      22.843  11.708   9.605  0.00  0.00     0.037 A 
HETATM    9  C   UNK N   1      21.979  12.255  10.566  0.00  0.00     0.067 A 
ENDROOT
BRANCH   2  10
HETATM   10  C   UNK N   1      23.249  13.886   5.714  0.00  0.00     0.194 C 
HETATM   11  O   UNK N   1      22.904  12.987   4.970  0.00  0.00    -0.287 OA
BRANCH  10  12
HETATM   12  C   UNK N   1      24.610  14.451   5.595  0.00  0.00     0.015 A 
HETATM   13  C   UNK N   1      25.099  15.297   6.600  0.00  0.00     0.018 A 
HETATM   14  C   UNK N   1      26.441  15.644   6.641  0.00  0.00     0.037 A 
HETATM   15  C   UNK N   1      27.318  15.149   5.681  0.00  0.00     0.068 A 
HETATM   16  C   UNK N   1      26.819  14.381   4.610  0.00  0.00     0.037 A 
HETATM   17  C   UNK N   1      25.461  14.041   4.562  0.00  0.00     0.018 A 
BRANCH  15  18
HETATM   18  O   UNK N   1      28.636  15.389   5.839  0.00  0.00    -0.349 OA
BRANCH  18  19
HETATM   19  C   UNK N   1      29.161  16.619   6.157  0.00  0.00     0.206 C 
BRANCH  19  20
HETATM   20  C   UNK N   1      29.218  17.451   4.883  0.00  0.00     0.299 C 
BRANCH  20  21
HETATM   21  N   UNK N   1      28.533  18.740   4.994  0.00  0.00     0.090 N 
HETATM   22  C   UNK N   1      28.139  19.046   6.383  0.00  0.00     0.272 C 
HETATM   23  C   UNK N   1      27.035  20.110   6.474  0.00  0.00     0.030 C 
HETATM   24  C   UNK N   1      27.049  21.004   5.239  0.00  0.00     0.003 C 
HETATM   25  C   UNK N   1      26.844  20.182   3.961  0.00  0.00     0.030 C 
HETATM   26  C   UNK N   1      27.385  18.754   4.092  0.00  0.00     0.272 C 
ENDBRANCH  20  21
ENDBRANCH  19  20
ENDBRANCH  18  19
ENDBRANCH  15  18
ENDBRANCH  10  12
ENDBRANCH   2  10
BRANCH   4  27
HETATM   27  C   UNK N   1      21.187  16.421   5.854  0.00  0.00    -0.018 A 
HETATM   28  C   UNK N   1      20.308  16.167   4.794  0.00  0.00     0.015 A 
HETATM   29  C   UNK N   1      20.027  17.150   3.843  0.00  0.00     0.037 A 
HETATM   30  C   UNK N   1      20.628  18.404   3.942  0.00  0.00     0.065 A 
HETATM   31  C   UNK N   1      21.522  18.669   4.982  0.00  0.00     0.037 A 
HETATM   32  C   UNK N   1      21.803  17.681   5.932  0.00  0.00     0.015 A 
BRANCH  30  33
HETATM   33  O   UNK N   1      20.345  19.355   3.038  0.00  0.00    -0.361 OA
HETATM   34  H   UNK N   1      20.681  20.223   3.149  0.00  0.00     0.217 HD
ENDBRANCH  30  33
ENDBRANCH   4  27
BRANCH   9  35
HETATM   35  O   UNK N   1      21.837  11.645  11.752  0.00  0.00    -0.361 OA
HETATM   36  H   UNK N   1      21.606  10.738  11.791  0.00  0.00     0.217 HD
ENDBRANCH   9  35
TORSDOF 9
ENDMDL
