MODEL 1
REMARK VINA RESULT:      -7.5      0.000      0.000
REMARK  5 active torsions:
REMARK  status: ('A' for Active; 'I' for Inactive)
REMARK    1  A    between atoms: S_1  and  N_10 
REMARK    2  A    between atoms: S_1  and  C_18 
REMARK    3  A    between atoms: N_7  and  C_12 
REMARK    4  A    between atoms: C_11  and  C_13 
REMARK    5  A    between atoms: C_15  and  C_26 
ROOT
HETATM    1  N   UNK N   1      35.375  13.110  11.734  0.00  0.00    -0.255 N 
HETATM    2  N   UNK N   1      34.552  12.958  12.762  0.00  0.00    -0.289 N 
ATOM      3  HN  UNK N   1      33.729  13.530  12.956  1.00  0.00     0.187 HD
HETATM    4  C   UNK N   1      36.341  12.146  11.808  0.00  0.00     0.069 A 
HETATM    5  C   UNK N   1      36.124  11.382  12.944  0.00  0.00     0.068 A 
HETATM    6  C   UNK N   1      34.983  11.925  13.505  0.00  0.00     0.135 A 
ENDROOT
BRANCH   1   7
HETATM    7  C   UNK N   1      35.248  14.245  10.844  0.00  0.00     0.057 A 
HETATM    8  C   UNK N   1      35.521  15.546  11.279  0.00  0.00     0.033 A 
HETATM    9  C   UNK N   1      35.279  16.649  10.468  0.00  0.00     0.027 A 
HETATM   10  C   UNK N   1      34.738  16.472   9.200  0.00  0.00     0.079 A 
HETATM   11  C   UNK N   1      34.446  15.182   8.740  0.00  0.00     0.027 A 
HETATM   12  C   UNK N   1      34.695  14.074   9.562  0.00  0.00     0.033 A 
BRANCH  10  13
HETATM   13  S   UNK N   1      34.345  17.910   8.219  0.00  0.00     0.256 S 
HETATM   14  O   UNK N   1      34.641  17.681   6.729  0.00  0.00    -0.201 OA
HETATM   15  O   UNK N   1      35.215  19.133   8.539  0.00  0.00    -0.201 OA
BRANCH  13  16
HETATM   16  N   UNK N   1      32.681  18.496   8.262  0.00  0.00    -0.324 N 
HETATM   17  H   UNK N   1      32.166  18.879   7.469  0.00  0.00     0.169 HD
HETATM   18  H   UNK N   1      32.192  18.446   9.156  0.00  0.00     0.169 HD
ENDBRANCH  13  16
ENDBRANCH  10  13
ENDBRANCH   1   7
BRANCH   4  19
HETATM   19  C   UNK N   1      37.476  11.899  10.877  0.00  0.00    -0.007 A 
HETATM   20  C   UNK N   1      38.344  12.928  10.483  0.00  0.00     0.014 A 
HETATM   21  C   UNK N   1      39.415  12.675   9.625  0.00  0.00     0.007 A 
HETATM   22  C   UNK N   1      39.626  11.386   9.140  0.00  0.00    -0.062 A 
HETATM   23  C   UNK N   1      38.747  10.357   9.489  0.00  0.00     0.007 A 
HETATM   24  C   UNK N   1      40.787  11.109   8.253  0.00  0.00     0.048 C 
HETATM   25  C   UNK N   1      37.667  10.615  10.341  0.00  0.00     0.014 A 
ENDBRANCH   4  19
BRANCH   6  26
HETATM   26  C   UNK N   1      34.317  11.478  14.769  0.00  0.00     0.434 C 
HETATM   27  F   UNK N   1      34.054  12.575  15.567  0.00  0.00    -0.165 F 
HETATM   28  F   UNK N   1      33.129  10.825  14.490  0.00  0.00    -0.165 F 
HETATM   29  F   UNK N   1      35.157  10.614  15.446  0.00  0.00    -0.165 F 
ENDBRANCH   6  26
TORSDOF 5
ENDMDL
MODEL 2
REMARK VINA RESULT:      -7.3      8.168     11.639
REMARK  5 active torsions:
REMARK  status: ('A' for Active; 'I' for Inactive)
REMARK    1  A    between atoms: S_1  and  N_10 
REMARK    2  A    between atoms: S_1  and  C_18 
REMARK    3  A    between atoms: N_7  and  C_12 
REMARK    4  A    between atoms: C_11  and  C_13 
REMARK    5  A    between atoms: C_15  and  C_26 
ROOT
HETATM    1  N   UNK N   1      29.211  16.588   4.573  0.00  0.00    -0.255 N 
HETATM    2  N   UNK N   1      29.181  15.519   3.789  0.00  0.00    -0.289 N 
ATOM      3  HN  UNK N   1      29.885  14.781   3.762  1.00  0.00     0.187 HD
HETATM    4  C   UNK N   1      28.088  17.330   4.333  0.00  0.00     0.069 A 
HETATM    5  C   UNK N   1      27.346  16.711   3.339  0.00  0.00     0.068 A 
HETATM    6  C   UNK N   1      28.069  15.572   3.037  0.00  0.00     0.135 A 
ENDROOT
BRANCH   1   7
HETATM    7  C   UNK N   1      30.372  16.878   5.386  0.00  0.00     0.057 A 
HETATM    8  C   UNK N   1      31.580  17.290   4.811  0.00  0.00     0.033 A 
HETATM    9  C   UNK N   1      32.730  17.448   5.574  0.00  0.00     0.027 A 
HETATM   10  C   UNK N   1      32.702  17.178   6.938  0.00  0.00     0.079 A 
HETATM   11  C   UNK N   1      31.510  16.756   7.539  0.00  0.00     0.027 A 
HETATM   12  C   UNK N   1      30.352  16.602   6.765  0.00  0.00     0.033 A 
BRANCH  10  13
HETATM   13  S   UNK N   1      34.217  17.292   7.874  0.00  0.00     0.256 S 
HETATM   14  O   UNK N   1      34.923  18.638   7.653  0.00  0.00    -0.201 OA
HETATM   15  O   UNK N   1      35.290  16.286   7.436  0.00  0.00    -0.201 OA
BRANCH  13  16
HETATM   16  N   UNK N   1      34.106  17.124   9.627  0.00  0.00    -0.324 N 
HETATM   17  H   UNK N   1      33.852  17.867  10.279  0.00  0.00     0.169 HD
HETATM   18  H   UNK N   1      34.311  16.207  10.022  0.00  0.00     0.169 HD
ENDBRANCH  13  16
ENDBRANCH  10  13
ENDBRANCH   1   7
BRANCH   4  19
HETATM   19  C   UNK N   1      27.667  18.606   4.975  0.00  0.00    -0.007 A 
HETATM   20  C   UNK N   1      27.202  19.693   4.221  0.00  0.00     0.014 A 
HETATM   21  C   UNK N   1      26.793  20.874   4.842  0.00  0.00     0.007 A 
HETATM   22  C   UNK N   1      26.854  20.987   6.229  0.00  0.00    -0.062 A 
HETATM   23  C   UNK N   1      27.355  19.929   6.993  0.00  0.00     0.007 A 
HETATM   24  C   UNK N   1      26.387  22.233   6.892  0.00  0.00     0.048 C 
HETATM   25  C   UNK N   1      27.775  18.750   6.368  0.00  0.00     0.014 A 
ENDBRANCH   4  19
BRANCH   6  26
HETATM   26  C   UNK N   1      27.715  14.545   2.007  0.00  0.00     0.434 C 
HETATM   27  F   UNK N   1      26.623  14.978   1.278  0.00  0.00    -0.165 F 
HETATM   28  F   UNK N   1      28.777  14.331   1.147  0.00  0.00    -0.165 F 
HETATM   29  F   UNK N   1      27.399  13.356   2.637  0.00  0.00    -0.165 F 
ENDBRANCH   6  26
TORSDOF 5
ENDMDL
MODEL 3
REMARK VINA RESULT:      -7.2      8.659     11.521
REMARK  5 active torsions:
REMARK  status: ('A' for Active; 'I' for Inactive)
REMARK    1  A    between atoms: S_1  and  N_10 
REMARK    2  A    between atoms: S_1  and  C_18 
REMARK    3  A    between atoms: N_7  and  C_12 
REMARK    4  A    between atoms: C_11  and  C_13 
REMARK    5  A    between atoms: C_15  and  C_26 
ROOT
HETATM    1  N   UNK N   1      28.811  17.896   4.389  0.00  0.00    -0.255 N 
HETATM    2  N   UNK N   1      28.346  19.134   4.488  0.00  0.00    -0.289 N 
ATOM      3  HN  UNK N   1      28.846  19.928   4.889  1.00  0.00     0.187 HD
HETATM    4  C   UNK N   1      27.859  17.125   3.781  0.00  0.00     0.069 A 
HETATM    5  C   UNK N   1      26.748  17.911   3.519  0.00  0.00     0.068 A 
HETATM    6  C   UNK N   1      27.106  19.167   3.972  0.00  0.00     0.135 A 
ENDROOT
BRANCH   1   7
HETATM    7  C   UNK N   1      30.068  17.526   5.002  0.00  0.00     0.057 A 
HETATM    8  C   UNK N   1      30.153  17.226   6.366  0.00  0.00     0.033 A 
HETATM    9  C   UNK N   1      31.376  16.994   6.984  0.00  0.00     0.027 A 
HETATM   10  C   UNK N   1      32.552  17.074   6.247  0.00  0.00     0.079 A 
HETATM   11  C   UNK N   1      32.499  17.380   4.882  0.00  0.00     0.027 A 
HETATM   12  C   UNK N   1      31.263  17.611   4.264  0.00  0.00     0.033 A 
BRANCH  10  13
HETATM   13  S   UNK N   1      34.114  16.870   7.086  0.00  0.00     0.256 S 
HETATM   14  O   UNK N   1      34.773  18.222   7.398  0.00  0.00    -0.201 OA
HETATM   15  O   UNK N   1      35.186  16.175   6.235  0.00  0.00    -0.201 OA
BRANCH  13  16
HETATM   16  N   UNK N   1      34.106  16.007   8.625  0.00  0.00    -0.324 N 
HETATM   17  H   UNK N   1      34.111  16.441   9.548  0.00  0.00     0.169 HD
HETATM   18  H   UNK N   1      34.096  14.988   8.589  0.00  0.00     0.169 HD
ENDBRANCH  13  16
ENDBRANCH  10  13
ENDBRANCH   1   7
BRANCH   4  19
HETATM   19  C   UNK N   1      27.922  15.678   3.438  0.00  0.00    -0.007 A 
HETATM   20  C   UNK N   1      27.321  14.701   4.246  0.00  0.00     0.014 A 
HETATM   21  C   UNK N   1      27.372  13.351   3.898  0.00  0.00     0.007 A 
HETATM   22  C   UNK N   1      28.037  12.958   2.739  0.00  0.00    -0.062 A 
HETATM   23  C   UNK N   1      28.677  13.912   1.944  0.00  0.00     0.007 A 
HETATM   24  C   UNK N   1      28.062  11.523   2.351  0.00  0.00     0.048 C 
HETATM   25  C   UNK N   1      28.634  15.264   2.300  0.00  0.00     0.014 A 
ENDBRANCH   4  19
BRANCH   6  26
HETATM   26  C   UNK N   1      26.253  20.396   3.941  0.00  0.00     0.434 C 
HETATM   27  F   UNK N   1      26.283  20.950   2.675  0.00  0.00    -0.165 F 
HETATM   28  F   UNK N   1      24.944  20.090   4.270  0.00  0.00    -0.165 F 
HETATM   29  F   UNK N   1      26.742  21.315   4.851  0.00  0.00    -0.165 F 
ENDBRANCH   6  26
TORSDOF 5
ENDMDL
MODEL 4
REMARK VINA RESULT:      -7.1      5.261      7.758
REMARK  5 active torsions:
REMARK  status: ('A' for Active; 'I' for Inactive)
REMARK    1  A    between atoms: S_1  and  N_10 
REMARK    2  A    between atoms: S_1  and  C_18 
REMARK    3  A    between atoms: N_7  and  C_12 
REMARK    4  A    between atoms: C_11  and  C_13 
REMARK    5  A    between atoms: C_15  and  C_26 
ROOT
HETATM    1  N   UNK N   1      32.116  16.509   8.468  0.00  0.00    -0.255 N 
HETATM    2  N   UNK N   1      31.300  17.149   9.295  0.00  0.00    -0.289 N 
ATOM      3  HN  UNK N   1      31.443  17.271  10.297  1.00  0.00     0.187 HD
HETATM    4  C   UNK N   1      31.593  16.577   7.207  0.00  0.00     0.069 A 
HETATM    5  C   UNK N   1      30.389  17.262   7.258  0.00  0.00     0.068 A 
HETATM    6  C   UNK N   1      30.253  17.610   8.589  0.00  0.00     0.135 A 
ENDROOT
BRANCH   1   7
HETATM    7  C   UNK N   1      33.255  15.774   8.974  0.00  0.00     0.057 A 
HETATM    8  C   UNK N   1      33.196  14.392   9.182  0.00  0.00     0.033 A 
HETATM    9  C   UNK N   1      34.242  13.703   9.784  0.00  0.00     0.027 A 
HETATM   10  C   UNK N   1      35.373  14.392  10.211  0.00  0.00     0.079 A 
HETATM   11  C   UNK N   1      35.457  15.777  10.023  0.00  0.00     0.027 A 
HETATM   12  C   UNK N   1      34.400  16.465   9.413  0.00  0.00     0.033 A 
BRANCH  10  13
HETATM   13  S   UNK N   1      36.656  13.499  11.071  0.00  0.00     0.256 S 
HETATM   14  O   UNK N   1      38.024  13.678  10.395  0.00  0.00    -0.201 OA
HETATM   15  O   UNK N   1      36.476  11.975  11.040  0.00  0.00    -0.201 OA
BRANCH  13  16
HETATM   16  N   UNK N   1      36.935  13.903  12.765  0.00  0.00    -0.324 N 
HETATM   17  H   UNK N   1      37.184  14.827  13.122  0.00  0.00     0.169 HD
HETATM   18  H   UNK N   1      36.839  13.151  13.447  0.00  0.00     0.169 HD
ENDBRANCH  13  16
ENDBRANCH  10  13
ENDBRANCH   1   7
BRANCH   4  19
HETATM   19  C   UNK N   1      32.150  16.022   5.943  0.00  0.00    -0.007 A 
HETATM   20  C   UNK N   1      32.752  16.844   4.979  0.00  0.00     0.014 A 
HETATM   21  C   UNK N   1      33.287  16.304   3.809  0.00  0.00     0.007 A 
HETATM   22  C   UNK N   1      33.218  14.931   3.582  0.00  0.00    -0.062 A 
HETATM   23  C   UNK N   1      32.585  14.102   4.513  0.00  0.00     0.007 A 
HETATM   24  C   UNK N   1      33.818  14.353   2.352  0.00  0.00     0.048 C 
HETATM   25  C   UNK N   1      32.039  14.647   5.680  0.00  0.00     0.014 A 
ENDBRANCH   4  19
BRANCH   6  26
HETATM   26  C   UNK N   1      29.108  18.357   9.198  0.00  0.00     0.434 C 
HETATM   27  F   UNK N   1      29.561  19.112  10.263  0.00  0.00    -0.165 F 
HETATM   28  F   UNK N   1      28.522  19.196   8.266  0.00  0.00    -0.165 F 
HETATM   29  F   UNK N   1      28.162  17.456   9.649  0.00  0.00    -0.165 F 
ENDBRANCH   6  26
TORSDOF 5
ENDMDL
MODEL 5
REMARK VINA RESULT:      -7.1     18.524     20.871
REMARK  5 active torsions:
REMARK  status: ('A' for Active; 'I' for Inactive)
REMARK    1  A    between atoms: S_1  and  N_10 
REMARK    2  A    between atoms: S_1  and  C_18 
REMARK    3  A    between atoms: N_7  and  C_12 
REMARK    4  A    between atoms: C_11  and  C_13 
REMARK    5  A    between atoms: C_15  and  C_26 
ROOT
HETATM    1  N   UNK N   1      29.047  25.471  -4.249  0.00  0.00    -0.255 N 
HETATM    2  N   UNK N   1      28.725  26.747  -4.088  0.00  0.00    -0.289 N 
ATOM      3  HN  UNK N   1      27.824  27.167  -4.316  1.00  0.00     0.187 HD
HETATM    4  C   UNK N   1      30.330  25.291  -3.812  0.00  0.00     0.069 A 
HETATM    5  C   UNK N   1      30.834  26.511  -3.390  0.00  0.00     0.068 A 
HETATM    6  C   UNK N   1      29.785  27.393  -3.573  0.00  0.00     0.135 A 
ENDROOT
BRANCH   1   7
HETATM    7  C   UNK N   1      28.150  24.561  -4.928  0.00  0.00     0.057 A 
HETATM    8  C   UNK N   1      28.577  23.797  -6.020  0.00  0.00     0.033 A 
HETATM    9  C   UNK N   1      27.689  23.018  -6.753  0.00  0.00     0.027 A 
HETATM   10  C   UNK N   1      26.340  23.001  -6.417  0.00  0.00     0.079 A 
HETATM   11  C   UNK N   1      25.882  23.762  -5.334  0.00  0.00     0.027 A 
HETATM   12  C   UNK N   1      26.783  24.542  -4.597  0.00  0.00     0.033 A 
BRANCH  10  13
HETATM   13  S   UNK N   1      25.206  22.073  -7.435  0.00  0.00     0.256 S 
HETATM   14  O   UNK N   1      25.929  20.991  -8.251  0.00  0.00    -0.201 OA
HETATM   15  O   UNK N   1      24.533  22.910  -8.531  0.00  0.00    -0.201 OA
BRANCH  13  16
HETATM   16  N   UNK N   1      23.891  21.221  -6.623  0.00  0.00    -0.324 N 
HETATM   17  H   UNK N   1      22.965  21.604  -6.432  0.00  0.00     0.169 HD
HETATM   18  H   UNK N   1      24.072  20.264  -6.319  0.00  0.00     0.169 HD
ENDBRANCH  13  16
ENDBRANCH  10  13
ENDBRANCH   1   7
BRANCH   4  19
HETATM   19  C   UNK N   1      31.128  24.034  -3.777  0.00  0.00    -0.007 A 
HETATM   20  C   UNK N   1      30.859  23.015  -2.851  0.00  0.00     0.014 A 
HETATM   21  C   UNK N   1      31.605  21.836  -2.845  0.00  0.00     0.007 A 
HETATM   22  C   UNK N   1      32.639  21.664  -3.763  0.00  0.00    -0.062 A 
HETATM   23  C   UNK N   1      32.947  22.685  -4.666  0.00  0.00     0.007 A 
HETATM   24  C   UNK N   1      33.410  20.393  -3.779  0.00  0.00     0.048 C 
HETATM   25  C   UNK N   1      32.206  23.872  -4.662  0.00  0.00     0.014 A 
ENDBRANCH   4  19
BRANCH   6  26
HETATM   26  C   UNK N   1      29.802  28.862  -3.286  0.00  0.00     0.434 C 
HETATM   27  F   UNK N   1      28.517  29.296  -3.022  0.00  0.00    -0.165 F 
HETATM   28  F   UNK N   1      30.607  29.136  -2.195  0.00  0.00    -0.165 F 
HETATM   29  F   UNK N   1      30.292  29.537  -4.389  0.00  0.00    -0.165 F 
ENDBRANCH   6  26
TORSDOF 5
ENDMDL
MODEL 6
REMARK VINA RESULT:      -7.1     18.499     21.499
REMARK  5 active torsions:
REMARK  status: ('A' for Active; 'I' for Inactive)
REMARK    1  A    between atoms: S_1  and  N_10 
REMARK    2  A    between atoms: S_1  and  C_18 
REMARK    3  A    between atoms: N_7  and  C_12 
REMARK    4  A    between atoms: C_11  and  C_13 
REMARK    5  A    between atoms: C_15  and  C_26 
ROOT
HETATM    1  N   UNK N   1      28.328  25.507  -4.596  0.00  0.00    -0.255 N 
HETATM    2  N   UNK N   1      28.249  26.706  -4.036  0.00  0.00    -0.289 N 
ATOM      3  HN  UNK N   1      28.943  27.119  -3.412  1.00  0.00     0.187 HD
HETATM    4  C   UNK N   1      27.221  25.321  -5.376  0.00  0.00     0.069 A 
HETATM    5  C   UNK N   1      26.408  26.438  -5.273  0.00  0.00     0.068 A 
HETATM    6  C   UNK N   1      27.101  27.285  -4.428  0.00  0.00     0.135 A 
ENDROOT
BRANCH   1   7
HETATM    7  C   UNK N   1      29.387  24.589  -4.234  0.00  0.00     0.057 A 
HETATM    8  C   UNK N   1      30.643  24.647  -4.848  0.00  0.00     0.033 A 
HETATM    9  C   UNK N   1      31.620  23.692  -4.595  0.00  0.00     0.027 A 
HETATM   10  C   UNK N   1      31.352  22.638  -3.729  0.00  0.00     0.079 A 
HETATM   11  C   UNK N   1      30.101  22.548  -3.107  0.00  0.00     0.027 A 
HETATM   12  C   UNK N   1      29.121  23.517  -3.363  0.00  0.00     0.033 A 
BRANCH  10  13
HETATM   13  S   UNK N   1      32.587  21.371  -3.500  0.00  0.00     0.256 S 
HETATM   14  O   UNK N   1      32.982  21.220  -2.023  0.00  0.00    -0.201 OA
HETATM   15  O   UNK N   1      33.933  21.693  -4.164  0.00  0.00    -0.201 OA
BRANCH  13  16
HETATM   16  N   UNK N   1      32.185  19.736  -4.028  0.00  0.00    -0.324 N 
HETATM   17  H   UNK N   1      32.704  18.890  -3.787  0.00  0.00     0.169 HD
HETATM   18  H   UNK N   1      31.364  19.626  -4.623  0.00  0.00     0.169 HD
ENDBRANCH  13  16
ENDBRANCH  10  13
ENDBRANCH   1   7
BRANCH   4  19
HETATM   19  C   UNK N   1      26.866  24.141  -6.213  0.00  0.00    -0.007 A 
HETATM   20  C   UNK N   1      27.653  23.748  -7.306  0.00  0.00     0.014 A 
HETATM   21  C   UNK N   1      27.316  22.629  -8.067  0.00  0.00     0.007 A 
HETATM   22  C   UNK N   1      26.177  21.891  -7.750  0.00  0.00    -0.062 A 
HETATM   23  C   UNK N   1      25.358  22.292  -6.691  0.00  0.00     0.007 A 
HETATM   24  C   UNK N   1      25.837  20.679  -8.540  0.00  0.00     0.048 C 
HETATM   25  C   UNK N   1      25.692  23.422  -5.936  0.00  0.00     0.014 A 
ENDBRANCH   4  19
BRANCH   6  26
HETATM   26  C   UNK N   1      26.655  28.638  -3.967  0.00  0.00     0.434 C 
HETATM   27  F   UNK N   1      27.334  28.980  -2.812  0.00  0.00    -0.165 F 
HETATM   28  F   UNK N   1      26.905  29.590  -4.938  0.00  0.00    -0.165 F 
HETATM   29  F   UNK N   1      25.299  28.606  -3.705  0.00  0.00    -0.165 F 
ENDBRANCH   6  26
TORSDOF 5
ENDMDL
MODEL 7
REMARK VINA RESULT:      -7.0     11.280     13.726
REMARK  5 active torsions:
REMARK  status: ('A' for Active; 'I' for Inactive)
REMARK    1  A    between atoms: S_1  and  N_10 
REMARK    2  A    between atoms: S_1  and  C_18 
REMARK    3  A    between atoms: N_7  and  C_12 
REMARK    4  A    between atoms: C_11  and  C_13 
REMARK    5  A    between atoms: C_15  and  C_26 
ROOT
HETATM    1  N   UNK N   1      25.965  17.629   5.204  0.00  0.00    -0.255 N 
HETATM    2  N   UNK N   1      26.765  18.202   6.093  0.00  0.00    -0.289 N 
ATOM      3  HN  UNK N   1      26.586  19.082   6.576  1.00  0.00     0.187 HD
HETATM    4  C   UNK N   1      26.539  16.458   4.798  0.00  0.00     0.069 A 
HETATM    5  C   UNK N   1      27.760  16.311   5.439  0.00  0.00     0.068 A 
HETATM    6  C   UNK N   1      27.852  17.427   6.250  0.00  0.00     0.135 A 
ENDROOT
BRANCH   1   7
HETATM    7  C   UNK N   1      24.786  18.315   4.720  0.00  0.00     0.057 A 
HETATM    8  C   UNK N   1      23.502  17.814   4.962  0.00  0.00     0.033 A 
HETATM    9  C   UNK N   1      22.376  18.398   4.394  0.00  0.00     0.027 A 
HETATM   10  C   UNK N   1      22.513  19.495   3.551  0.00  0.00     0.079 A 
HETATM   11  C   UNK N   1      23.787  20.013   3.284  0.00  0.00     0.027 A 
HETATM   12  C   UNK N   1      24.917  19.421   3.862  0.00  0.00     0.033 A 
BRANCH  10  13
HETATM   13  S   UNK N   1      21.062  20.163   2.756  0.00  0.00     0.256 S 
HETATM   14  O   UNK N   1      21.421  21.263   1.746  0.00  0.00    -0.201 OA
HETATM   15  O   UNK N   1      20.116  20.899   3.715  0.00  0.00    -0.201 OA
BRANCH  13  16
HETATM   16  N   UNK N   1      20.037  19.043   1.856  0.00  0.00    -0.324 N 
HETATM   17  H   UNK N   1      19.337  19.306   1.162  0.00  0.00     0.169 HD
HETATM   18  H   UNK N   1      20.155  18.047   2.045  0.00  0.00     0.169 HD
ENDBRANCH  13  16
ENDBRANCH  10  13
ENDBRANCH   1   7
BRANCH   4  19
HETATM   19  C   UNK N   1      26.017  15.459   3.825  0.00  0.00    -0.007 A 
HETATM   20  C   UNK N   1      25.886  15.757   2.460  0.00  0.00     0.014 A 
HETATM   21  C   UNK N   1      25.413  14.803   1.559  0.00  0.00     0.007 A 
HETATM   22  C   UNK N   1      25.054  13.536   2.014  0.00  0.00    -0.062 A 
HETATM   23  C   UNK N   1      25.137  13.235   3.377  0.00  0.00     0.007 A 
HETATM   24  C   UNK N   1      24.582  12.509   1.049  0.00  0.00     0.048 C 
HETATM   25  C   UNK N   1      25.601  14.197   4.280  0.00  0.00     0.014 A 
ENDBRANCH   4  19
BRANCH   6  26
HETATM   26  C   UNK N   1      28.993  17.773   7.155  0.00  0.00     0.434 C 
HETATM   27  F   UNK N   1      28.983  16.935   8.254  0.00  0.00    -0.165 F 
HETATM   28  F   UNK N   1      30.200  17.637   6.492  0.00  0.00    -0.165 F 
HETATM   29  F   UNK N   1      28.858  19.082   7.580  0.00  0.00    -0.165 F 
ENDBRANCH   6  26
TORSDOF 5
ENDMDL
MODEL 8
REMARK VINA RESULT:      -6.7     17.727     20.564
REMARK  5 active torsions:
REMARK  status: ('A' for Active; 'I' for Inactive)
REMARK    1  A    between atoms: S_1  and  N_10 
REMARK    2  A    between atoms: S_1  and  C_18 
REMARK    3  A    between atoms: N_7  and  C_12 
REMARK    4  A    between atoms: C_11  and  C_13 
REMARK    5  A    between atoms: C_15  and  C_26 
ROOT
HETATM    1  N   UNK N   1      29.912  22.953  -4.497  0.00  0.00    -0.255 N 
HETATM    2  N   UNK N   1      30.975  22.755  -3.729  0.00  0.00    -0.289 N 
ATOM      3  HN  UNK N   1      31.233  23.312  -2.914  1.00  0.00     0.187 HD
HETATM    4  C   UNK N   1      29.899  21.995  -5.471  0.00  0.00     0.069 A 
HETATM    5  C   UNK N   1      31.015  21.187  -5.319  0.00  0.00     0.068 A 
HETATM    6  C   UNK N   1      31.654  21.698  -4.205  0.00  0.00     0.135 A 
ENDROOT
BRANCH   1   7
HETATM    7  C   UNK N   1      29.074  24.119  -4.315  0.00  0.00     0.057 A 
HETATM    8  C   UNK N   1      27.866  24.046  -3.613  0.00  0.00     0.033 A 
HETATM    9  C   UNK N   1      27.000  25.130  -3.543  0.00  0.00     0.027 A 
HETATM   10  C   UNK N   1      27.318  26.316  -4.195  0.00  0.00     0.079 A 
HETATM   11  C   UNK N   1      28.516  26.416  -4.913  0.00  0.00     0.027 A 
HETATM   12  C   UNK N   1      29.387  25.321  -4.977  0.00  0.00     0.033 A 
BRANCH  10  13
HETATM   13  S   UNK N   1      26.142  27.658  -4.174  0.00  0.00     0.256 S 
HETATM   14  O   UNK N   1      25.500  27.830  -2.789  0.00  0.00    -0.201 OA
HETATM   15  O   UNK N   1      24.919  27.422  -5.071  0.00  0.00    -0.201 OA
BRANCH  13  16
HETATM   16  N   UNK N   1      26.732  29.265  -4.600  0.00  0.00    -0.324 N 
HETATM   17  H   UNK N   1      27.709  29.557  -4.603  0.00  0.00     0.169 HD
HETATM   18  H   UNK N   1      26.036  29.962  -4.868  0.00  0.00     0.169 HD
ENDBRANCH  13  16
ENDBRANCH  10  13
ENDBRANCH   1   7
BRANCH   4  19
HETATM   19  C   UNK N   1      28.902  21.794  -6.558  0.00  0.00    -0.007 A 
HETATM   20  C   UNK N   1      27.786  22.632  -6.700  0.00  0.00     0.014 A 
HETATM   21  C   UNK N   1      26.872  22.440  -7.737  0.00  0.00     0.007 A 
HETATM   22  C   UNK N   1      27.057  21.398  -8.642  0.00  0.00    -0.062 A 
HETATM   23  C   UNK N   1      28.140  20.527  -8.491  0.00  0.00     0.007 A 
HETATM   24  C   UNK N   1      26.101  21.215  -9.766  0.00  0.00     0.048 C 
HETATM   25  C   UNK N   1      29.049  20.714  -7.445  0.00  0.00     0.014 A 
ENDBRANCH   4  19
BRANCH   6  26
HETATM   26  C   UNK N   1      32.933  21.198  -3.609  0.00  0.00     0.434 C 
HETATM   27  F   UNK N   1      32.884  21.324  -2.234  0.00  0.00    -0.165 F 
HETATM   28  F   UNK N   1      33.135  19.868  -3.935  0.00  0.00    -0.165 F 
HETATM   29  F   UNK N   1      33.988  21.946  -4.097  0.00  0.00    -0.165 F 
ENDBRANCH   6  26
TORSDOF 5
ENDMDL
MODEL 9
REMARK VINA RESULT:      -6.6     15.239     17.777
REMARK  5 active torsions:
REMARK  status: ('A' for Active; 'I' for Inactive)
REMARK    1  A    between atoms: S_1  and  N_10 
REMARK    2  A    between atoms: S_1  and  C_18 
REMARK    3  A    between atoms: N_7  and  C_12 
REMARK    4  A    between atoms: C_11  and  C_13 
REMARK    5  A    between atoms: C_15  and  C_26 
ROOT
HETATM    1  N   UNK N   1      21.235  17.100   4.089  0.00  0.00    -0.255 N 
HETATM    2  N   UNK N   1      21.302  18.421   4.182  0.00  0.00    -0.289 N 
ATOM      3  HN  UNK N   1      21.592  18.946   5.007  1.00  0.00     0.187 HD
HETATM    4  C   UNK N   1      20.824  16.777   2.826  0.00  0.00     0.069 A 
HETATM    5  C   UNK N   1      20.599  17.946   2.116  0.00  0.00     0.068 A 
HETATM    6  C   UNK N   1      20.923  18.951   3.007  0.00  0.00     0.135 A 
ENDROOT
BRANCH   1   7
HETATM    7  C   UNK N   1      21.441  16.264   5.252  0.00  0.00     0.057 A 
HETATM    8  C   UNK N   1      22.573  15.451   5.375  0.00  0.00     0.033 A 
HETATM    9  C   UNK N   1      22.713  14.555   6.428  0.00  0.00     0.027 A 
HETATM   10  C   UNK N   1      21.707  14.440   7.380  0.00  0.00     0.079 A 
HETATM   11  C   UNK N   1      20.558  15.235   7.279  0.00  0.00     0.027 A 
HETATM   12  C   UNK N   1      20.424  16.139   6.217  0.00  0.00     0.033 A 
BRANCH  10  13
HETATM   13  S   UNK N   1      21.867  13.212   8.664  0.00  0.00     0.256 S 
HETATM   14  O   UNK N   1      22.235  11.835   8.092  0.00  0.00    -0.201 OA
HETATM   15  O   UNK N   1      20.554  12.916   9.403  0.00  0.00    -0.201 OA
BRANCH  13  16
HETATM   16  N   UNK N   1      23.060  13.506   9.930  0.00  0.00    -0.324 N 
HETATM   17  H   UNK N   1      22.890  14.015  10.799  0.00  0.00     0.169 HD
HETATM   18  H   UNK N   1      23.999  13.137   9.782  0.00  0.00     0.169 HD
ENDBRANCH  13  16
ENDBRANCH  10  13
ENDBRANCH   1   7
BRANCH   4  19
HETATM   19  C   UNK N   1      20.614  15.425   2.239  0.00  0.00    -0.007 A 
HETATM   20  C   UNK N   1      21.451  14.919   1.233  0.00  0.00     0.014 A 
HETATM   21  C   UNK N   1      21.252  13.642   0.708  0.00  0.00     0.007 A 
HETATM   22  C   UNK N   1      20.202  12.855   1.177  0.00  0.00    -0.062 A 
HETATM   23  C   UNK N   1      19.334  13.358   2.150  0.00  0.00     0.007 A 
HETATM   24  C   UNK N   1      20.011  11.481   0.642  0.00  0.00     0.048 C 
HETATM   25  C   UNK N   1      19.529  14.643   2.667  0.00  0.00     0.014 A 
ENDBRANCH   4  19
BRANCH   6  26
HETATM   26  C   UNK N   1      20.841  20.424   2.750  0.00  0.00     0.434 C 
HETATM   27  F   UNK N   1      20.262  20.646   1.515  0.00  0.00    -0.165 F 
HETATM   28  F   UNK N   1      20.084  21.048   3.725  0.00  0.00    -0.165 F 
HETATM   29  F   UNK N   1      22.115  20.960   2.757  0.00  0.00    -0.165 F 
ENDBRANCH   6  26
TORSDOF 5
ENDMDL
