REMARK  24 active torsions:
REMARK  status: ('A' for Active; 'I' for Inactive)
REMARK    1  A    between atoms: O_1  and  C_10 
REMARK    2  A    between atoms: O_1  and  C_19 
REMARK    3  A    between atoms: O_2  and  C_13 
REMARK    4  A    between atoms: O_2  and  C_20 
REMARK    5  A    between atoms: O_3  and  C_14 
REMARK    6  A    between atoms: O_3  and  C_21 
REMARK    7  A    between atoms: N_4  and  C_7 
REMARK    8  A    between atoms: N_4  and  C_11 
REMARK    9  A    between atoms: N_4  and  C_12 
REMARK   10  A    between atoms: N_4  and  C_33 
REMARK   11  A    between atoms: N_5  and  C_8 
REMARK   12  A    between atoms: N_5  and  C_15 
REMARK   13  A    between atoms: N_5  and  C_16 
REMARK   14  A    between atoms: N_5  and  C_35 
REMARK   15  A    between atoms: N_6  and  C_9 
REMARK   16  A    between atoms: N_6  and  C_17 
REMARK   17  A    between atoms: N_6  and  C_18 
REMARK   18  A    between atoms: N_6  and  C_31 
REMARK   19  A    between atoms: C_7  and  C_10 
REMARK   20  A    between atoms: C_8  and  C_13 
REMARK   21  A    between atoms: C_9  and  C_14 
REMARK   22  A    between atoms: I_37  and  I_37 
REMARK   23  A    between atoms: I_38  and  I_38 
REMARK   24  A    between atoms: I_39  and  I_39 
ROOT
HETATM    1  I   UNK N   1       2.971   3.111  -1.264  0.00  0.00     0.000 I 
ENDROOT
TORSDOF 24
