MODEL 1
REMARK VINA RESULT:      -0.8      0.000      0.000
REMARK  24 active torsions:
REMARK  status: ('A' for Active; 'I' for Inactive)
REMARK    1  A    between atoms: O_1  and  C_10 
REMARK    2  A    between atoms: O_1  and  C_19 
REMARK    3  A    between atoms: O_2  and  C_13 
REMARK    4  A    between atoms: O_2  and  C_20 
REMARK    5  A    between atoms: O_3  and  C_14 
REMARK    6  A    between atoms: O_3  and  C_21 
REMARK    7  A    between atoms: N_4  and  C_7 
REMARK    8  A    between atoms: N_4  and  C_11 
REMARK    9  A    between atoms: N_4  and  C_12 
REMARK   10  A    between atoms: N_4  and  C_33 
REMARK   11  A    between atoms: N_5  and  C_8 
REMARK   12  A    between atoms: N_5  and  C_15 
REMARK   13  A    between atoms: N_5  and  C_16 
REMARK   14  A    between atoms: N_5  and  C_35 
REMARK   15  A    between atoms: N_6  and  C_9 
REMARK   16  A    between atoms: N_6  and  C_17 
REMARK   17  A    between atoms: N_6  and  C_18 
REMARK   18  A    between atoms: N_6  and  C_31 
REMARK   19  A    between atoms: C_7  and  C_10 
REMARK   20  A    between atoms: C_8  and  C_13 
REMARK   21  A    between atoms: C_9  and  C_14 
REMARK   22  A    between atoms: I_37  and  I_37 
REMARK   23  A    between atoms: I_38  and  I_38 
REMARK   24  A    between atoms: I_39  and  I_39 
ROOT
HETATM    1  I   UNK N   1      22.676  12.187  10.738  0.00  0.00     0.000 I 
ENDROOT
TORSDOF 24
ENDMDL
MODEL 2
REMARK VINA RESULT:      -0.8     13.414     13.414
REMARK  24 active torsions:
REMARK  status: ('A' for Active; 'I' for Inactive)
REMARK    1  A    between atoms: O_1  and  C_10 
REMARK    2  A    between atoms: O_1  and  C_19 
REMARK    3  A    between atoms: O_2  and  C_13 
REMARK    4  A    between atoms: O_2  and  C_20 
REMARK    5  A    between atoms: O_3  and  C_14 
REMARK    6  A    between atoms: O_3  and  C_21 
REMARK    7  A    between atoms: N_4  and  C_7 
REMARK    8  A    between atoms: N_4  and  C_11 
REMARK    9  A    between atoms: N_4  and  C_12 
REMARK   10  A    between atoms: N_4  and  C_33 
REMARK   11  A    between atoms: N_5  and  C_8 
REMARK   12  A    between atoms: N_5  and  C_15 
REMARK   13  A    between atoms: N_5  and  C_16 
REMARK   14  A    between atoms: N_5  and  C_35 
REMARK   15  A    between atoms: N_6  and  C_9 
REMARK   16  A    between atoms: N_6  and  C_17 
REMARK   17  A    between atoms: N_6  and  C_18 
REMARK   18  A    between atoms: N_6  and  C_31 
REMARK   19  A    between atoms: C_7  and  C_10 
REMARK   20  A    between atoms: C_8  and  C_13 
REMARK   21  A    between atoms: C_9  and  C_14 
REMARK   22  A    between atoms: I_37  and  I_37 
REMARK   23  A    between atoms: I_38  and  I_38 
REMARK   24  A    between atoms: I_39  and  I_39 
ROOT
HETATM    1  I   UNK N   1      31.006   7.711  20.252  0.00  0.00     0.000 I 
ENDROOT
TORSDOF 24
ENDMDL
MODEL 3
REMARK VINA RESULT:      -0.8     10.922     10.922
REMARK  24 active torsions:
REMARK  status: ('A' for Active; 'I' for Inactive)
REMARK    1  A    between atoms: O_1  and  C_10 
REMARK    2  A    between atoms: O_1  and  C_19 
REMARK    3  A    between atoms: O_2  and  C_13 
REMARK    4  A    between atoms: O_2  and  C_20 
REMARK    5  A    between atoms: O_3  and  C_14 
REMARK    6  A    between atoms: O_3  and  C_21 
REMARK    7  A    between atoms: N_4  and  C_7 
REMARK    8  A    between atoms: N_4  and  C_11 
REMARK    9  A    between atoms: N_4  and  C_12 
REMARK   10  A    between atoms: N_4  and  C_33 
REMARK   11  A    between atoms: N_5  and  C_8 
REMARK   12  A    between atoms: N_5  and  C_15 
REMARK   13  A    between atoms: N_5  and  C_16 
REMARK   14  A    between atoms: N_5  and  C_35 
REMARK   15  A    between atoms: N_6  and  C_9 
REMARK   16  A    between atoms: N_6  and  C_17 
REMARK   17  A    between atoms: N_6  and  C_18 
REMARK   18  A    between atoms: N_6  and  C_31 
REMARK   19  A    between atoms: C_7  and  C_10 
REMARK   20  A    between atoms: C_8  and  C_13 
REMARK   21  A    between atoms: C_9  and  C_14 
REMARK   22  A    between atoms: I_37  and  I_37 
REMARK   23  A    between atoms: I_38  and  I_38 
REMARK   24  A    between atoms: I_39  and  I_39 
ROOT
HETATM    1  I   UNK N   1      27.116  21.071   6.194  0.00  0.00     0.000 I 
ENDROOT
TORSDOF 24
ENDMDL
MODEL 4
REMARK VINA RESULT:      -0.8     22.198     22.198
REMARK  24 active torsions:
REMARK  status: ('A' for Active; 'I' for Inactive)
REMARK    1  A    between atoms: O_1  and  C_10 
REMARK    2  A    between atoms: O_1  and  C_19 
REMARK    3  A    between atoms: O_2  and  C_13 
REMARK    4  A    between atoms: O_2  and  C_20 
REMARK    5  A    between atoms: O_3  and  C_14 
REMARK    6  A    between atoms: O_3  and  C_21 
REMARK    7  A    between atoms: N_4  and  C_7 
REMARK    8  A    between atoms: N_4  and  C_11 
REMARK    9  A    between atoms: N_4  and  C_12 
REMARK   10  A    between atoms: N_4  and  C_33 
REMARK   11  A    between atoms: N_5  and  C_8 
REMARK   12  A    between atoms: N_5  and  C_15 
REMARK   13  A    between atoms: N_5  and  C_16 
REMARK   14  A    between atoms: N_5  and  C_35 
REMARK   15  A    between atoms: N_6  and  C_9 
REMARK   16  A    between atoms: N_6  and  C_17 
REMARK   17  A    between atoms: N_6  and  C_18 
REMARK   18  A    between atoms: N_6  and  C_31 
REMARK   19  A    between atoms: C_7  and  C_10 
REMARK   20  A    between atoms: C_8  and  C_13 
REMARK   21  A    between atoms: C_9  and  C_14 
REMARK   22  A    between atoms: I_37  and  I_37 
REMARK   23  A    between atoms: I_38  and  I_38 
REMARK   24  A    between atoms: I_39  and  I_39 
ROOT
HETATM    1  I   UNK N   1      25.316  26.922  -5.653  0.00  0.00     0.000 I 
ENDROOT
TORSDOF 24
ENDMDL
MODEL 5
REMARK VINA RESULT:      -0.8     21.930     21.930
REMARK  24 active torsions:
REMARK  status: ('A' for Active; 'I' for Inactive)
REMARK    1  A    between atoms: O_1  and  C_10 
REMARK    2  A    between atoms: O_1  and  C_19 
REMARK    3  A    between atoms: O_2  and  C_13 
REMARK    4  A    between atoms: O_2  and  C_20 
REMARK    5  A    between atoms: O_3  and  C_14 
REMARK    6  A    between atoms: O_3  and  C_21 
REMARK    7  A    between atoms: N_4  and  C_7 
REMARK    8  A    between atoms: N_4  and  C_11 
REMARK    9  A    between atoms: N_4  and  C_12 
REMARK   10  A    between atoms: N_4  and  C_33 
REMARK   11  A    between atoms: N_5  and  C_8 
REMARK   12  A    between atoms: N_5  and  C_15 
REMARK   13  A    between atoms: N_5  and  C_16 
REMARK   14  A    between atoms: N_5  and  C_35 
REMARK   15  A    between atoms: N_6  and  C_9 
REMARK   16  A    between atoms: N_6  and  C_17 
REMARK   17  A    between atoms: N_6  and  C_18 
REMARK   18  A    between atoms: N_6  and  C_31 
REMARK   19  A    between atoms: C_7  and  C_10 
REMARK   20  A    between atoms: C_8  and  C_13 
REMARK   21  A    between atoms: C_9  and  C_14 
REMARK   22  A    between atoms: I_37  and  I_37 
REMARK   23  A    between atoms: I_38  and  I_38 
REMARK   24  A    between atoms: I_39  and  I_39 
ROOT
HETATM    1  I   UNK N   1      25.940  28.033  -4.066  0.00  0.00     0.000 I 
ENDROOT
TORSDOF 24
ENDMDL
MODEL 6
REMARK VINA RESULT:      -0.7     12.971     12.971
REMARK  24 active torsions:
REMARK  status: ('A' for Active; 'I' for Inactive)
REMARK    1  A    between atoms: O_1  and  C_10 
REMARK    2  A    between atoms: O_1  and  C_19 
REMARK    3  A    between atoms: O_2  and  C_13 
REMARK    4  A    between atoms: O_2  and  C_20 
REMARK    5  A    between atoms: O_3  and  C_14 
REMARK    6  A    between atoms: O_3  and  C_21 
REMARK    7  A    between atoms: N_4  and  C_7 
REMARK    8  A    between atoms: N_4  and  C_11 
REMARK    9  A    between atoms: N_4  and  C_12 
REMARK   10  A    between atoms: N_4  and  C_33 
REMARK   11  A    between atoms: N_5  and  C_8 
REMARK   12  A    between atoms: N_5  and  C_15 
REMARK   13  A    between atoms: N_5  and  C_16 
REMARK   14  A    between atoms: N_5  and  C_35 
REMARK   15  A    between atoms: N_6  and  C_9 
REMARK   16  A    between atoms: N_6  and  C_17 
REMARK   17  A    between atoms: N_6  and  C_18 
REMARK   18  A    between atoms: N_6  and  C_31 
REMARK   19  A    between atoms: C_7  and  C_10 
REMARK   20  A    between atoms: C_8  and  C_13 
REMARK   21  A    between atoms: C_9  and  C_14 
REMARK   22  A    between atoms: I_37  and  I_37 
REMARK   23  A    between atoms: I_38  and  I_38 
REMARK   24  A    between atoms: I_39  and  I_39 
ROOT
HETATM    1  I   UNK N   1      34.013  17.857   7.991  0.00  0.00     0.000 I 
ENDROOT
TORSDOF 24
ENDMDL
MODEL 7
REMARK VINA RESULT:      -0.7      8.397      8.397
REMARK  24 active torsions:
REMARK  status: ('A' for Active; 'I' for Inactive)
REMARK    1  A    between atoms: O_1  and  C_10 
REMARK    2  A    between atoms: O_1  and  C_19 
REMARK    3  A    between atoms: O_2  and  C_13 
REMARK    4  A    between atoms: O_2  and  C_20 
REMARK    5  A    between atoms: O_3  and  C_14 
REMARK    6  A    between atoms: O_3  and  C_21 
REMARK    7  A    between atoms: N_4  and  C_7 
REMARK    8  A    between atoms: N_4  and  C_11 
REMARK    9  A    between atoms: N_4  and  C_12 
REMARK   10  A    between atoms: N_4  and  C_33 
REMARK   11  A    between atoms: N_5  and  C_8 
REMARK   12  A    between atoms: N_5  and  C_15 
REMARK   13  A    between atoms: N_5  and  C_16 
REMARK   14  A    between atoms: N_5  and  C_35 
REMARK   15  A    between atoms: N_6  and  C_9 
REMARK   16  A    between atoms: N_6  and  C_17 
REMARK   17  A    between atoms: N_6  and  C_18 
REMARK   18  A    between atoms: N_6  and  C_31 
REMARK   19  A    between atoms: C_7  and  C_10 
REMARK   20  A    between atoms: C_8  and  C_13 
REMARK   21  A    between atoms: C_9  and  C_14 
REMARK   22  A    between atoms: I_37  and  I_37 
REMARK   23  A    between atoms: I_38  and  I_38 
REMARK   24  A    between atoms: I_39  and  I_39 
ROOT
HETATM    1  I   UNK N   1      28.546  17.931   8.990  0.00  0.00     0.000 I 
ENDROOT
TORSDOF 24
ENDMDL
MODEL 8
REMARK VINA RESULT:      -0.7     31.220     31.220
REMARK  24 active torsions:
REMARK  status: ('A' for Active; 'I' for Inactive)
REMARK    1  A    between atoms: O_1  and  C_10 
REMARK    2  A    between atoms: O_1  and  C_19 
REMARK    3  A    between atoms: O_2  and  C_13 
REMARK    4  A    between atoms: O_2  and  C_20 
REMARK    5  A    between atoms: O_3  and  C_14 
REMARK    6  A    between atoms: O_3  and  C_21 
REMARK    7  A    between atoms: N_4  and  C_7 
REMARK    8  A    between atoms: N_4  and  C_11 
REMARK    9  A    between atoms: N_4  and  C_12 
REMARK   10  A    between atoms: N_4  and  C_33 
REMARK   11  A    between atoms: N_5  and  C_8 
REMARK   12  A    between atoms: N_5  and  C_15 
REMARK   13  A    between atoms: N_5  and  C_16 
REMARK   14  A    between atoms: N_5  and  C_35 
REMARK   15  A    between atoms: N_6  and  C_9 
REMARK   16  A    between atoms: N_6  and  C_17 
REMARK   17  A    between atoms: N_6  and  C_18 
REMARK   18  A    between atoms: N_6  and  C_31 
REMARK   19  A    between atoms: C_7  and  C_10 
REMARK   20  A    between atoms: C_8  and  C_13 
REMARK   21  A    between atoms: C_9  and  C_14 
REMARK   22  A    between atoms: I_37  and  I_37 
REMARK   23  A    between atoms: I_38  and  I_38 
REMARK   24  A    between atoms: I_39  and  I_39 
ROOT
HETATM    1  I   UNK N   1      51.851  23.191  12.295  0.00  0.00     0.000 I 
ENDROOT
TORSDOF 24
ENDMDL
MODEL 9
REMARK VINA RESULT:      -0.7      2.571      2.571
REMARK  24 active torsions:
REMARK  status: ('A' for Active; 'I' for Inactive)
REMARK    1  A    between atoms: O_1  and  C_10 
REMARK    2  A    between atoms: O_1  and  C_19 
REMARK    3  A    between atoms: O_2  and  C_13 
REMARK    4  A    between atoms: O_2  and  C_20 
REMARK    5  A    between atoms: O_3  and  C_14 
REMARK    6  A    between atoms: O_3  and  C_21 
REMARK    7  A    between atoms: N_4  and  C_7 
REMARK    8  A    between atoms: N_4  and  C_11 
REMARK    9  A    between atoms: N_4  and  C_12 
REMARK   10  A    between atoms: N_4  and  C_33 
REMARK   11  A    between atoms: N_5  and  C_8 
REMARK   12  A    between atoms: N_5  and  C_15 
REMARK   13  A    between atoms: N_5  and  C_16 
REMARK   14  A    between atoms: N_5  and  C_35 
REMARK   15  A    between atoms: N_6  and  C_9 
REMARK   16  A    between atoms: N_6  and  C_17 
REMARK   17  A    between atoms: N_6  and  C_18 
REMARK   18  A    between atoms: N_6  and  C_31 
REMARK   19  A    between atoms: C_7  and  C_10 
REMARK   20  A    between atoms: C_8  and  C_13 
REMARK   21  A    between atoms: C_9  and  C_14 
REMARK   22  A    between atoms: I_37  and  I_37 
REMARK   23  A    between atoms: I_38  and  I_38 
REMARK   24  A    between atoms: I_39  and  I_39 
ROOT
HETATM    1  I   UNK N   1      21.186  13.850   9.464  0.00  0.00     0.000 I 
ENDROOT
TORSDOF 24
ENDMDL
