MODEL 1
REMARK VINA RESULT:      -6.3      0.000      0.000
REMARK  1 active torsions:
REMARK  status: ('A' for Active; 'I' for Inactive)
REMARK       I    between atoms: N_3  and  C_12 
REMARK    1  A    between atoms: N_3  and  C_13 
ROOT
HETATM    1 Br   UNK N   1      28.812  18.321   9.206  0.00  0.00    -0.046 Br
HETATM    2  N   UNK N   1      27.343  19.322   6.654  0.00  0.00    -0.362 N 
ATOM      3  HN  UNK N   1      27.118  19.502   7.633  1.00  0.00     0.165 HD
HETATM    4  N   UNK N   1      27.939  18.844   4.019  0.00  0.00    -0.363 N 
ATOM      5  HN  UNK N   1      28.160  18.666   3.039  1.00  0.00     0.165 HD
HETATM    6  C   UNK N   1      30.330  17.195   7.006  0.00  0.00     0.069 A 
HETATM    7  C   UNK N   1      29.223  17.991   7.357  0.00  0.00     0.067 A 
HETATM    8  C   UNK N   1      28.417  18.547   6.347  0.00  0.00     0.079 A 
HETATM    9  C   UNK N   1      30.610  16.967   5.649  0.00  0.00     0.034 A 
HETATM   10  C   UNK N   1      28.720  18.303   4.990  0.00  0.00     0.060 A 
HETATM   11  C   UNK N   1      29.814  17.515   4.648  0.00  0.00     0.034 A 
HETATM   12  C   UNK N   1      26.565  19.861   5.677  0.00  0.00     0.105 A 
HETATM   13  C   UNK N   1      26.870  19.617   4.336  0.00  0.00     0.105 A 
ENDROOT
BRANCH   6  14
HETATM   14  N   UNK N   1      31.154  16.637   8.028  0.00  0.00    -0.191 N 
HETATM   15  C   UNK N   1      32.486  17.052   8.319  0.00  0.00     0.674 A 
HETATM   16  N   UNK N   1      33.242  16.491   9.343  0.00  0.00    -0.225 N 
HETATM   17  N   UNK N   1      33.099  17.964   7.684  0.00  0.00    -0.225 N 
HETATM   18  C   UNK N   1      34.527  17.138   9.369  0.00  0.00     0.158 A 
HETATM   19  H   UNK N   1      32.947  15.772   9.948  0.00  0.00     0.177 HD
HETATM   20  C   UNK N   1      34.428  18.164   8.210  0.00  0.00     0.158 A 
ATOM     21  HN  UNK N   1      32.704  18.488   6.902  1.00  0.00     0.177 HD
HETATM   22  H   UNK N   1      30.774  15.910   8.572  0.00  0.00     0.184 HD
ENDBRANCH   6  14
TORSDOF 1
ENDMDL
MODEL 2
REMARK VINA RESULT:      -6.2      2.343      3.062
REMARK  1 active torsions:
REMARK  status: ('A' for Active; 'I' for Inactive)
REMARK       I    between atoms: N_3  and  C_12 
REMARK    1  A    between atoms: N_3  and  C_13 
ROOT
HETATM    1 Br   UNK N   1      30.466  17.221   8.705  0.00  0.00    -0.046 Br
HETATM    2  N   UNK N   1      29.580  16.779   5.758  0.00  0.00    -0.362 N 
ATOM      3  HN  UNK N   1      29.017  16.735   6.607  1.00  0.00     0.165 HD
HETATM    4  N   UNK N   1      31.086  16.893   3.466  0.00  0.00    -0.363 N 
ATOM      5  HN  UNK N   1      31.645  16.935   2.614  1.00  0.00     0.165 HD
HETATM    6  C   UNK N   1      32.889  17.594   7.156  0.00  0.00     0.069 A 
HETATM    7  C   UNK N   1      31.514  17.299   7.095  0.00  0.00     0.067 A 
HETATM    8  C   UNK N   1      30.907  17.063   5.848  0.00  0.00     0.079 A 
HETATM    9  C   UNK N   1      33.635  17.645   5.966  0.00  0.00     0.034 A 
HETATM   10  C   UNK N   1      31.678  17.121   4.668  0.00  0.00     0.060 A 
HETATM   11  C   UNK N   1      33.036  17.411   4.733  0.00  0.00     0.034 A 
HETATM   12  C   UNK N   1      28.993  16.553   4.552  0.00  0.00     0.105 A 
HETATM   13  C   UNK N   1      29.760  16.611   3.386  0.00  0.00     0.105 A 
ENDROOT
BRANCH   6  14
HETATM   14  N   UNK N   1      33.506  17.842   8.417  0.00  0.00    -0.191 N 
HETATM   15  C   UNK N   1      34.335  16.916   9.117  0.00  0.00     0.674 A 
HETATM   16  N   UNK N   1      34.934  17.215  10.336  0.00  0.00    -0.225 N 
HETATM   17  N   UNK N   1      34.605  15.749   8.696  0.00  0.00    -0.225 N 
HETATM   18  C   UNK N   1      35.701  16.073  10.758  0.00  0.00     0.158 A 
HETATM   19  H   UNK N   1      34.847  18.064  10.826  0.00  0.00     0.177 HD
HETATM   20  C   UNK N   1      35.470  15.050   9.615  0.00  0.00     0.158 A 
ATOM     21  HN  UNK N   1      34.256  15.357   7.821  1.00  0.00     0.177 HD
HETATM   22  H   UNK N   1      33.347  18.718   8.838  0.00  0.00     0.184 HD
ENDBRANCH   6  14
TORSDOF 1
ENDMDL
MODEL 3
REMARK VINA RESULT:      -6.1      1.495      2.209
REMARK  1 active torsions:
REMARK  status: ('A' for Active; 'I' for Inactive)
REMARK       I    between atoms: N_3  and  C_12 
REMARK    1  A    between atoms: N_3  and  C_13 
ROOT
HETATM    1 Br   UNK N   1      30.904  15.797   5.946  0.00  0.00    -0.046 Br
HETATM    2  N   UNK N   1      28.472  17.430   4.904  0.00  0.00    -0.362 N 
ATOM      3  HN  UNK N   1      29.034  16.737   4.410  1.00  0.00     0.165 HD
HETATM    4  N   UNK N   1      26.954  19.297   6.223  0.00  0.00    -0.363 N 
ATOM      5  HN  UNK N   1      26.389  19.992   6.712  1.00  0.00     0.165 HD
HETATM    6  C   UNK N   1      30.115  17.440   8.201  0.00  0.00     0.069 A 
HETATM    7  C   UNK N   1      29.836  17.106   6.862  0.00  0.00     0.067 A 
HETATM    8  C   UNK N   1      28.768  17.734   6.197  0.00  0.00     0.079 A 
HETATM    9  C   UNK N   1      29.321  18.400   8.850  0.00  0.00     0.034 A 
HETATM   10  C   UNK N   1      27.985  18.695   6.871  0.00  0.00     0.060 A 
HETATM   11  C   UNK N   1      28.265  19.023   8.193  0.00  0.00     0.034 A 
HETATM   12  C   UNK N   1      27.438  18.036   4.261  0.00  0.00     0.105 A 
HETATM   13  C   UNK N   1      26.666  18.987   4.933  0.00  0.00     0.105 A 
ENDROOT
BRANCH   6  14
HETATM   14  N   UNK N   1      31.191  16.799   8.882  0.00  0.00    -0.191 N 
HETATM   15  C   UNK N   1      32.559  17.194   8.802  0.00  0.00     0.674 A 
HETATM   16  N   UNK N   1      33.571  16.551   9.505  0.00  0.00    -0.225 N 
HETATM   17  N   UNK N   1      32.976  18.162   8.094  0.00  0.00    -0.225 N 
HETATM   18  C   UNK N   1      34.819  17.201   9.205  0.00  0.00     0.158 A 
HETATM   19  H   UNK N   1      33.453  15.780  10.106  0.00  0.00     0.177 HD
HETATM   20  C   UNK N   1      34.404  18.324   8.220  0.00  0.00     0.158 A 
ATOM     21  HN  UNK N   1      32.379  18.750   7.511  1.00  0.00     0.177 HD
HETATM   22  H   UNK N   1      30.975  16.025   9.450  0.00  0.00     0.184 HD
ENDBRANCH   6  14
TORSDOF 1
ENDMDL
MODEL 4
REMARK VINA RESULT:      -5.9      2.468      3.508
REMARK  1 active torsions:
REMARK  status: ('A' for Active; 'I' for Inactive)
REMARK       I    between atoms: N_3  and  C_12 
REMARK    1  A    between atoms: N_3  and  C_13 
ROOT
HETATM    1 Br   UNK N   1      33.896  16.871   5.948  0.00  0.00    -0.046 Br
HETATM    2  N   UNK N   1      30.989  16.620   4.872  0.00  0.00    -0.362 N 
ATOM      3  HN  UNK N   1      31.866  16.418   4.393  1.00  0.00     0.165 HD
HETATM    4  N   UNK N   1      28.622  17.159   6.151  0.00  0.00    -0.363 N 
ATOM      5  HN  UNK N   1      27.741  17.359   6.626  1.00  0.00     0.165 HD
HETATM    6  C   UNK N   1      32.227  17.704   8.168  0.00  0.00     0.069 A 
HETATM    7  C   UNK N   1      32.233  17.246   6.836  0.00  0.00     0.067 A 
HETATM    8  C   UNK N   1      31.015  17.063   6.158  0.00  0.00     0.079 A 
HETATM    9  C   UNK N   1      30.999  17.973   8.796  0.00  0.00     0.034 A 
HETATM   10  C   UNK N   1      29.795  17.339   6.812  0.00  0.00     0.060 A 
HETATM   11  C   UNK N   1      29.794  17.793   8.126  0.00  0.00     0.034 A 
HETATM   12  C   UNK N   1      29.811  16.440   4.217  0.00  0.00     0.105 A 
HETATM   13  C   UNK N   1      28.606  16.715   4.868  0.00  0.00     0.105 A 
ENDROOT
BRANCH   6  14
HETATM   14  N   UNK N   1      33.459  17.883   8.862  0.00  0.00    -0.191 N 
HETATM   15  C   UNK N   1      34.072  16.909   9.704  0.00  0.00     0.674 A 
HETATM   16  N   UNK N   1      35.289  17.123  10.341  0.00  0.00    -0.225 N 
HETATM   17  N   UNK N   1      33.572  15.766   9.943  0.00  0.00    -0.225 N 
HETATM   18  C   UNK N   1      35.619  15.946  11.100  0.00  0.00     0.158 A 
HETATM   19  H   UNK N   1      35.832  17.942  10.283  0.00  0.00     0.177 HD
HETATM   20  C   UNK N   1      34.422  15.000  10.824  0.00  0.00     0.158 A 
ATOM     21  HN  UNK N   1      32.687  15.432   9.563  1.00  0.00     0.177 HD
HETATM   22  H   UNK N   1      33.922  18.745   8.753  0.00  0.00     0.184 HD
ENDBRANCH   6  14
TORSDOF 1
ENDMDL
MODEL 5
REMARK VINA RESULT:      -5.8      8.412     11.636
REMARK  1 active torsions:
REMARK  status: ('A' for Active; 'I' for Inactive)
REMARK       I    between atoms: N_3  and  C_12 
REMARK    1  A    between atoms: N_3  and  C_13 
ROOT
HETATM    1 Br   UNK N   1      34.003  10.652  13.889  0.00  0.00    -0.046 Br
HETATM    2  N   UNK N   1      34.602  13.075  12.035  0.00  0.00    -0.362 N 
ATOM      3  HN  UNK N   1      34.003  12.268  11.858  1.00  0.00     0.165 HD
HETATM    4  N   UNK N   1      36.210  15.249  12.501  0.00  0.00    -0.363 N 
ATOM      5  HN  UNK N   1      36.808  16.058  12.672  1.00  0.00     0.165 HD
HETATM    6  C   UNK N   1      35.820  12.308  15.426  0.00  0.00     0.069 A 
HETATM    7  C   UNK N   1      35.127  12.178  14.207  0.00  0.00     0.067 A 
HETATM    8  C   UNK N   1      35.261  13.172  13.221  0.00  0.00     0.079 A 
HETATM    9  C   UNK N   1      36.637  13.432  15.635  0.00  0.00     0.034 A 
HETATM   10  C   UNK N   1      36.087  14.291  13.456  0.00  0.00     0.060 A 
HETATM   11  C   UNK N   1      36.770  14.415  14.661  0.00  0.00     0.034 A 
HETATM   12  C   UNK N   1      34.729  14.037  11.083  0.00  0.00     0.105 A 
HETATM   13  C   UNK N   1      35.548  15.144  11.320  0.00  0.00     0.105 A 
ENDROOT
BRANCH   6  14
HETATM   14  N   UNK N   1      35.681  11.307  16.431  0.00  0.00    -0.191 N 
HETATM   15  C   UNK N   1      35.422  11.564  17.810  0.00  0.00     0.674 A 
HETATM   16  N   UNK N   1      35.271  10.550  18.749  0.00  0.00    -0.225 N 
HETATM   17  N   UNK N   1      35.302  12.728  18.303  0.00  0.00    -0.225 N 
HETATM   18  C   UNK N   1      35.016  11.150  20.031  0.00  0.00     0.158 A 
HETATM   19  H   UNK N   1      35.330   9.584  18.567  0.00  0.00     0.177 HD
HETATM   20  C   UNK N   1      35.039  12.669  19.720  0.00  0.00     0.158 A 
ATOM     21  HN  UNK N   1      35.380  13.592  17.766  1.00  0.00     0.177 HD
HETATM   22  H   UNK N   1      35.771  10.367  16.153  0.00  0.00     0.184 HD
ENDBRANCH   6  14
TORSDOF 1
ENDMDL
MODEL 6
REMARK VINA RESULT:      -5.8      1.295      5.843
REMARK  1 active torsions:
REMARK  status: ('A' for Active; 'I' for Inactive)
REMARK       I    between atoms: N_3  and  C_12 
REMARK    1  A    between atoms: N_3  and  C_13 
ROOT
HETATM    1 Br   UNK N   1      29.319  17.758   9.166  0.00  0.00    -0.046 Br
HETATM    2  N   UNK N   1      32.397  17.515   8.791  0.00  0.00    -0.362 N 
ATOM      3  HN  UNK N   1      31.867  17.646   9.653  1.00  0.00     0.165 HD
HETATM    4  N   UNK N   1      33.833  17.161   6.479  0.00  0.00    -0.363 N 
ATOM      5  HN  UNK N   1      34.367  17.030   5.621  1.00  0.00     0.165 HD
HETATM    6  C   UNK N   1      29.677  17.412   6.309  0.00  0.00     0.069 A 
HETATM    7  C   UNK N   1      30.333  17.511   7.551  0.00  0.00     0.067 A 
HETATM    8  C   UNK N   1      31.736  17.426   7.606  0.00  0.00     0.079 A 
HETATM    9  C   UNK N   1      30.439  17.232   5.142  0.00  0.00     0.034 A 
HETATM   10  C   UNK N   1      32.478  17.244   6.420  0.00  0.00     0.060 A 
HETATM   11  C   UNK N   1      31.826  17.149   5.195  0.00  0.00     0.034 A 
HETATM   12  C   UNK N   1      33.753  17.430   8.845  0.00  0.00     0.105 A 
HETATM   13  C   UNK N   1      34.483  17.250   7.668  0.00  0.00     0.105 A 
ENDROOT
BRANCH   6  14
HETATM   14  N   UNK N   1      28.255  17.490   6.250  0.00  0.00    -0.191 N 
HETATM   15  C   UNK N   1      27.517  18.614   5.775  0.00  0.00     0.674 A 
HETATM   16  N   UNK N   1      26.128  18.632   5.715  0.00  0.00    -0.225 N 
HETATM   17  N   UNK N   1      28.053  19.689   5.363  0.00  0.00    -0.225 N 
HETATM   18  C   UNK N   1      25.712  19.904   5.187  0.00  0.00     0.158 A 
HETATM   19  H   UNK N   1      25.531  17.899   5.989  0.00  0.00     0.177 HD
HETATM   20  C   UNK N   1      27.053  20.642   4.942  0.00  0.00     0.158 A 
ATOM     21  HN  UNK N   1      29.059  19.858   5.332  1.00  0.00     0.177 HD
HETATM   22  H   UNK N   1      27.743  16.709   6.561  0.00  0.00     0.184 HD
ENDBRANCH   6  14
TORSDOF 1
ENDMDL
MODEL 7
REMARK VINA RESULT:      -5.7      9.680     11.939
REMARK  1 active torsions:
REMARK  status: ('A' for Active; 'I' for Inactive)
REMARK       I    between atoms: N_3  and  C_12 
REMARK    1  A    between atoms: N_3  and  C_13 
ROOT
HETATM    1 Br   UNK N   1      36.996  14.709  15.615  0.00  0.00    -0.046 Br
HETATM    2  N   UNK N   1      36.911  13.778  12.650  0.00  0.00    -0.362 N 
ATOM      3  HN  UNK N   1      37.502  14.491  13.078  1.00  0.00     0.165 HD
HETATM    4  N   UNK N   1      35.328  11.863  11.486  0.00  0.00    -0.363 N 
ATOM      5  HN  UNK N   1      34.739  11.152  11.052  1.00  0.00     0.165 HD
HETATM    6  C   UNK N   1      34.955  12.650  15.560  0.00  0.00     0.069 A 
HETATM    7  C   UNK N   1      35.891  13.370  14.792  0.00  0.00     0.067 A 
HETATM    8  C   UNK N   1      36.015  13.102  13.417  0.00  0.00     0.079 A 
HETATM    9  C   UNK N   1      34.157  11.677  14.936  0.00  0.00     0.034 A 
HETATM   10  C   UNK N   1      35.202  12.118  12.814  0.00  0.00     0.060 A 
HETATM   11  C   UNK N   1      34.278  11.412  13.576  0.00  0.00     0.034 A 
HETATM   12  C   UNK N   1      37.033  13.518  11.320  0.00  0.00     0.105 A 
HETATM   13  C   UNK N   1      36.226  12.543  10.728  0.00  0.00     0.105 A 
ENDROOT
BRANCH   6  14
HETATM   14  N   UNK N   1      34.832  12.913  16.956  0.00  0.00    -0.191 N 
HETATM   15  C   UNK N   1      35.323  12.066  17.993  0.00  0.00     0.674 A 
HETATM   16  N   UNK N   1      35.199  12.378  19.342  0.00  0.00    -0.225 N 
HETATM   17  N   UNK N   1      35.916  10.963  17.784  0.00  0.00    -0.225 N 
HETATM   18  C   UNK N   1      35.801  11.322  20.112  0.00  0.00     0.158 A 
HETATM   19  H   UNK N   1      34.770  13.186  19.708  0.00  0.00     0.177 HD
HETATM   20  C   UNK N   1      36.300  10.335  19.025  0.00  0.00     0.158 A 
ATOM     21  HN  UNK N   1      36.099  10.572  16.860  1.00  0.00     0.177 HD
HETATM   22  H   UNK N   1      34.373  13.741  17.225  0.00  0.00     0.184 HD
ENDBRANCH   6  14
TORSDOF 1
ENDMDL
MODEL 8
REMARK VINA RESULT:      -5.7      3.362      8.140
REMARK  1 active torsions:
REMARK  status: ('A' for Active; 'I' for Inactive)
REMARK       I    between atoms: N_3  and  C_12 
REMARK    1  A    between atoms: N_3  and  C_13 
ROOT
HETATM    1 Br   UNK N   1      33.127  12.997   8.983  0.00  0.00    -0.046 Br
HETATM    2  N   UNK N   1      34.823  13.008  11.590  0.00  0.00    -0.362 N 
ATOM      3  HN  UNK N   1      34.312  12.235  11.164  1.00  0.00     0.165 HD
HETATM    4  N   UNK N   1      36.202  15.081  12.744  0.00  0.00    -0.363 N 
ATOM      5  HN  UNK N   1      36.715  15.851  13.174  1.00  0.00     0.165 HD
HETATM    6  C   UNK N   1      34.100  15.720   9.204  0.00  0.00     0.069 A 
HETATM    7  C   UNK N   1      34.095  14.443   9.798  0.00  0.00     0.067 A 
HETATM    8  C   UNK N   1      34.806  14.230  10.993  0.00  0.00     0.079 A 
HETATM    9  C   UNK N   1      34.814  16.762   9.818  0.00  0.00     0.034 A 
HETATM   10  C   UNK N   1      35.516  15.294  11.590  0.00  0.00     0.060 A 
HETATM   11  C   UNK N   1      35.516  16.553  11.000  0.00  0.00     0.034 A 
HETATM   12  C   UNK N   1      35.512  12.801  12.744  0.00  0.00     0.105 A 
HETATM   13  C   UNK N   1      36.214  13.857  13.331  0.00  0.00     0.105 A 
ENDROOT
BRANCH   6  14
HETATM   14  N   UNK N   1      33.387  15.938   7.988  0.00  0.00    -0.191 N 
HETATM   15  C   UNK N   1      32.072  16.481   7.899  0.00  0.00     0.674 A 
HETATM   16  N   UNK N   1      31.428  16.697   6.685  0.00  0.00    -0.225 N 
HETATM   17  N   UNK N   1      31.375  16.819   8.905  0.00  0.00    -0.225 N 
HETATM   18  C   UNK N   1      30.129  17.256   6.952  0.00  0.00     0.158 A 
HETATM   19  H   UNK N   1      31.798  16.500   5.795  0.00  0.00     0.177 HD
HETATM   20  C   UNK N   1      30.092  17.339   8.500  0.00  0.00     0.158 A 
ATOM     21  HN  UNK N   1      31.683  16.734   9.874  1.00  0.00     0.177 HD
HETATM   22  H   UNK N   1      33.837  15.695   7.147  0.00  0.00     0.184 HD
ENDBRANCH   6  14
TORSDOF 1
ENDMDL
MODEL 9
REMARK VINA RESULT:      -5.6      2.729      6.872
REMARK  1 active torsions:
REMARK  status: ('A' for Active; 'I' for Inactive)
REMARK       I    between atoms: N_3  and  C_12 
REMARK    1  A    between atoms: N_3  and  C_13 
ROOT
HETATM    1 Br   UNK N   1      32.785  13.867   7.115  0.00  0.00    -0.046 Br
HETATM    2  N   UNK N   1      34.197  14.748   9.741  0.00  0.00    -0.362 N 
ATOM      3  HN  UNK N   1      33.847  13.826   9.483  1.00  0.00     0.165 HD
HETATM    4  N   UNK N   1      35.145  17.226  10.445  0.00  0.00    -0.363 N 
ATOM      5  HN  UNK N   1      35.497  18.147  10.707  1.00  0.00     0.165 HD
HETATM    6  C   UNK N   1      33.330  16.689   6.733  0.00  0.00     0.069 A 
HETATM    7  C   UNK N   1      33.450  15.599   7.616  0.00  0.00     0.067 A 
HETATM    8  C   UNK N   1      34.064  15.783   8.868  0.00  0.00     0.079 A 
HETATM    9  C   UNK N   1      33.823  17.946   7.121  0.00  0.00     0.034 A 
HETATM   10  C   UNK N   1      34.552  17.055   9.234  0.00  0.00     0.060 A 
HETATM   11  C   UNK N   1      34.429  18.129   8.360  0.00  0.00     0.034 A 
HETATM   12  C   UNK N   1      34.793  14.925  10.951  0.00  0.00     0.105 A 
HETATM   13  C   UNK N   1      35.274  16.187  11.309  0.00  0.00     0.105 A 
ENDROOT
BRANCH   6  14
HETATM   14  N   UNK N   1      32.716  16.505   5.459  0.00  0.00    -0.191 N 
HETATM   15  C   UNK N   1      31.343  16.763   5.169  0.00  0.00     0.674 A 
HETATM   16  N   UNK N   1      30.797  16.590   3.903  0.00  0.00    -0.225 N 
HETATM   17  N   UNK N   1      30.503  17.173   6.028  0.00  0.00    -0.225 N 
HETATM   18  C   UNK N   1      29.403  16.941   3.956  0.00  0.00     0.158 A 
HETATM   19  H   UNK N   1      31.282  16.279   3.104  0.00  0.00     0.177 HD
HETATM   20  C   UNK N   1      29.197  17.347   5.439  0.00  0.00     0.158 A 
ATOM     21  HN  UNK N   1      30.722  17.357   7.008  1.00  0.00     0.177 HD
HETATM   22  H   UNK N   1      33.282  16.176   4.724  0.00  0.00     0.184 HD
ENDBRANCH   6  14
TORSDOF 1
ENDMDL
