REMARK  1 active torsions:
REMARK  status: ('A' for Active; 'I' for Inactive)
REMARK       I    between atoms: N_3  and  C_12 
REMARK    1  A    between atoms: N_3  and  C_13 
ROOT
HETATM    1 Br   UNK N   1       5.361  -2.607   0.018  0.00  0.00    -0.046 Br
HETATM    2  N   UNK N   1       7.756  -0.624  -0.013  0.00  0.00    -0.362 N 
ATOM      3  HN  UNK N   1       7.772  -1.644  -0.009  1.00  0.00     0.165 HD
HETATM    4  N   UNK N   1       7.726   2.120  -0.025  0.00  0.00    -0.363 N 
ATOM      5  HN  UNK N   1       7.716   3.140  -0.029  1.00  0.00     0.165 HD
HETATM    6  C   UNK N   1       4.129   0.018   0.016  0.00  0.00     0.069 A 
HETATM    7  C   UNK N   1       5.349  -0.685   0.010  0.00  0.00     0.067 A 
HETATM    8  C   UNK N   1       6.562   0.027  -0.004  0.00  0.00     0.079 A 
HETATM    9  C   UNK N   1       4.145   1.423   0.011  0.00  0.00     0.034 A 
HETATM   10  C   UNK N   1       6.551   1.438  -0.010  0.00  0.00     0.060 A 
HETATM   11  C   UNK N   1       5.344   2.128  -0.002  0.00  0.00     0.034 A 
HETATM   12  C   UNK N   1       8.929   0.064  -0.029  0.00  0.00     0.105 A 
HETATM   13  C   UNK N   1       8.913   1.461  -0.035  0.00  0.00     0.105 A 
ENDROOT
BRANCH   6  14
HETATM   14  N   UNK N   1       2.897  -0.700   0.022  0.00  0.00    -0.191 N 
HETATM   15  C   UNK N   1       1.603  -0.101   0.017  0.00  0.00     0.674 A 
HETATM   16  N   UNK N   1       0.429  -0.846  -0.001  0.00  0.00    -0.225 N 
HETATM   17  N   UNK N   1       1.403   1.153   0.023  0.00  0.00    -0.225 N 
HETATM   18  C   UNK N   1      -0.687   0.062  -0.008  0.00  0.00     0.158 A 
HETATM   19  H   UNK N   1       0.372  -1.829  -0.007  0.00  0.00     0.177 HD
HETATM   20  C   UNK N   1      -0.008   1.456   0.010  0.00  0.00     0.158 A 
ATOM     21  HN  UNK N   1       2.143   1.855   0.035  1.00  0.00     0.177 HD
HETATM   22  H   UNK N   1       2.943  -1.683   0.031  0.00  0.00     0.184 HD
ENDBRANCH   6  14
TORSDOF 1
