MODEL 1
REMARK VINA RESULT:      -7.6      0.000      0.000
REMARK  5 active torsions:
REMARK  status: ('A' for Active; 'I' for Inactive)
REMARK    1  A    between atoms: O_5  and  C_20 
REMARK    2  A    between atoms: C_16  and  N_10 
REMARK       I    between atoms: N_10  and  C_21 
REMARK    3  A    between atoms: C_15  and  C_20 
REMARK    4  A    between atoms: C_21  and  C_22 
REMARK    5  A    between atoms: C_23  and  C_25 
ROOT
HETATM    1  O   UNK N   1      21.012  17.647   7.556  0.00  0.00    -0.267 OA
HETATM    2  N   UNK N   1      22.565  17.359   5.984  0.00  0.00    -0.342 N 
HETATM    3  C   UNK N   1      21.503  16.919   6.708  0.00  0.00     0.257 C 
HETATM    4  H   UNK N   1      23.086  18.125   6.317  0.00  0.00     0.163 HD
ENDROOT
BRANCH   3   5
HETATM    5  C   UNK N   1      20.967  15.559   6.519  0.00  0.00     0.092 A 
HETATM    6  C   UNK N   1      21.324  14.281   7.002  0.00  0.00     0.086 A 
HETATM    7  N   UNK N   1      20.513  13.395   6.383  0.00  0.00    -0.259 N 
HETATM    8  O   UNK N   1      19.713  14.036   5.581  0.00  0.00    -0.241 OA
ATOM      9  HN  UNK N   1      20.525  12.385   6.523  1.00  0.00     0.195 HD
HETATM   10  C   UNK N   1      19.936  15.316   5.633  0.00  0.00     0.090 A 
HETATM   11  C   UNK N   1      19.223  16.317   4.784  0.00  0.00     0.080 C 
BRANCH   6  12
HETATM   12  C   UNK N   1      22.321  13.794   8.052  0.00  0.00     0.037 A 
HETATM   13  C   UNK N   1      23.671  13.501   7.649  0.00  0.00     0.048 A 
HETATM   14 Cl   UNK N   1      24.306  13.753   6.024  0.00  0.00    -0.083 Cl
HETATM   15  C   UNK N   1      24.597  12.996   8.564  0.00  0.00     0.025 A 
HETATM   16  C   UNK N   1      24.244  12.757   9.879  0.00  0.00     0.003 A 
HETATM   17  C   UNK N   1      22.954  13.023  10.300  0.00  0.00     0.025 A 
HETATM   18  C   UNK N   1      21.992  13.532   9.425  0.00  0.00     0.048 A 
HETATM   19 Cl   UNK N   1      20.420  13.697  10.145  0.00  0.00    -0.083 Cl
ENDBRANCH   6  12
ENDBRANCH   3   5
BRANCH   2  20
HETATM   20  C   UNK N   1      22.952  16.733   4.732  0.00  0.00     0.199 A 
HETATM   21  C   UNK N   1      24.515  16.935   4.354  0.00  0.00     0.160 A 
HETATM   22  S   UNK N   1      25.661  17.640   5.598  0.00  0.00    -0.135 SA
HETATM   23  N   UNK N   1      24.118  18.004   3.509  0.00  0.00    -0.219 NA
HETATM   24  C   UNK N   1      25.960  19.148   4.585  0.00  0.00     0.029 C 
HETATM   25  C   UNK N   1      24.763  19.274   3.663  0.00  0.00     0.182 C 
HETATM   26  C   UNK N   1      26.054  20.355   5.495  0.00  0.00     0.029 C 
HETATM   27  C   UNK N   1      27.234  18.992   3.776  0.00  0.00     0.029 C 
HETATM   28  C   UNK N   1      22.846  17.831   3.730  0.00  0.00     0.227 A 
HETATM   29  O   UNK N   1      21.972  18.672   3.595  0.00  0.00    -0.277 OA
BRANCH  25  30
HETATM   30  C   UNK N   1      24.382  20.461   2.830  0.00  0.00     0.160 C 
HETATM   31  O   UNK N   1      25.099  20.826   1.914  0.00  0.00    -0.649 OA
BRANCH  30  32
HETATM   32  O   UNK N   1      23.277  21.168   3.137  0.00  0.00    -0.775 OA
HETATM   33  H   UNK N   1      23.271  21.972   3.618  0.00  0.00     0.167 HD
ENDBRANCH  30  32
ENDBRANCH  25  30
ENDBRANCH   2  20
TORSDOF 5
ENDMDL
MODEL 2
REMARK VINA RESULT:      -7.3     10.158     12.592
REMARK  5 active torsions:
REMARK  status: ('A' for Active; 'I' for Inactive)
REMARK    1  A    between atoms: O_5  and  C_20 
REMARK    2  A    between atoms: C_16  and  N_10 
REMARK       I    between atoms: N_10  and  C_21 
REMARK    3  A    between atoms: C_15  and  C_20 
REMARK    4  A    between atoms: C_21  and  C_22 
REMARK    5  A    between atoms: C_23  and  C_25 
ROOT
HETATM    1  O   UNK N   1      32.078  13.301   6.856  0.00  0.00    -0.267 OA
HETATM    2  N   UNK N   1      34.040  14.000   7.650  0.00  0.00    -0.342 N 
HETATM    3  C   UNK N   1      32.948  14.158   6.858  0.00  0.00     0.257 C 
HETATM    4  H   UNK N   1      34.250  13.104   8.000  0.00  0.00     0.163 HD
ENDROOT
BRANCH   3   5
HETATM    5  C   UNK N   1      32.819  15.324   5.966  0.00  0.00     0.092 A 
HETATM    6  C   UNK N   1      32.006  16.479   5.961  0.00  0.00     0.086 A 
HETATM    7  N   UNK N   1      32.276  17.135   4.812  0.00  0.00    -0.259 N 
HETATM    8  O   UNK N   1      33.172  16.472   4.141  0.00  0.00    -0.241 OA
ATOM      9  HN  UNK N   1      31.846  18.012   4.517  1.00  0.00     0.195 HD
HETATM   10  C   UNK N   1      33.531  15.400   4.785  0.00  0.00     0.090 A 
HETATM   11  C   UNK N   1      34.499  14.396   4.250  0.00  0.00     0.080 C 
BRANCH   6  12
HETATM   12  C   UNK N   1      31.029  17.081   6.969  0.00  0.00     0.037 A 
HETATM   13  C   UNK N   1      31.543  17.894   8.039  0.00  0.00     0.048 A 
HETATM   14 Cl   UNK N   1      33.239  18.337   8.231  0.00  0.00    -0.083 Cl
HETATM   15  C   UNK N   1      30.692  18.413   9.016  0.00  0.00     0.025 A 
HETATM   16  C   UNK N   1      29.334  18.158   8.989  0.00  0.00     0.003 A 
HETATM   17  C   UNK N   1      28.805  17.377   7.978  0.00  0.00     0.025 A 
HETATM   18  C   UNK N   1      29.614  16.838   6.974  0.00  0.00     0.048 A 
HETATM   19 Cl   UNK N   1      28.752  15.814   5.867  0.00  0.00    -0.083 Cl
ENDBRANCH   6  12
ENDBRANCH   3   5
BRANCH   2  20
HETATM   20  C   UNK N   1      34.904  15.114   7.996  0.00  0.00     0.199 A 
HETATM   21  C   UNK N   1      36.369  14.667   8.526  0.00  0.00     0.160 A 
HETATM   22  S   UNK N   1      36.887  12.915   8.378  0.00  0.00    -0.135 SA
HETATM   23  N   UNK N   1      35.885  14.841   9.849  0.00  0.00    -0.219 NA
HETATM   24  C   UNK N   1      36.948  12.695  10.205  0.00  0.00     0.029 C 
HETATM   25  C   UNK N   1      36.043  13.767  10.782  0.00  0.00     0.182 C 
HETATM   26  C   UNK N   1      36.429  11.318  10.564  0.00  0.00     0.029 C 
HETATM   27  C   UNK N   1      38.368  12.877  10.708  0.00  0.00     0.029 C 
HETATM   28  C   UNK N   1      34.719  15.274   9.466  0.00  0.00     0.227 A 
HETATM   29  O   UNK N   1      33.690  15.243  10.123  0.00  0.00    -0.277 OA
BRANCH  25  30
HETATM   30  C   UNK N   1      35.536  13.861  12.191  0.00  0.00     0.160 C 
HETATM   31  O   UNK N   1      36.253  14.292  13.076  0.00  0.00    -0.649 OA
BRANCH  30  32
HETATM   32  O   UNK N   1      34.304  13.404  12.490  0.00  0.00    -0.775 OA
HETATM   33  H   UNK N   1      33.748  13.756  13.157  0.00  0.00     0.167 HD
ENDBRANCH  30  32
ENDBRANCH  25  30
ENDBRANCH   2  20
TORSDOF 5
ENDMDL
MODEL 3
REMARK VINA RESULT:      -7.3     14.125     16.382
REMARK  5 active torsions:
REMARK  status: ('A' for Active; 'I' for Inactive)
REMARK    1  A    between atoms: O_5  and  C_20 
REMARK    2  A    between atoms: C_16  and  N_10 
REMARK       I    between atoms: N_10  and  C_21 
REMARK    3  A    between atoms: C_15  and  C_20 
REMARK    4  A    between atoms: C_21  and  C_22 
REMARK    5  A    between atoms: C_23  and  C_25 
ROOT
HETATM    1  O   UNK N   1      26.038  24.270  -3.692  0.00  0.00    -0.267 OA
HETATM    2  N   UNK N   1      28.204  24.400  -4.198  0.00  0.00    -0.342 N 
HETATM    3  C   UNK N   1      26.894  24.586  -4.503  0.00  0.00     0.257 C 
HETATM    4  H   UNK N   1      28.442  23.785  -3.467  0.00  0.00     0.163 HD
ENDROOT
BRANCH   3   5
HETATM    5  C   UNK N   1      26.488  25.118  -5.816  0.00  0.00     0.092 A 
HETATM    6  C   UNK N   1      26.429  26.411  -6.382  0.00  0.00     0.086 A 
HETATM    7  N   UNK N   1      25.864  26.272  -7.601  0.00  0.00    -0.259 N 
HETATM    8  O   UNK N   1      25.585  25.017  -7.802  0.00  0.00    -0.241 OA
ATOM      9  HN  UNK N   1      25.684  27.030  -8.260  1.00  0.00     0.195 HD
HETATM   10  C   UNK N   1      25.943  24.295  -6.781  0.00  0.00     0.090 A 
HETATM   11  C   UNK N   1      25.701  22.824  -6.680  0.00  0.00     0.080 C 
BRANCH   6  12
HETATM   12  C   UNK N   1      26.915  27.784  -5.922  0.00  0.00     0.037 A 
HETATM   13  C   UNK N   1      27.859  28.500  -6.738  0.00  0.00     0.048 A 
HETATM   14 Cl   UNK N   1      28.443  27.949  -8.308  0.00  0.00    -0.083 Cl
HETATM   15  C   UNK N   1      28.374  29.729  -6.324  0.00  0.00     0.025 A 
HETATM   16  C   UNK N   1      27.999  30.292  -5.118  0.00  0.00     0.003 A 
HETATM   17  C   UNK N   1      27.097  29.630  -4.307  0.00  0.00     0.025 A 
HETATM   18  C   UNK N   1      26.549  28.399  -4.677  0.00  0.00     0.048 A 
HETATM   19 Cl   UNK N   1      25.516  27.708  -3.463  0.00  0.00    -0.083 Cl
ENDBRANCH   6  12
ENDBRANCH   3   5
BRANCH   2  20
HETATM   20  C   UNK N   1      29.264  25.082  -4.918  0.00  0.00     0.199 A 
HETATM   21  C   UNK N   1      30.009  24.157  -6.022  0.00  0.00     0.160 A 
HETATM   22  S   UNK N   1      29.305  22.520  -6.449  0.00  0.00    -0.135 SA
HETATM   23  N   UNK N   1      31.029  23.927  -5.062  0.00  0.00    -0.219 NA
HETATM   24  C   UNK N   1      30.761  21.626  -5.764  0.00  0.00     0.029 C 
HETATM   25  C   UNK N   1      31.402  22.576  -4.770  0.00  0.00     0.182 C 
HETATM   26  C   UNK N   1      30.295  20.366  -5.064  0.00  0.00     0.029 C 
HETATM   27  C   UNK N   1      31.739  21.287  -6.874  0.00  0.00     0.029 C 
HETATM   28  C   UNK N   1      30.502  24.718  -4.173  0.00  0.00     0.227 A 
HETATM   29  O   UNK N   1      30.693  24.674  -2.967  0.00  0.00    -0.277 OA
BRANCH  25  30
HETATM   30  C   UNK N   1      32.451  22.246  -3.750  0.00  0.00     0.160 C 
HETATM   31  O   UNK N   1      33.612  22.094  -4.088  0.00  0.00    -0.649 OA
BRANCH  30  32
HETATM   32  O   UNK N   1      32.097  22.053  -2.465  0.00  0.00    -0.775 OA
HETATM   33  H   UNK N   1      32.445  22.527  -1.735  0.00  0.00     0.167 HD
ENDBRANCH  30  32
ENDBRANCH  25  30
ENDBRANCH   2  20
TORSDOF 5
ENDMDL
MODEL 4
REMARK VINA RESULT:      -7.2     10.237     12.720
REMARK  5 active torsions:
REMARK  status: ('A' for Active; 'I' for Inactive)
REMARK    1  A    between atoms: O_5  and  C_20 
REMARK    2  A    between atoms: C_16  and  N_10 
REMARK       I    between atoms: N_10  and  C_21 
REMARK    3  A    between atoms: C_15  and  C_20 
REMARK    4  A    between atoms: C_21  and  C_22 
REMARK    5  A    between atoms: C_23  and  C_25 
ROOT
HETATM    1  O   UNK N   1      32.273  13.111   6.718  0.00  0.00    -0.267 OA
HETATM    2  N   UNK N   1      34.230  13.838   7.499  0.00  0.00    -0.342 N 
HETATM    3  C   UNK N   1      33.131  13.981   6.713  0.00  0.00     0.257 C 
HETATM    4  H   UNK N   1      34.455  12.946   7.849  0.00  0.00     0.163 HD
ENDROOT
BRANCH   3   5
HETATM    5  C   UNK N   1      32.981  15.143   5.820  0.00  0.00     0.092 A 
HETATM    6  C   UNK N   1      32.206  16.324   5.858  0.00  0.00     0.086 A 
HETATM    7  N   UNK N   1      32.420  16.962   4.687  0.00  0.00    -0.259 N 
HETATM    8  O   UNK N   1      33.249  16.265   3.965  0.00  0.00    -0.241 OA
ATOM      9  HN  UNK N   1      32.000  17.850   4.412  1.00  0.00     0.195 HD
HETATM   10  C   UNK N   1      33.615  15.187   4.595  0.00  0.00     0.090 A 
HETATM   11  C   UNK N   1      34.514  14.149   4.007  0.00  0.00     0.080 C 
BRANCH   6  12
HETATM   12  C   UNK N   1      31.317  16.965   6.922  0.00  0.00     0.037 A 
HETATM   13  C   UNK N   1      29.894  16.759   6.858  0.00  0.00     0.048 A 
HETATM   14 Cl   UNK N   1      29.085  15.727   5.680  0.00  0.00    -0.083 Cl
HETATM   15  C   UNK N   1      29.041  17.376   7.775  0.00  0.00     0.025 A 
HETATM   16  C   UNK N   1      29.534  18.207   8.764  0.00  0.00     0.003 A 
HETATM   17  C   UNK N   1      30.896  18.430   8.851  0.00  0.00     0.025 A 
HETATM   18  C   UNK N   1      31.792  17.833   7.962  0.00  0.00     0.048 A 
HETATM   19 Cl   UNK N   1      33.439  18.332   8.199  0.00  0.00    -0.083 Cl
ENDBRANCH   6  12
ENDBRANCH   3   5
BRANCH   2  20
HETATM   20  C   UNK N   1      35.081  14.965   7.838  0.00  0.00     0.199 A 
HETATM   21  C   UNK N   1      36.521  14.539   8.449  0.00  0.00     0.160 A 
HETATM   22  S   UNK N   1      37.040  12.781   8.393  0.00  0.00    -0.135 SA
HETATM   23  N   UNK N   1      35.980  14.766   9.741  0.00  0.00    -0.219 NA
HETATM   24  C   UNK N   1      37.020  12.635  10.229  0.00  0.00     0.029 C 
HETATM   25  C   UNK N   1      36.094  13.729  10.723  0.00  0.00     0.182 C 
HETATM   26  C   UNK N   1      36.483  11.274  10.619  0.00  0.00     0.029 C 
HETATM   27  C   UNK N   1      38.418  12.835  10.786  0.00  0.00     0.029 C 
HETATM   28  C   UNK N   1      34.832  15.184   9.291  0.00  0.00     0.227 A 
HETATM   29  O   UNK N   1      33.775  15.180   9.902  0.00  0.00    -0.277 OA
BRANCH  25  30
HETATM   30  C   UNK N   1      35.525  13.879  12.103  0.00  0.00     0.160 C 
HETATM   31  O   UNK N   1      36.189  14.385  12.990  0.00  0.00    -0.649 OA
BRANCH  30  32
HETATM   32  O   UNK N   1      34.299  13.393  12.378  0.00  0.00    -0.775 OA
HETATM   33  H   UNK N   1      33.574  13.904  12.678  0.00  0.00     0.167 HD
ENDBRANCH  30  32
ENDBRANCH  25  30
ENDBRANCH   2  20
TORSDOF 5
ENDMDL
MODEL 5
REMARK VINA RESULT:      -7.1     11.576     13.394
REMARK  5 active torsions:
REMARK  status: ('A' for Active; 'I' for Inactive)
REMARK    1  A    between atoms: O_5  and  C_20 
REMARK    2  A    between atoms: C_16  and  N_10 
REMARK       I    between atoms: N_10  and  C_21 
REMARK    3  A    between atoms: C_15  and  C_20 
REMARK    4  A    between atoms: C_21  and  C_22 
REMARK    5  A    between atoms: C_23  and  C_25 
ROOT
HETATM    1  O   UNK N   1      36.102  16.019  11.584  0.00  0.00    -0.267 OA
HETATM    2  N   UNK N   1      34.934  15.073   9.938  0.00  0.00    -0.342 N 
HETATM    3  C   UNK N   1      35.863  15.017  10.927  0.00  0.00     0.257 C 
HETATM    4  H   UNK N   1      34.663  15.952   9.586  0.00  0.00     0.163 HD
ENDROOT
BRANCH   3   5
HETATM    5  C   UNK N   1      36.621  13.781  11.189  0.00  0.00     0.092 A 
HETATM    6  C   UNK N   1      36.570  12.784  12.188  0.00  0.00     0.086 A 
HETATM    7  N   UNK N   1      37.603  11.947  11.950  0.00  0.00    -0.259 N 
HETATM    8  O   UNK N   1      38.257  12.362  10.904  0.00  0.00    -0.241 OA
ATOM      9  HN  UNK N   1      37.835  11.121  12.501  1.00  0.00     0.195 HD
HETATM   10  C   UNK N   1      37.711  13.436  10.414  0.00  0.00     0.090 A 
HETATM   11  C   UNK N   1      38.263  14.190   9.248  0.00  0.00     0.080 C 
BRANCH   6  12
HETATM   12  C   UNK N   1      35.597  12.486  13.328  0.00  0.00     0.037 A 
HETATM   13  C   UNK N   1      35.696  13.247  14.545  0.00  0.00     0.048 A 
HETATM   14 Cl   UNK N   1      36.813  14.588  14.798  0.00  0.00    -0.083 Cl
HETATM   15  C   UNK N   1      34.868  12.966  15.633  0.00  0.00     0.025 A 
HETATM   16  C   UNK N   1      33.934  11.947  15.576  0.00  0.00     0.003 A 
HETATM   17  C   UNK N   1      33.815  11.193  14.423  0.00  0.00     0.025 A 
HETATM   18  C   UNK N   1      34.617  11.437  13.306  0.00  0.00     0.048 A 
HETATM   19 Cl   UNK N   1      34.362  10.308  12.010  0.00  0.00    -0.083 Cl
ENDBRANCH   6  12
ENDBRANCH   3   5
BRANCH   2  20
HETATM   20  C   UNK N   1      34.329  13.874   9.386  0.00  0.00     0.199 A 
HETATM   21  C   UNK N   1      34.319  13.831   7.766  0.00  0.00     0.160 A 
HETATM   22  S   UNK N   1      35.273  15.082   6.824  0.00  0.00    -0.135 SA
HETATM   23  N   UNK N   1      32.977  14.291   7.815  0.00  0.00    -0.219 NA
HETATM   24  C   UNK N   1      33.748  15.817   6.101  0.00  0.00     0.029 C 
HETATM   25  C   UNK N   1      32.619  15.443   7.042  0.00  0.00     0.182 C 
HETATM   26  C   UNK N   1      33.899  17.322   6.032  0.00  0.00     0.029 C 
HETATM   27  C   UNK N   1      33.493  15.244   4.719  0.00  0.00     0.029 C 
HETATM   28  C   UNK N   1      32.918  14.272   9.115  0.00  0.00     0.227 A 
HETATM   29  O   UNK N   1      32.151  14.919   9.810  0.00  0.00    -0.277 OA
BRANCH  25  30
HETATM   30  C   UNK N   1      31.230  16.008   7.060  0.00  0.00     0.160 C 
HETATM   31  O   UNK N   1      30.425  15.692   6.202  0.00  0.00    -0.649 OA
BRANCH  30  32
HETATM   32  O   UNK N   1      30.891  16.922   7.991  0.00  0.00    -0.775 OA
HETATM   33  H   UNK N   1      30.305  17.639   7.851  0.00  0.00     0.167 HD
ENDBRANCH  30  32
ENDBRANCH  25  30
ENDBRANCH   2  20
TORSDOF 5
ENDMDL
MODEL 6
REMARK VINA RESULT:      -6.9     13.892     16.733
REMARK  5 active torsions:
REMARK  status: ('A' for Active; 'I' for Inactive)
REMARK    1  A    between atoms: O_5  and  C_20 
REMARK    2  A    between atoms: C_16  and  N_10 
REMARK       I    between atoms: N_10  and  C_21 
REMARK    3  A    between atoms: C_15  and  C_20 
REMARK    4  A    between atoms: C_21  and  C_22 
REMARK    5  A    between atoms: C_23  and  C_25 
ROOT
HETATM    1  O   UNK N   1      25.467  23.066  -6.173  0.00  0.00    -0.267 OA
HETATM    2  N   UNK N   1      27.665  23.160  -6.530  0.00  0.00    -0.342 N 
HETATM    3  C   UNK N   1      26.391  23.531  -6.822  0.00  0.00     0.257 C 
HETATM    4  H   UNK N   1      27.815  22.344  -6.000  0.00  0.00     0.163 HD
ENDROOT
BRANCH   3   5
HETATM    5  C   UNK N   1      26.104  24.448  -7.939  0.00  0.00     0.092 A 
HETATM    6  C   UNK N   1      26.158  25.850  -8.104  0.00  0.00     0.086 A 
HETATM    7  N   UNK N   1      25.667  26.112  -9.335  0.00  0.00    -0.259 N 
HETATM    8  O   UNK N   1      25.329  24.992  -9.907  0.00  0.00    -0.241 OA
ATOM      9  HN  UNK N   1      25.575  27.038  -9.751  1.00  0.00     0.195 HD
HETATM   10  C   UNK N   1      25.576  23.982  -9.126  0.00  0.00     0.090 A 
HETATM   11  C   UNK N   1      25.243  22.567  -9.470  0.00  0.00     0.080 C 
BRANCH   6  12
HETATM   12  C   UNK N   1      26.692  26.992  -7.240  0.00  0.00     0.037 A 
HETATM   13  C   UNK N   1      26.013  27.314  -6.014  0.00  0.00     0.048 A 
HETATM   14 Cl   UNK N   1      24.640  26.419  -5.365  0.00  0.00    -0.083 Cl
HETATM   15  C   UNK N   1      26.432  28.388  -5.226  0.00  0.00     0.025 A 
HETATM   16  C   UNK N   1      27.503  29.176  -5.603  0.00  0.00     0.003 A 
HETATM   17  C   UNK N   1      28.176  28.897  -6.778  0.00  0.00     0.025 A 
HETATM   18  C   UNK N   1      27.800  27.832  -7.599  0.00  0.00     0.048 A 
HETATM   19 Cl   UNK N   1      28.723  27.729  -9.068  0.00  0.00    -0.083 Cl
ENDBRANCH   6  12
ENDBRANCH   3   5
BRANCH   2  20
HETATM   20  C   UNK N   1      28.810  23.932  -6.977  0.00  0.00     0.199 A 
HETATM   21  C   UNK N   1      30.233  23.196  -6.734  0.00  0.00     0.160 A 
HETATM   22  S   UNK N   1      30.263  21.438  -6.217  0.00  0.00    -0.135 SA
HETATM   23  N   UNK N   1      30.374  23.973  -5.554  0.00  0.00    -0.219 NA
HETATM   24  C   UNK N   1      31.008  21.848  -4.584  0.00  0.00     0.029 C 
HETATM   25  C   UNK N   1      30.663  23.301  -4.323  0.00  0.00     0.182 C 
HETATM   26  C   UNK N   1      30.400  20.962  -3.517  0.00  0.00     0.029 C 
HETATM   27  C   UNK N   1      32.514  21.664  -4.633  0.00  0.00     0.029 C 
HETATM   28  C   UNK N   1      29.273  24.639  -5.749  0.00  0.00     0.227 A 
HETATM   29  O   UNK N   1      28.615  25.209  -4.892  0.00  0.00    -0.277 OA
BRANCH  25  30
HETATM   30  C   UNK N   1      30.800  24.046  -3.028  0.00  0.00     0.160 C 
HETATM   31  O   UNK N   1      30.714  23.455  -1.966  0.00  0.00    -0.649 OA
BRANCH  30  32
HETATM   32  O   UNK N   1      30.951  25.385  -3.039  0.00  0.00    -0.775 OA
HETATM   33  H   UNK N   1      31.634  25.851  -2.598  0.00  0.00     0.167 HD
ENDBRANCH  30  32
ENDBRANCH  25  30
ENDBRANCH   2  20
TORSDOF 5
ENDMDL
MODEL 7
REMARK VINA RESULT:      -6.9     11.619     13.520
REMARK  5 active torsions:
REMARK  status: ('A' for Active; 'I' for Inactive)
REMARK    1  A    between atoms: O_5  and  C_20 
REMARK    2  A    between atoms: C_16  and  N_10 
REMARK       I    between atoms: N_10  and  C_21 
REMARK    3  A    between atoms: C_15  and  C_20 
REMARK    4  A    between atoms: C_21  and  C_22 
REMARK    5  A    between atoms: C_23  and  C_25 
ROOT
HETATM    1  O   UNK N   1      35.038  11.210   8.695  0.00  0.00    -0.267 OA
HETATM    2  N   UNK N   1      34.499  13.311   9.209  0.00  0.00    -0.342 N 
HETATM    3  C   UNK N   1      35.290  12.215   9.342  0.00  0.00     0.257 C 
HETATM    4  H   UNK N   1      33.602  13.208   8.815  0.00  0.00     0.163 HD
ENDROOT
BRANCH   3   5
HETATM    5  C   UNK N   1      36.419  12.204  10.289  0.00  0.00     0.092 A 
HETATM    6  C   UNK N   1      36.528  12.116  11.695  0.00  0.00     0.086 A 
HETATM    7  N   UNK N   1      37.837  12.268  11.990  0.00  0.00    -0.259 N 
HETATM    8  O   UNK N   1      38.507  12.439  10.887  0.00  0.00    -0.241 OA
ATOM      9  HN  UNK N   1      38.238  12.252  12.928  1.00  0.00     0.195 HD
HETATM   10  C   UNK N   1      37.715  12.399   9.856  0.00  0.00     0.090 A 
HETATM   11  C   UNK N   1      38.172  12.623   8.451  0.00  0.00     0.080 C 
BRANCH   6  12
HETATM   12  C   UNK N   1      35.525  11.834  12.812  0.00  0.00     0.037 A 
HETATM   13  C   UNK N   1      35.449  12.740  13.927  0.00  0.00     0.048 A 
HETATM   14 Cl   UNK N   1      36.375  14.234  14.065  0.00  0.00    -0.083 Cl
HETATM   15  C   UNK N   1      34.590  12.487  14.997  0.00  0.00     0.025 A 
HETATM   16  C   UNK N   1      33.793  11.357  15.022  0.00  0.00     0.003 A 
HETATM   17  C   UNK N   1      33.843  10.463  13.969  0.00  0.00     0.025 A 
HETATM   18  C   UNK N   1      34.683  10.672  12.873  0.00  0.00     0.048 A 
HETATM   19 Cl   UNK N   1      34.653   9.374  11.719  0.00  0.00    -0.083 Cl
ENDBRANCH   6  12
ENDBRANCH   3   5
BRANCH   2  20
HETATM   20  C   UNK N   1      34.937  14.629   9.631  0.00  0.00     0.199 A 
HETATM   21  C   UNK N   1      33.778  15.760   9.559  0.00  0.00     0.160 A 
HETATM   22  S   UNK N   1      32.043  15.255   9.252  0.00  0.00    -0.135 SA
HETATM   23  N   UNK N   1      34.317  16.158   8.308  0.00  0.00    -0.219 NA
HETATM   24  C   UNK N   1      31.994  16.124   7.629  0.00  0.00     0.029 C 
HETATM   25  C   UNK N   1      33.437  16.251   7.182  0.00  0.00     0.182 C 
HETATM   26  C   UNK N   1      31.205  15.294   6.638  0.00  0.00     0.029 C 
HETATM   27  C   UNK N   1      31.369  17.498   7.789  0.00  0.00     0.029 C 
HETATM   28  C   UNK N   1      35.306  15.313   8.358  0.00  0.00     0.227 A 
HETATM   29  O   UNK N   1      35.933  14.881   7.404  0.00  0.00    -0.277 OA
BRANCH  25  30
HETATM   30  C   UNK N   1      33.932  16.637   5.820  0.00  0.00     0.160 C 
HETATM   31  O   UNK N   1      33.953  17.808   5.481  0.00  0.00    -0.649 OA
BRANCH  30  32
HETATM   32  O   UNK N   1      34.293  15.680   4.942  0.00  0.00    -0.775 OA
HETATM   33  H   UNK N   1      34.116  15.702   4.023  0.00  0.00     0.167 HD
ENDBRANCH  30  32
ENDBRANCH  25  30
ENDBRANCH   2  20
TORSDOF 5
ENDMDL
MODEL 8
REMARK VINA RESULT:      -6.8     14.088     15.757
REMARK  5 active torsions:
REMARK  status: ('A' for Active; 'I' for Inactive)
REMARK    1  A    between atoms: O_5  and  C_20 
REMARK    2  A    between atoms: C_16  and  N_10 
REMARK       I    between atoms: N_10  and  C_21 
REMARK    3  A    between atoms: C_15  and  C_20 
REMARK    4  A    between atoms: C_21  and  C_22 
REMARK    5  A    between atoms: C_23  and  C_25 
ROOT
HETATM    1  O   UNK N   1      29.095  24.253  -8.091  0.00  0.00    -0.267 OA
HETATM    2  N   UNK N   1      29.683  22.946  -6.384  0.00  0.00    -0.342 N 
HETATM    3  C   UNK N   1      28.744  23.505  -7.191  0.00  0.00     0.257 C 
HETATM    4  H   UNK N   1      30.584  23.340  -6.354  0.00  0.00     0.163 HD
ENDROOT
BRANCH   3   5
HETATM    5  C   UNK N   1      27.308  23.263  -6.969  0.00  0.00     0.092 A 
HETATM    6  C   UNK N   1      26.311  23.887  -6.187  0.00  0.00     0.086 A 
HETATM    7  N   UNK N   1      25.196  23.135  -6.313  0.00  0.00    -0.259 N 
HETATM    8  O   UNK N   1      25.447  22.127  -7.096  0.00  0.00    -0.241 OA
ATOM      9  HN  UNK N   1      24.299  23.327  -5.866  1.00  0.00     0.195 HD
HETATM   10  C   UNK N   1      26.678  22.163  -7.515  0.00  0.00     0.090 A 
HETATM   11  C   UNK N   1      27.290  21.111  -8.381  0.00  0.00     0.080 C 
BRANCH   6  12
HETATM   12  C   UNK N   1      26.270  25.176  -5.368  0.00  0.00     0.037 A 
HETATM   13  C   UNK N   1      25.978  26.417  -6.035  0.00  0.00     0.048 A 
HETATM   14 Cl   UNK N   1      25.562  26.561  -7.743  0.00  0.00    -0.083 Cl
HETATM   15  C   UNK N   1      25.990  27.625  -5.336  0.00  0.00     0.025 A 
HETATM   16  C   UNK N   1      26.289  27.667  -3.987  0.00  0.00     0.003 A 
HETATM   17  C   UNK N   1      26.579  26.494  -3.315  0.00  0.00     0.025 A 
HETATM   18  C   UNK N   1      26.575  25.259  -3.967  0.00  0.00     0.048 A 
HETATM   19 Cl   UNK N   1      27.062  23.937  -2.951  0.00  0.00    -0.083 Cl
ENDBRANCH   6  12
ENDBRANCH   3   5
BRANCH   2  20
HETATM   20  C   UNK N   1      29.394  21.781  -5.566  0.00  0.00     0.199 A 
HETATM   21  C   UNK N   1      30.445  21.555  -4.354  0.00  0.00     0.160 A 
HETATM   22  S   UNK N   1      31.665  22.865  -3.960  0.00  0.00    -0.135 SA
HETATM   23  N   UNK N   1      31.110  20.610  -5.178  0.00  0.00    -0.219 NA
HETATM   24  C   UNK N   1      33.086  21.798  -4.440  0.00  0.00     0.029 C 
HETATM   25  C   UNK N   1      32.521  20.751  -5.380  0.00  0.00     0.182 C 
HETATM   26  C   UNK N   1      34.129  22.637  -5.149  0.00  0.00     0.029 C 
HETATM   27  C   UNK N   1      33.683  21.135  -3.211  0.00  0.00     0.029 C 
HETATM   28  C   UNK N   1      30.248  20.708  -6.148  0.00  0.00     0.227 A 
HETATM   29  O   UNK N   1      30.450  20.432  -7.321  0.00  0.00    -0.277 OA
BRANCH  25  30
HETATM   30  C   UNK N   1      33.293  19.811  -6.259  0.00  0.00     0.160 C 
HETATM   31  O   UNK N   1      33.914  18.884  -5.771  0.00  0.00    -0.649 OA
BRANCH  30  32
HETATM   32  O   UNK N   1      33.354  20.034  -7.586  0.00  0.00    -0.775 OA
HETATM   33  H   UNK N   1      33.943  20.632  -8.003  0.00  0.00     0.167 HD
ENDBRANCH  30  32
ENDBRANCH  25  30
ENDBRANCH   2  20
TORSDOF 5
ENDMDL
MODEL 9
REMARK VINA RESULT:      -6.7     15.019     16.691
REMARK  5 active torsions:
REMARK  status: ('A' for Active; 'I' for Inactive)
REMARK    1  A    between atoms: O_5  and  C_20 
REMARK    2  A    between atoms: C_16  and  N_10 
REMARK       I    between atoms: N_10  and  C_21 
REMARK    3  A    between atoms: C_15  and  C_20 
REMARK    4  A    between atoms: C_21  and  C_22 
REMARK    5  A    between atoms: C_23  and  C_25 
ROOT
HETATM    1  O   UNK N   1      27.439  27.896  -7.242  0.00  0.00    -0.267 OA
HETATM    2  N   UNK N   1      27.588  25.794  -6.516  0.00  0.00    -0.342 N 
HETATM    3  C   UNK N   1      27.309  27.108  -6.317  0.00  0.00     0.257 C 
HETATM    4  H   UNK N   1      28.132  25.533  -7.293  0.00  0.00     0.163 HD
ENDROOT
BRANCH   3   5
HETATM    5  C   UNK N   1      26.899  27.607  -4.993  0.00  0.00     0.092 A 
HETATM    6  C   UNK N   1      27.594  28.022  -3.835  0.00  0.00     0.086 A 
HETATM    7  N   UNK N   1      26.658  28.269  -2.893  0.00  0.00    -0.259 N 
HETATM    8  O   UNK N   1      25.478  28.036  -3.390  0.00  0.00    -0.241 OA
ATOM      9  HN  UNK N   1      26.846  28.588  -1.942  1.00  0.00     0.195 HD
HETATM   10  C   UNK N   1      25.568  27.651  -4.629  0.00  0.00     0.090 A 
HETATM   11  C   UNK N   1      24.393  27.249  -5.459  0.00  0.00     0.080 C 
BRANCH   6  12
HETATM   12  C   UNK N   1      29.068  28.281  -3.530  0.00  0.00     0.037 A 
HETATM   13  C   UNK N   1      29.528  29.640  -3.415  0.00  0.00     0.048 A 
HETATM   14 Cl   UNK N   1      28.487  31.059  -3.509  0.00  0.00    -0.083 Cl
HETATM   15  C   UNK N   1      30.878  29.922  -3.197  0.00  0.00     0.025 A 
HETATM   16  C   UNK N   1      31.812  28.908  -3.091  0.00  0.00     0.003 A 
HETATM   17  C   UNK N   1      31.405  27.591  -3.201  0.00  0.00     0.025 A 
HETATM   18  C   UNK N   1      30.066  27.256  -3.414  0.00  0.00     0.048 A 
HETATM   19 Cl   UNK N   1      29.803  25.550  -3.615  0.00  0.00    -0.083 Cl
ENDBRANCH   6  12
ENDBRANCH   3   5
BRANCH   2  20
HETATM   20  C   UNK N   1      27.106  24.763  -5.613  0.00  0.00     0.199 A 
HETATM   21  C   UNK N   1      27.871  23.343  -5.771  0.00  0.00     0.160 A 
HETATM   22  S   UNK N   1      29.383  23.242  -6.803  0.00  0.00    -0.135 SA
HETATM   23  N   UNK N   1      26.790  22.912  -6.583  0.00  0.00    -0.219 NA
HETATM   24  C   UNK N   1      28.571  22.127  -8.023  0.00  0.00     0.029 C 
HETATM   25  C   UNK N   1      27.081  22.362  -7.874  0.00  0.00     0.182 C 
HETATM   26  C   UNK N   1      29.026  22.495  -9.421  0.00  0.00     0.029 C 
HETATM   27  C   UNK N   1      28.910  20.680  -7.717  0.00  0.00     0.029 C 
HETATM   28  C   UNK N   1      26.109  24.009  -6.424  0.00  0.00     0.227 A 
HETATM   29  O   UNK N   1      25.244  24.434  -7.174  0.00  0.00    -0.277 OA
BRANCH  25  30
HETATM   30  C   UNK N   1      25.995  21.908  -8.804  0.00  0.00     0.160 C 
HETATM   31  O   UNK N   1      25.602  20.755  -8.776  0.00  0.00    -0.649 OA
BRANCH  30  32
HETATM   32  O   UNK N   1      25.498  22.762  -9.720  0.00  0.00    -0.775 OA
HETATM   33  H   UNK N   1      25.202  22.519 -10.574  0.00  0.00     0.167 HD
ENDBRANCH  30  32
ENDBRANCH  25  30
ENDBRANCH   2  20
TORSDOF 5
ENDMDL
