REMARK  7 active torsions:
REMARK  status: ('A' for Active; 'I' for Inactive)
REMARK    1  A    between atoms: O_3  and  C_15 
REMARK    2  A    between atoms: C_16  and  C_17 
REMARK    3  A    between atoms: C_16  and  C_20 
REMARK    4  A    between atoms: C_20  and  C_23 
REMARK    5  A    between atoms: C_23  and  C_24 
REMARK    6  A    between atoms: C_24  and  C_25 
REMARK    7  A    between atoms: C_25  and  C_26 
ROOT
HETATM    1  O   UNK N   1       9.691  -2.159  -0.137  0.00  0.00    -0.340 OA
HETATM    2  O   UNK N   1      10.800   3.821   0.722  0.00  0.00    -0.298 OA
HETATM    3  C   UNK N   1      10.848  -0.093  -0.046  0.00  0.00     0.029 C 
HETATM    4  C   UNK N   1       9.578   0.634   0.492  0.00  0.00     0.038 C 
HETATM    5  C   UNK N   1      10.837  -1.572   0.372  0.00  0.00     0.065 C 
HETATM    6  C   UNK N   1      12.119   0.664   0.384  0.00  0.00     0.015 C 
HETATM    7  C   UNK N   1       9.535   2.026  -0.163  0.00  0.00     0.088 C 
HETATM    8  C   UNK N   1       8.328  -0.195   0.217  0.00  0.00     0.013 A 
HETATM    9  C   UNK N   1      12.112   2.082  -0.192  0.00  0.00     0.079 C 
HETATM   10  C   UNK N   1       8.468  -1.565  -0.111  0.00  0.00     0.079 A 
HETATM   11  C   UNK N   1      10.814   2.745   0.147  0.00  0.00     0.127 C 
HETATM   12  C   UNK N   1      10.872  -1.731   1.889  0.00  0.00     0.046 C 
HETATM   13  C   UNK N   1      12.037  -2.307  -0.203  0.00  0.00     0.046 C 
HETATM   14  C   UNK N   1       7.026   0.350   0.319  0.00  0.00     0.075 A 
HETATM   15  C   UNK N   1       6.053  -1.790  -0.339  0.00  0.00    -0.045 A 
HETATM   16  C   UNK N   1       7.345  -2.334  -0.399  0.00  0.00     0.045 A 
HETATM   17  C   UNK N   1       5.907  -0.445   0.039  0.00  0.00     0.045 A 
ENDROOT
BRANCH  15  18
HETATM   18  C   UNK N   1       4.838  -2.636  -0.704  0.00  0.00    -0.020 C 
HETATM   19  C   UNK N   1       5.244  -4.030  -1.169  0.00  0.00     0.020 C 
HETATM   20  C   UNK N   1       4.106  -1.993  -1.873  0.00  0.00     0.020 C 
BRANCH  18  21
HETATM   21  C   UNK N   1       3.895  -2.855   0.488  0.00  0.00     0.013 C 
BRANCH  21  22
HETATM   22  C   UNK N   1       3.121  -1.626   0.952  0.00  0.00     0.001 C 
BRANCH  22  23
HETATM   23  C   UNK N   1       1.634  -1.839   0.715  0.00  0.00     0.000 C 
BRANCH  23  24
HETATM   24  C   UNK N   1       1.273  -1.453  -0.710  0.00  0.00    -0.000 C 
BRANCH  24  25
HETATM   25  C   UNK N   1      -0.127  -1.918  -1.064  0.00  0.00    -0.005 C 
HETATM   26  C   UNK N   1      -1.160  -0.946  -0.530  0.00  0.00     0.005 C 
ENDBRANCH  24  25
ENDBRANCH  23  24
ENDBRANCH  22  23
ENDBRANCH  21  22
ENDBRANCH  18  21
ENDBRANCH  15  18
BRANCH  14  27
HETATM   27  O   UNK N   1       6.843   1.635   0.669  0.00  0.00    -0.360 OA
HETATM   28  H   UNK N   1       7.555   2.194   0.913  0.00  0.00     0.217 HD
ENDBRANCH  14  27
TORSDOF 7
