MODEL 1
REMARK VINA RESULT:      -6.7      0.000      0.000
REMARK  7 active torsions:
REMARK  status: ('A' for Active; 'I' for Inactive)
REMARK    1  A    between atoms: O_3  and  C_15 
REMARK    2  A    between atoms: C_16  and  C_17 
REMARK    3  A    between atoms: C_16  and  C_20 
REMARK    4  A    between atoms: C_20  and  C_23 
REMARK    5  A    between atoms: C_23  and  C_24 
REMARK    6  A    between atoms: C_24  and  C_25 
REMARK    7  A    between atoms: C_25  and  C_26 
ROOT
HETATM    1  O   UNK N   1      28.473  17.003   7.962  0.00  0.00    -0.340 OA
HETATM    2  O   UNK N   1      34.300  17.622   6.118  0.00  0.00    -0.298 OA
HETATM    3  C   UNK N   1      30.842  17.025   8.016  0.00  0.00     0.029 C 
HETATM    4  C   UNK N   1      30.906  17.509   6.536  0.00  0.00     0.038 C 
HETATM    5  C   UNK N   1      29.544  17.506   8.683  0.00  0.00     0.065 C 
HETATM    6  C   UNK N   1      32.119  17.443   8.770  0.00  0.00     0.015 C 
HETATM    7  C   UNK N   1      32.096  16.794   5.871  0.00  0.00     0.088 C 
HETATM    8  C   UNK N   1      29.581  17.248   5.828  0.00  0.00     0.013 A 
HETATM    9  C   UNK N   1      33.351  16.807   8.122  0.00  0.00     0.079 C 
HETATM   10  C   UNK N   1      28.426  16.982   6.603  0.00  0.00     0.079 A 
HETATM   11  C   UNK N   1      33.339  17.094   6.654  0.00  0.00     0.127 C 
HETATM   12  C   UNK N   1      29.465  19.028   8.734  0.00  0.00     0.046 C 
HETATM   13  C   UNK N   1      29.439  16.983  10.106  0.00  0.00     0.046 C 
HETATM   14  C   UNK N   1      29.455  17.304   4.420  0.00  0.00     0.075 A 
HETATM   15  C   UNK N   1      27.090  16.723   4.583  0.00  0.00    -0.045 A 
HETATM   16  C   UNK N   1      27.213  16.708   5.981  0.00  0.00     0.045 A 
HETATM   17  C   UNK N   1      28.221  17.040   3.812  0.00  0.00     0.045 A 
ENDROOT
BRANCH  15  18
HETATM   18  C   UNK N   1      25.763  16.374   3.918  0.00  0.00    -0.020 C 
HETATM   19  C   UNK N   1      25.141  15.123   4.529  0.00  0.00     0.020 C 
HETATM   20  C   UNK N   1      26.002  16.057   2.448  0.00  0.00     0.020 C 
BRANCH  18  21
HETATM   21  C   UNK N   1      24.714  17.482   4.083  0.00  0.00     0.013 C 
BRANCH  21  22
HETATM   22  C   UNK N   1      25.014  18.789   3.358  0.00  0.00     0.001 C 
BRANCH  22  23
HETATM   23  C   UNK N   1      25.412  19.854   4.368  0.00  0.00     0.000 C 
BRANCH  23  24
HETATM   24  C   UNK N   1      26.768  20.436   4.004  0.00  0.00    -0.000 C 
BRANCH  24  25
HETATM   25  C   UNK N   1      27.685  20.483   5.212  0.00  0.00    -0.005 C 
HETATM   26  C   UNK N   1      26.874  20.512   6.492  0.00  0.00     0.005 C 
ENDBRANCH  24  25
ENDBRANCH  23  24
ENDBRANCH  22  23
ENDBRANCH  21  22
ENDBRANCH  18  21
ENDBRANCH  15  18
BRANCH  14  27
HETATM   27  O   UNK N   1      30.515  17.596   3.645  0.00  0.00    -0.360 OA
HETATM   28  H   UNK N   1      30.864  18.463   3.579  0.00  0.00     0.217 HD
ENDBRANCH  14  27
TORSDOF 7
ENDMDL
MODEL 2
REMARK VINA RESULT:      -6.5      4.594      8.023
REMARK  7 active torsions:
REMARK  status: ('A' for Active; 'I' for Inactive)
REMARK    1  A    between atoms: O_3  and  C_15 
REMARK    2  A    between atoms: C_16  and  C_17 
REMARK    3  A    between atoms: C_16  and  C_20 
REMARK    4  A    between atoms: C_20  and  C_23 
REMARK    5  A    between atoms: C_23  and  C_24 
REMARK    6  A    between atoms: C_24  and  C_25 
REMARK    7  A    between atoms: C_25  and  C_26 
ROOT
HETATM    1  O   UNK N   1      25.811  16.478   5.052  0.00  0.00    -0.340 OA
HETATM    2  O   UNK N   1      23.139  21.627   3.035  0.00  0.00    -0.298 OA
HETATM    3  C   UNK N   1      25.436  18.459   3.808  0.00  0.00     0.029 C 
HETATM    4  C   UNK N   1      24.128  18.753   4.604  0.00  0.00     0.038 C 
HETATM    5  C   UNK N   1      26.423  17.661   4.674  0.00  0.00     0.065 C 
HETATM    6  C   UNK N   1      26.023  19.767   3.244  0.00  0.00     0.015 C 
HETATM    7  C   UNK N   1      23.106  19.331   3.609  0.00  0.00     0.088 C 
HETATM    8  C   UNK N   1      23.632  17.493   5.305  0.00  0.00     0.013 A 
HETATM    9  C   UNK N   1      25.028  20.424   2.284  0.00  0.00     0.079 C 
HETATM   10  C   UNK N   1      24.518  16.401   5.468  0.00  0.00     0.079 A 
HETATM   11  C   UNK N   1      23.698  20.546   2.960  0.00  0.00     0.127 C 
HETATM   12  C   UNK N   1      26.850  18.443   5.912  0.00  0.00     0.046 C 
HETATM   13  C   UNK N   1      27.675  17.311   3.887  0.00  0.00     0.046 C 
HETATM   14  C   UNK N   1      22.325  17.392   5.838  0.00  0.00     0.075 A 
HETATM   15  C   UNK N   1      22.772  15.107   6.569  0.00  0.00    -0.045 A 
HETATM   16  C   UNK N   1      24.080  15.228   6.074  0.00  0.00     0.045 A 
HETATM   17  C   UNK N   1      21.907  16.208   6.458  0.00  0.00     0.045 A 
ENDROOT
BRANCH  15  18
HETATM   18  C   UNK N   1      22.296  13.797   7.188  0.00  0.00    -0.020 C 
HETATM   19  C   UNK N   1      22.737  12.593   6.363  0.00  0.00     0.020 C 
HETATM   20  C   UNK N   1      20.775  13.769   7.204  0.00  0.00     0.020 C 
BRANCH  18  21
HETATM   21  C   UNK N   1      22.870  13.569   8.594  0.00  0.00     0.013 C 
BRANCH  21  22
HETATM   22  C   UNK N   1      21.895  13.778   9.747  0.00  0.00     0.001 C 
BRANCH  22  23
HETATM   23  C   UNK N   1      21.737  12.480  10.524  0.00  0.00     0.000 C 
BRANCH  23  24
HETATM   24  C   UNK N   1      23.011  11.657  10.429  0.00  0.00    -0.000 C 
BRANCH  24  25
HETATM   25  C   UNK N   1      23.923  11.923  11.613  0.00  0.00    -0.005 C 
HETATM   26  C   UNK N   1      23.137  11.877  12.908  0.00  0.00     0.005 C 
ENDBRANCH  24  25
ENDBRANCH  23  24
ENDBRANCH  22  23
ENDBRANCH  21  22
ENDBRANCH  18  21
ENDBRANCH  15  18
BRANCH  14  27
HETATM   27  O   UNK N   1      21.463  18.420   5.745  0.00  0.00    -0.360 OA
HETATM   28  H   UNK N   1      20.860  18.631   6.430  0.00  0.00     0.217 HD
ENDBRANCH  14  27
TORSDOF 7
ENDMDL
MODEL 3
REMARK VINA RESULT:      -6.4      6.112     10.950
REMARK  7 active torsions:
REMARK  status: ('A' for Active; 'I' for Inactive)
REMARK    1  A    between atoms: O_3  and  C_15 
REMARK    2  A    between atoms: C_16  and  C_17 
REMARK    3  A    between atoms: C_16  and  C_20 
REMARK    4  A    between atoms: C_20  and  C_23 
REMARK    5  A    between atoms: C_23  and  C_24 
REMARK    6  A    between atoms: C_24  and  C_25 
REMARK    7  A    between atoms: C_25  and  C_26 
ROOT
HETATM    1  O   UNK N   1      34.590  13.174   7.834  0.00  0.00    -0.340 OA
HETATM    2  O   UNK N   1      35.017  19.276   8.393  0.00  0.00    -0.298 OA
HETATM    3  C   UNK N   1      34.156  15.481   7.514  0.00  0.00     0.029 C 
HETATM    4  C   UNK N   1      35.315  15.869   8.483  0.00  0.00     0.038 C 
HETATM    5  C   UNK N   1      34.448  14.130   6.843  0.00  0.00     0.065 C 
HETATM    6  C   UNK N   1      33.888  16.625   6.517  0.00  0.00     0.015 C 
HETATM    7  C   UNK N   1      34.846  17.091   9.291  0.00  0.00     0.088 C 
HETATM    8  C   UNK N   1      35.699  14.683   9.361  0.00  0.00     0.013 A 
HETATM    9  C   UNK N   1      33.469  17.893   7.265  0.00  0.00     0.079 C 
HETATM   10  C   UNK N   1      35.283  13.383   8.985  0.00  0.00     0.079 A 
HETATM   11  C   UNK N   1      34.471  18.186   8.337  0.00  0.00     0.127 C 
HETATM   12  C   UNK N   1      35.710  14.184   5.988  0.00  0.00     0.046 C 
HETATM   13  C   UNK N   1      33.294  13.709   5.946  0.00  0.00     0.046 C 
HETATM   14  C   UNK N   1      36.496  14.833  10.521  0.00  0.00     0.075 A 
HETATM   15  C   UNK N   1      36.349  12.436  10.961  0.00  0.00    -0.045 A 
HETATM   16  C   UNK N   1      35.593  12.290   9.787  0.00  0.00     0.045 A 
HETATM   17  C   UNK N   1      36.809  13.717  11.308  0.00  0.00     0.045 A 
ENDROOT
BRANCH  15  18
HETATM   18  C   UNK N   1      36.638  11.233  11.852  0.00  0.00    -0.020 C 
HETATM   19  C   UNK N   1      37.354  10.126  11.085  0.00  0.00     0.020 C 
HETATM   20  C   UNK N   1      35.325  10.635  12.337  0.00  0.00     0.020 C 
BRANCH  18  21
HETATM   21  C   UNK N   1      37.557  11.582  13.031  0.00  0.00     0.013 C 
BRANCH  21  22
HETATM   22  C   UNK N   1      37.000  11.275  14.416  0.00  0.00     0.001 C 
BRANCH  22  23
HETATM   23  C   UNK N   1      36.868  12.564  15.212  0.00  0.00     0.000 C 
BRANCH  23  24
HETATM   24  C   UNK N   1      35.534  13.226  14.912  0.00  0.00    -0.000 C 
BRANCH  24  25
HETATM   25  C   UNK N   1      34.546  13.000  16.042  0.00  0.00    -0.005 C 
HETATM   26  C   UNK N   1      35.161  13.390  17.371  0.00  0.00     0.005 C 
ENDBRANCH  24  25
ENDBRANCH  23  24
ENDBRANCH  22  23
ENDBRANCH  21  22
ENDBRANCH  18  21
ENDBRANCH  15  18
BRANCH  14  27
HETATM   27  O   UNK N   1      36.950  16.042  10.893  0.00  0.00    -0.360 OA
HETATM   28  H   UNK N   1      37.010  16.761  10.294  0.00  0.00     0.217 HD
ENDBRANCH  14  27
TORSDOF 7
ENDMDL
MODEL 4
REMARK VINA RESULT:      -6.1      2.044      6.828
REMARK  7 active torsions:
REMARK  status: ('A' for Active; 'I' for Inactive)
REMARK    1  A    between atoms: O_3  and  C_15 
REMARK    2  A    between atoms: C_16  and  C_17 
REMARK    3  A    between atoms: C_16  and  C_20 
REMARK    4  A    between atoms: C_20  and  C_23 
REMARK    5  A    between atoms: C_23  and  C_24 
REMARK    6  A    between atoms: C_24  and  C_25 
REMARK    7  A    between atoms: C_25  and  C_26 
ROOT
HETATM    1  O   UNK N   1      27.436  19.230   3.810  0.00  0.00    -0.340 OA
HETATM    2  O   UNK N   1      22.345  16.345   5.677  0.00  0.00    -0.298 OA
HETATM    3  C   UNK N   1      25.159  18.590   3.958  0.00  0.00     0.029 C 
HETATM    4  C   UNK N   1      25.473  17.621   5.139  0.00  0.00     0.038 C 
HETATM    5  C   UNK N   1      26.162  19.755   3.940  0.00  0.00     0.065 C 
HETATM    6  C   UNK N   1      23.687  19.039   4.013  0.00  0.00     0.015 C 
HETATM    7  C   UNK N   1      24.598  16.369   4.949  0.00  0.00     0.088 C 
HETATM    8  C   UNK N   1      26.964  17.305   5.192  0.00  0.00     0.013 A 
HETATM    9  C   UNK N   1      22.758  17.828   3.885  0.00  0.00     0.079 C 
HETATM   10  C   UNK N   1      27.870  18.134   4.488  0.00  0.00     0.079 A 
HETATM   11  C   UNK N   1      23.160  16.791   4.886  0.00  0.00     0.127 C 
HETATM   12  C   UNK N   1      26.074  20.596   5.210  0.00  0.00     0.046 C 
HETATM   13  C   UNK N   1      25.907  20.671   2.754  0.00  0.00     0.046 C 
HETATM   14  C   UNK N   1      27.479  16.231   5.956  0.00  0.00     0.075 A 
HETATM   15  C   UNK N   1      29.745  16.760   5.217  0.00  0.00    -0.045 A 
HETATM   16  C   UNK N   1      29.231  17.847   4.494  0.00  0.00     0.045 A 
HETATM   17  C   UNK N   1      28.855  15.967   5.960  0.00  0.00     0.045 A 
ENDROOT
BRANCH  15  18
HETATM   18  C   UNK N   1      31.234  16.433   5.173  0.00  0.00    -0.020 C 
HETATM   19  C   UNK N   1      32.028  17.528   4.469  0.00  0.00     0.020 C 
HETATM   20  C   UNK N   1      31.449  15.163   4.364  0.00  0.00     0.020 C 
BRANCH  18  21
HETATM   21  C   UNK N   1      31.850  16.310   6.574  0.00  0.00     0.013 C 
BRANCH  21  22
HETATM   22  C   UNK N   1      32.666  17.508   7.044  0.00  0.00     0.001 C 
BRANCH  22  23
HETATM   23  C   UNK N   1      32.207  17.926   8.433  0.00  0.00     0.000 C 
BRANCH  23  24
HETATM   24  C   UNK N   1      30.799  17.416   8.691  0.00  0.00    -0.000 C 
BRANCH  24  25
HETATM   25  C   UNK N   1      29.800  18.558   8.716  0.00  0.00    -0.005 C 
HETATM   26  C   UNK N   1      28.421  18.049   9.086  0.00  0.00     0.005 C 
ENDBRANCH  24  25
ENDBRANCH  23  24
ENDBRANCH  22  23
ENDBRANCH  21  22
ENDBRANCH  18  21
ENDBRANCH  15  18
BRANCH  14  27
HETATM   27  O   UNK N   1      26.661  15.442   6.674  0.00  0.00    -0.360 OA
HETATM   28  H   UNK N   1      25.730  15.457   6.567  0.00  0.00     0.217 HD
ENDBRANCH  14  27
TORSDOF 7
ENDMDL
MODEL 5
REMARK VINA RESULT:      -6.1      2.027      6.609
REMARK  7 active torsions:
REMARK  status: ('A' for Active; 'I' for Inactive)
REMARK    1  A    between atoms: O_3  and  C_15 
REMARK    2  A    between atoms: C_16  and  C_17 
REMARK    3  A    between atoms: C_16  and  C_20 
REMARK    4  A    between atoms: C_20  and  C_23 
REMARK    5  A    between atoms: C_23  and  C_24 
REMARK    6  A    between atoms: C_24  and  C_25 
REMARK    7  A    between atoms: C_25  and  C_26 
ROOT
HETATM    1  O   UNK N   1      26.631  14.988   5.007  0.00  0.00    -0.340 OA
HETATM    2  O   UNK N   1      23.909  20.194   3.212  0.00  0.00    -0.298 OA
HETATM    3  C   UNK N   1      24.932  16.563   4.509  0.00  0.00     0.029 C 
HETATM    4  C   UNK N   1      25.987  17.596   4.010  0.00  0.00     0.038 C 
HETATM    5  C   UNK N   1      25.446  15.129   4.305  0.00  0.00     0.065 C 
HETATM    6  C   UNK N   1      23.566  16.832   3.848  0.00  0.00     0.015 C 
HETATM    7  C   UNK N   1      25.516  18.989   4.465  0.00  0.00     0.088 C 
HETATM    8  C   UNK N   1      27.376  17.236   4.526  0.00  0.00     0.013 A 
HETATM    9  C   UNK N   1      23.065  18.230   4.219  0.00  0.00     0.079 C 
HETATM   10  C   UNK N   1      27.609  15.932   5.026  0.00  0.00     0.079 A 
HETATM   11  C   UNK N   1      24.138  19.232   3.927  0.00  0.00     0.127 C 
HETATM   12  C   UNK N   1      25.676  14.816   2.830  0.00  0.00     0.046 C 
HETATM   13  C   UNK N   1      24.454  14.114   4.849  0.00  0.00     0.046 C 
HETATM   14  C   UNK N   1      28.455  18.152   4.485  0.00  0.00     0.075 A 
HETATM   15  C   UNK N   1      29.922  16.506   5.533  0.00  0.00    -0.045 A 
HETATM   16  C   UNK N   1      28.859  15.590   5.533  0.00  0.00     0.045 A 
HETATM   17  C   UNK N   1      29.709  17.783   4.988  0.00  0.00     0.045 A 
ENDROOT
BRANCH  15  18
HETATM   18  C   UNK N   1      31.271  16.128   6.136  0.00  0.00    -0.020 C 
HETATM   19  C   UNK N   1      32.390  17.020   5.611  0.00  0.00     0.020 C 
HETATM   20  C   UNK N   1      31.629  14.707   5.725  0.00  0.00     0.020 C 
BRANCH  18  21
HETATM   21  C   UNK N   1      31.296  16.287   7.663  0.00  0.00     0.013 C 
BRANCH  21  22
HETATM   22  C   UNK N   1      31.757  17.646   8.179  0.00  0.00     0.001 C 
BRANCH  22  23
HETATM   23  C   UNK N   1      30.600  18.349   8.872  0.00  0.00     0.000 C 
BRANCH  23  24
HETATM   24  C   UNK N   1      29.527  17.340   9.247  0.00  0.00    -0.000 C 
BRANCH  24  25
HETATM   25  C   UNK N   1      28.143  17.958   9.167  0.00  0.00    -0.005 C 
HETATM   26  C   UNK N   1      28.060  18.921   8.000  0.00  0.00     0.005 C 
ENDBRANCH  24  25
ENDBRANCH  23  24
ENDBRANCH  22  23
ENDBRANCH  21  22
ENDBRANCH  18  21
ENDBRANCH  15  18
BRANCH  14  27
HETATM   27  O   UNK N   1      28.291  19.387   3.980  0.00  0.00    -0.360 OA
HETATM   28  H   UNK N   1      28.956  20.045   4.040  0.00  0.00     0.217 HD
ENDBRANCH  14  27
TORSDOF 7
ENDMDL
MODEL 6
REMARK VINA RESULT:      -6.0     13.621     17.406
REMARK  7 active torsions:
REMARK  status: ('A' for Active; 'I' for Inactive)
REMARK    1  A    between atoms: O_3  and  C_15 
REMARK    2  A    between atoms: C_16  and  C_17 
REMARK    3  A    between atoms: C_16  and  C_20 
REMARK    4  A    between atoms: C_20  and  C_23 
REMARK    5  A    between atoms: C_23  and  C_24 
REMARK    6  A    between atoms: C_24  and  C_25 
REMARK    7  A    between atoms: C_25  and  C_26 
ROOT
HETATM    1  O   UNK N   1      35.083   8.791  16.866  0.00  0.00    -0.340 OA
HETATM    2  O   UNK N   1      35.814  14.627  18.635  0.00  0.00    -0.298 OA
HETATM    3  C   UNK N   1      35.107  11.159  16.796  0.00  0.00     0.029 C 
HETATM    4  C   UNK N   1      35.672  11.231  18.247  0.00  0.00     0.038 C 
HETATM    5  C   UNK N   1      35.548   9.855  16.112  0.00  0.00     0.065 C 
HETATM    6  C   UNK N   1      35.486  12.430  16.011  0.00  0.00     0.015 C 
HETATM    7  C   UNK N   1      34.996  12.426  18.943  0.00  0.00     0.088 C 
HETATM    8  C   UNK N   1      35.448   9.911  18.976  0.00  0.00     0.013 A 
HETATM    9  C   UNK N   1      34.888  13.667  16.686  0.00  0.00     0.079 C 
HETATM   10  C   UNK N   1      35.137   8.752  18.224  0.00  0.00     0.079 A 
HETATM   11  C   UNK N   1      35.256  13.664  18.136  0.00  0.00     0.127 C 
HETATM   12  C   UNK N   1      37.065   9.773  15.977  0.00  0.00     0.046 C 
HETATM   13  C   UNK N   1      34.948   9.743  14.720  0.00  0.00     0.046 C 
HETATM   14  C   UNK N   1      35.581   9.794  20.380  0.00  0.00     0.075 A 
HETATM   15  C   UNK N   1      34.986   7.429  20.264  0.00  0.00    -0.045 A 
HETATM   16  C   UNK N   1      34.895   7.543  18.869  0.00  0.00     0.045 A 
HETATM   17  C   UNK N   1      35.347   8.564  21.009  0.00  0.00     0.045 A 
ENDROOT
BRANCH  15  18
HETATM   18  C   UNK N   1      34.672   6.108  20.956  0.00  0.00    -0.020 C 
HETATM   19  C   UNK N   1      34.129   6.326  22.364  0.00  0.00     0.020 C 
HETATM   20  C   UNK N   1      35.952   5.301  21.113  0.00  0.00     0.020 C 
BRANCH  18  21
HETATM   21  C   UNK N   1      33.595   5.300  20.218  0.00  0.00     0.013 C 
BRANCH  21  22
HETATM   22  C   UNK N   1      32.156   5.574  20.643  0.00  0.00     0.001 C 
BRANCH  22  23
HETATM   23  C   UNK N   1      31.423   6.302  19.527  0.00  0.00     0.000 C 
BRANCH  23  24
HETATM   24  C   UNK N   1      30.700   7.517  20.084  0.00  0.00    -0.000 C 
BRANCH  24  25
HETATM   25  C   UNK N   1      31.574   8.755  20.010  0.00  0.00    -0.005 C 
HETATM   26  C   UNK N   1      31.889   9.266  21.402  0.00  0.00     0.005 C 
ENDBRANCH  24  25
ENDBRANCH  23  24
ENDBRANCH  22  23
ENDBRANCH  21  22
ENDBRANCH  18  21
ENDBRANCH  15  18
BRANCH  14  27
HETATM   27  O   UNK N   1      35.916  10.858  21.130  0.00  0.00    -0.360 OA
HETATM   28  H   UNK N   1      35.340  11.588  21.250  0.00  0.00     0.217 HD
ENDBRANCH  14  27
TORSDOF 7
ENDMDL
MODEL 7
REMARK VINA RESULT:      -5.8     11.777     14.180
REMARK  7 active torsions:
REMARK  status: ('A' for Active; 'I' for Inactive)
REMARK    1  A    between atoms: O_3  and  C_15 
REMARK    2  A    between atoms: C_16  and  C_17 
REMARK    3  A    between atoms: C_16  and  C_20 
REMARK    4  A    between atoms: C_20  and  C_23 
REMARK    5  A    between atoms: C_23  and  C_24 
REMARK    6  A    between atoms: C_24  and  C_25 
REMARK    7  A    between atoms: C_25  and  C_26 
ROOT
HETATM    1  O   UNK N   1      27.962  23.832  -7.747  0.00  0.00    -0.340 OA
HETATM    2  O   UNK N   1      31.213  20.250  -3.961  0.00  0.00    -0.298 OA
HETATM    3  C   UNK N   1      29.565  22.261  -6.987  0.00  0.00     0.029 C 
HETATM    4  C   UNK N   1      29.047  22.389  -5.522  0.00  0.00     0.038 C 
HETATM    5  C   UNK N   1      28.432  22.551  -7.984  0.00  0.00     0.065 C 
HETATM    6  C   UNK N   1      30.241  20.892  -7.196  0.00  0.00     0.015 C 
HETATM    7  C   UNK N   1      30.274  22.329  -4.595  0.00  0.00     0.088 C 
HETATM    8  C   UNK N   1      28.231  23.666  -5.351  0.00  0.00     0.013 A 
HETATM    9  C   UNK N   1      31.442  20.745  -6.260  0.00  0.00     0.079 C 
HETATM   10  C   UNK N   1      27.749  24.335  -6.502  0.00  0.00     0.079 A 
HETATM   11  C   UNK N   1      31.016  21.053  -4.859  0.00  0.00     0.127 C 
HETATM   12  C   UNK N   1      27.291  21.546  -7.851  0.00  0.00     0.046 C 
HETATM   13  C   UNK N   1      28.941  22.494  -9.415  0.00  0.00     0.046 C 
HETATM   14  C   UNK N   1      27.903  24.185  -4.076  0.00  0.00     0.075 A 
HETATM   15  C   UNK N   1      26.737  26.062  -5.113  0.00  0.00    -0.045 A 
HETATM   16  C   UNK N   1      27.031  25.520  -6.373  0.00  0.00     0.045 A 
HETATM   17  C   UNK N   1      27.167  25.372  -3.968  0.00  0.00     0.045 A 
ENDROOT
BRANCH  15  18
HETATM   18  C   UNK N   1      25.990  27.386  -4.994  0.00  0.00    -0.020 C 
HETATM   19  C   UNK N   1      25.740  27.760  -3.537  0.00  0.00     0.020 C 
HETATM   20  C   UNK N   1      24.618  27.253  -5.641  0.00  0.00     0.020 C 
BRANCH  18  21
HETATM   21  C   UNK N   1      26.775  28.560  -5.595  0.00  0.00     0.013 C 
BRANCH  21  22
HETATM   22  C   UNK N   1      27.591  29.385  -4.606  0.00  0.00     0.001 C 
BRANCH  22  23
HETATM   23  C   UNK N   1      29.067  29.050  -4.756  0.00  0.00     0.000 C 
BRANCH  23  24
HETATM   24  C   UNK N   1      29.590  28.415  -3.478  0.00  0.00    -0.000 C 
BRANCH  24  25
HETATM   25  C   UNK N   1      30.247  27.077  -3.762  0.00  0.00    -0.005 C 
HETATM   26  C   UNK N   1      30.396  26.866  -5.255  0.00  0.00     0.005 C 
ENDBRANCH  24  25
ENDBRANCH  23  24
ENDBRANCH  22  23
ENDBRANCH  21  22
ENDBRANCH  18  21
ENDBRANCH  15  18
BRANCH  14  27
HETATM   27  O   UNK N   1      28.303  23.560  -2.955  0.00  0.00    -0.360 OA
HETATM   28  H   UNK N   1      29.193  23.579  -2.661  0.00  0.00     0.217 HD
ENDBRANCH  14  27
TORSDOF 7
ENDMDL
MODEL 8
REMARK VINA RESULT:      -5.8     11.878     14.410
REMARK  7 active torsions:
REMARK  status: ('A' for Active; 'I' for Inactive)
REMARK    1  A    between atoms: O_3  and  C_15 
REMARK    2  A    between atoms: C_16  and  C_17 
REMARK    3  A    between atoms: C_16  and  C_20 
REMARK    4  A    between atoms: C_20  and  C_23 
REMARK    5  A    between atoms: C_23  and  C_24 
REMARK    6  A    between atoms: C_24  and  C_25 
REMARK    7  A    between atoms: C_25  and  C_26 
ROOT
HETATM    1  O   UNK N   1      28.416  24.370  -7.532  0.00  0.00    -0.340 OA
HETATM    2  O   UNK N   1      31.187  20.288  -3.872  0.00  0.00    -0.298 OA
HETATM    3  C   UNK N   1      29.530  22.403  -6.821  0.00  0.00     0.029 C 
HETATM    4  C   UNK N   1      29.533  22.898  -5.342  0.00  0.00     0.038 C 
HETATM    5  C   UNK N   1      28.329  22.989  -7.580  0.00  0.00     0.065 C 
HETATM    6  C   UNK N   1      29.605  20.865  -6.870  0.00  0.00     0.015 C 
HETATM    7  C   UNK N   1      30.877  22.477  -4.722  0.00  0.00     0.088 C 
HETATM    8  C   UNK N   1      29.290  24.402  -5.279  0.00  0.00     0.013 A 
HETATM    9  C   UNK N   1      30.899  20.376  -6.215  0.00  0.00     0.079 C 
HETATM   10  C   UNK N   1      28.757  25.062  -6.412  0.00  0.00     0.079 A 
HETATM   11  C   UNK N   1      31.027  20.991  -4.857  0.00  0.00     0.127 C 
HETATM   12  C   UNK N   1      27.003  22.531  -6.980  0.00  0.00     0.046 C 
HETATM   13  C   UNK N   1      28.352  22.567  -9.040  0.00  0.00     0.046 C 
HETATM   14  C   UNK N   1      29.542  25.156  -4.109  0.00  0.00     0.075 A 
HETATM   15  C   UNK N   1      28.843  27.200  -5.246  0.00  0.00    -0.045 A 
HETATM   16  C   UNK N   1      28.558  26.439  -6.390  0.00  0.00     0.045 A 
HETATM   17  C   UNK N   1      29.322  26.539  -4.103  0.00  0.00     0.045 A 
ENDROOT
BRANCH  15  18
HETATM   18  C   UNK N   1      28.663  28.714  -5.258  0.00  0.00    -0.020 C 
HETATM   19  C   UNK N   1      29.279  29.343  -6.502  0.00  0.00     0.020 C 
HETATM   20  C   UNK N   1      29.393  29.319  -4.068  0.00  0.00     0.020 C 
BRANCH  18  21
HETATM   21  C   UNK N   1      27.185  29.129  -5.272  0.00  0.00     0.013 C 
BRANCH  21  22
HETATM   22  C   UNK N   1      26.453  29.009  -3.940  0.00  0.00     0.001 C 
BRANCH  22  23
HETATM   23  C   UNK N   1      25.621  27.736  -3.927  0.00  0.00     0.000 C 
BRANCH  23  24
HETATM   24  C   UNK N   1      25.020  27.492  -5.301  0.00  0.00    -0.000 C 
BRANCH  24  25
HETATM   25  C   UNK N   1      25.081  26.023  -5.672  0.00  0.00    -0.005 C 
HETATM   26  C   UNK N   1      25.696  25.216  -4.545  0.00  0.00     0.005 C 
ENDBRANCH  24  25
ENDBRANCH  23  24
ENDBRANCH  22  23
ENDBRANCH  21  22
ENDBRANCH  18  21
ENDBRANCH  15  18
BRANCH  14  27
HETATM   27  O   UNK N   1      30.009  24.564  -2.995  0.00  0.00    -0.360 OA
HETATM   28  H   UNK N   1      30.670  24.957  -2.459  0.00  0.00     0.217 HD
ENDBRANCH  14  27
TORSDOF 7
ENDMDL
MODEL 9
REMARK VINA RESULT:      -5.8      4.793      8.055
REMARK  7 active torsions:
REMARK  status: ('A' for Active; 'I' for Inactive)
REMARK    1  A    between atoms: O_3  and  C_15 
REMARK    2  A    between atoms: C_16  and  C_17 
REMARK    3  A    between atoms: C_16  and  C_20 
REMARK    4  A    between atoms: C_20  and  C_23 
REMARK    5  A    between atoms: C_23  and  C_24 
REMARK    6  A    between atoms: C_24  and  C_25 
REMARK    7  A    between atoms: C_25  and  C_26 
ROOT
HETATM    1  O   UNK N   1      36.626  12.976   8.870  0.00  0.00    -0.340 OA
HETATM    2  O   UNK N   1      34.897  13.324  14.754  0.00  0.00    -0.298 OA
HETATM    3  C   UNK N   1      36.705  12.824  11.234  0.00  0.00     0.029 C 
HETATM    4  C   UNK N   1      35.229  13.314  11.349  0.00  0.00     0.038 C 
HETATM    5  C   UNK N   1      36.926  12.098   9.897  0.00  0.00     0.065 C 
HETATM    6  C   UNK N   1      37.087  11.984  12.467  0.00  0.00     0.015 C 
HETATM    7  C   UNK N   1      35.146  14.232  12.582  0.00  0.00     0.088 C 
HETATM    8  C   UNK N   1      34.790  14.001  10.061  0.00  0.00     0.013 A 
HETATM    9  C   UNK N   1      36.971  12.827  13.740  0.00  0.00     0.079 C 
HETATM   10  C   UNK N   1      35.547  13.804   8.881  0.00  0.00     0.079 A 
HETATM   11  C   UNK N   1      35.621  13.470  13.783  0.00  0.00     0.127 C 
HETATM   12  C   UNK N   1      36.058  10.848   9.782  0.00  0.00     0.046 C 
HETATM   13  C   UNK N   1      38.378  11.674   9.744  0.00  0.00     0.046 C 
HETATM   14  C   UNK N   1      33.624  14.800   9.994  0.00  0.00     0.075 A 
HETATM   15  C   UNK N   1      34.053  15.273   7.638  0.00  0.00    -0.045 A 
HETATM   16  C   UNK N   1      35.186  14.447   7.702  0.00  0.00     0.045 A 
HETATM   17  C   UNK N   1      33.269  15.428   8.793  0.00  0.00     0.045 A 
ENDROOT
BRANCH  15  18
HETATM   18  C   UNK N   1      33.700  16.006   6.349  0.00  0.00    -0.020 C 
HETATM   19  C   UNK N   1      34.639  15.623   5.210  0.00  0.00     0.020 C 
HETATM   20  C   UNK N   1      33.870  17.504   6.556  0.00  0.00     0.020 C 
BRANCH  18  21
HETATM   21  C   UNK N   1      32.286  15.672   5.851  0.00  0.00     0.013 C 
BRANCH  21  22
HETATM   22  C   UNK N   1      31.400  16.870   5.527  0.00  0.00     0.001 C 
BRANCH  22  23
HETATM   23  C   UNK N   1      29.977  16.592   5.987  0.00  0.00     0.000 C 
BRANCH  23  24
HETATM   24  C   UNK N   1      29.548  17.630   7.010  0.00  0.00    -0.000 C 
BRANCH  24  25
HETATM   25  C   UNK N   1      30.154  17.339   8.370  0.00  0.00    -0.005 C 
HETATM   26  C   UNK N   1      30.317  18.621   9.164  0.00  0.00     0.005 C 
ENDBRANCH  24  25
ENDBRANCH  23  24
ENDBRANCH  22  23
ENDBRANCH  21  22
ENDBRANCH  18  21
ENDBRANCH  15  18
BRANCH  14  27
HETATM   27  O   UNK N   1      32.850  14.981  11.079  0.00  0.00    -0.360 OA
HETATM   28  H   UNK N   1      33.050  15.620  11.736  0.00  0.00     0.217 HD
ENDBRANCH  14  27
TORSDOF 7
ENDMDL
