MODEL 1
REMARK VINA RESULT:      -7.5      0.000      0.000
REMARK  4 active torsions:
REMARK  status: ('A' for Active; 'I' for Inactive)
REMARK    1  A    between atoms: O_3  and  C_24 
REMARK    2  A    between atoms: N_5  and  C_12 
REMARK    3  A    between atoms: N_7  and  C_19 
REMARK    4  A    between atoms: C_22  and  C_24 
ROOT
HETATM    1  F   UNK N   1      31.189  16.692   2.273  0.00  0.00    -0.204 F 
HETATM    2  O   UNK N   1      34.438  17.705   5.914  0.00  0.00    -0.286 OA
HETATM    3  N   UNK N   1      30.884  17.410   7.763  0.00  0.00    -0.355 N 
HETATM    4  C   UNK N   1      29.843  16.728   4.287  0.00  0.00     0.071 A 
HETATM    5  C   UNK N   1      30.959  17.236   6.407  0.00  0.00     0.051 A 
HETATM    6  C   UNK N   1      29.813  16.932   5.671  0.00  0.00     0.063 A 
HETATM    7  C   UNK N   1      31.084  16.865   3.614  0.00  0.00     0.143 A 
HETATM    8  C   UNK N   1      32.196  17.344   5.735  0.00  0.00     0.045 A 
HETATM    9  C   UNK N   1      32.243  17.168   4.342  0.00  0.00     0.062 A 
HETATM   10  C   UNK N   1      33.357  17.618   6.478  0.00  0.00     0.202 A 
HETATM   11  C   UNK N   1      32.009  17.677   8.485  0.00  0.00     0.113 A 
HETATM   12  C   UNK N   1      33.264  17.782   7.877  0.00  0.00     0.104 A 
ENDROOT
BRANCH   4  13
HETATM   13  N   UNK N   1      28.624  16.359   3.624  0.00  0.00    -0.375 N 
HETATM   14  C   UNK N   1      28.662  15.229   2.703  0.00  0.00     0.153 C 
HETATM   15  C   UNK N   1      27.291  14.594   2.551  0.00  0.00     0.291 C 
HETATM   16  N   UNK N   1      26.341  15.622   2.161  0.00  0.00     0.087 N 
HETATM   17  C   UNK N   1      26.185  16.525   3.297  0.00  0.00     0.291 C 
HETATM   18  C   UNK N   1      25.068  14.964   1.936  0.00  0.00     0.310 C 
HETATM   19  C   UNK N   1      27.496  17.275   3.557  0.00  0.00     0.153 C 
ENDBRANCH   4  13
BRANCH   3  20
HETATM   20  C   UNK N   1      29.577  17.295   8.437  0.00  0.00     0.124 C 
HETATM   21  C   UNK N   1      29.294  18.393   9.456  0.00  0.00     0.027 C 
ENDBRANCH   3  20
BRANCH  12  22
HETATM   22  C   UNK N   1      34.440  18.056   8.741  0.00  0.00     0.181 C 
HETATM   23  O   UNK N   1      34.689  17.348   9.705  0.00  0.00    -0.646 OA
BRANCH  22  24
HETATM   24  O   UNK N   1      35.243  19.104   8.469  0.00  0.00    -0.772 OA
HETATM   25  H   UNK N   1      35.498  19.282   7.585  0.00  0.00     0.167 HD
ENDBRANCH  22  24
ENDBRANCH  12  22
TORSDOF 4
ENDMDL
MODEL 2
REMARK VINA RESULT:      -7.4      5.628      8.626
REMARK  4 active torsions:
REMARK  status: ('A' for Active; 'I' for Inactive)
REMARK    1  A    between atoms: O_3  and  C_24 
REMARK    2  A    between atoms: N_5  and  C_12 
REMARK    3  A    between atoms: N_7  and  C_19 
REMARK    4  A    between atoms: C_22  and  C_24 
ROOT
HETATM    1  F   UNK N   1      28.761  20.255   4.298  0.00  0.00    -0.204 F 
HETATM    2  O   UNK N   1      24.241  21.304   2.480  0.00  0.00    -0.286 OA
HETATM    3  N   UNK N   1      23.719  17.980   4.674  0.00  0.00    -0.355 N 
HETATM    4  C   UNK N   1      27.331  18.524   5.207  0.00  0.00     0.071 A 
HETATM    5  C   UNK N   1      24.964  18.540   4.578  0.00  0.00     0.051 A 
HETATM    6  C   UNK N   1      26.044  17.977   5.260  0.00  0.00     0.063 A 
HETATM    7  C   UNK N   1      27.540  19.676   4.407  0.00  0.00     0.143 A 
HETATM    8  C   UNK N   1      25.172  19.704   3.806  0.00  0.00     0.045 A 
HETATM    9  C   UNK N   1      26.463  20.253   3.720  0.00  0.00     0.062 A 
HETATM   10  C   UNK N   1      24.080  20.291   3.145  0.00  0.00     0.202 A 
HETATM   11  C   UNK N   1      22.658  18.549   4.034  0.00  0.00     0.113 A 
HETATM   12  C   UNK N   1      22.800  19.708   3.264  0.00  0.00     0.104 A 
ENDROOT
BRANCH   4  13
HETATM   13  N   UNK N   1      28.367  17.911   5.990  0.00  0.00    -0.375 N 
HETATM   14  C   UNK N   1      29.414  17.180   5.286  0.00  0.00     0.153 C 
HETATM   15  C   UNK N   1      30.689  17.112   6.108  0.00  0.00     0.291 C 
HETATM   16  N   UNK N   1      30.374  16.553   7.412  0.00  0.00     0.087 N 
HETATM   17  C   UNK N   1      29.553  17.531   8.119  0.00  0.00     0.291 C 
HETATM   18  C   UNK N   1      31.625  16.417   8.133  0.00  0.00     0.310 C 
HETATM   19  C   UNK N   1      28.199  17.686   7.418  0.00  0.00     0.153 C 
ENDBRANCH   4  13
BRANCH   3  20
HETATM   20  C   UNK N   1      23.532  16.763   5.487  0.00  0.00     0.124 C 
HETATM   21  C   UNK N   1      22.156  16.639   6.132  0.00  0.00     0.027 C 
ENDBRANCH   3  20
BRANCH  12  22
HETATM   22  C   UNK N   1      21.589  20.271   2.616  0.00  0.00     0.181 C 
HETATM   23  O   UNK N   1      20.800  19.550   2.026  0.00  0.00    -0.646 OA
BRANCH  22  24
HETATM   24  O   UNK N   1      21.356  21.598   2.669  0.00  0.00    -0.772 OA
HETATM   25  H   UNK N   1      22.031  22.202   2.428  0.00  0.00     0.167 HD
ENDBRANCH  22  24
ENDBRANCH  12  22
TORSDOF 4
ENDMDL
MODEL 3
REMARK VINA RESULT:      -6.9      8.006     10.080
REMARK  4 active torsions:
REMARK  status: ('A' for Active; 'I' for Inactive)
REMARK    1  A    between atoms: O_3  and  C_24 
REMARK    2  A    between atoms: N_5  and  C_12 
REMARK    3  A    between atoms: N_7  and  C_19 
REMARK    4  A    between atoms: C_22  and  C_24 
ROOT
HETATM    1  F   UNK N   1      18.826  16.487   7.367  0.00  0.00    -0.204 F 
HETATM    2  O   UNK N   1      21.084  13.360  10.523  0.00  0.00    -0.286 OA
HETATM    3  N   UNK N   1      23.768  13.985   7.602  0.00  0.00    -0.355 N 
HETATM    4  C   UNK N   1      21.015  16.126   6.393  0.00  0.00     0.071 A 
HETATM    5  C   UNK N   1      22.547  14.600   7.542  0.00  0.00     0.051 A 
HETATM    6  C   UNK N   1      22.242  15.461   6.487  0.00  0.00     0.063 A 
HETATM    7  C   UNK N   1      20.042  15.888   7.397  0.00  0.00     0.143 A 
HETATM    8  C   UNK N   1      21.585  14.388   8.554  0.00  0.00     0.045 A 
HETATM    9  C   UNK N   1      20.336  15.027   8.464  0.00  0.00     0.062 A 
HETATM   10  C   UNK N   1      21.901  13.547   9.634  0.00  0.00     0.202 A 
HETATM   11  C   UNK N   1      24.077  13.168   8.649  0.00  0.00     0.113 A 
HETATM   12  C   UNK N   1      23.170  12.930   9.686  0.00  0.00     0.104 A 
ENDROOT
BRANCH   4  13
HETATM   13  N   UNK N   1      20.814  17.040   5.304  0.00  0.00    -0.375 N 
HETATM   14  C   UNK N   1      21.349  18.389   5.436  0.00  0.00     0.153 C 
HETATM   15  C   UNK N   1      21.599  19.021   4.078  0.00  0.00     0.291 C 
HETATM   16  N   UNK N   1      20.371  18.963   3.303  0.00  0.00     0.087 N 
HETATM   17  C   UNK N   1      20.115  17.559   2.996  0.00  0.00     0.291 C 
HETATM   18  C   UNK N   1      20.620  19.654   2.053  0.00  0.00     0.310 C 
HETATM   19  C   UNK N   1      19.808  16.786   4.283  0.00  0.00     0.153 C 
ENDBRANCH   4  13
BRANCH   3  20
HETATM   20  C   UNK N   1      24.753  14.222   6.528  0.00  0.00     0.124 C 
HETATM   21  C   UNK N   1      25.924  15.110   6.931  0.00  0.00     0.027 C 
ENDBRANCH   3  20
BRANCH  12  22
HETATM   22  C   UNK N   1      23.595  12.042  10.798  0.00  0.00     0.181 C 
HETATM   23  O   UNK N   1      24.722  12.114  11.263  0.00  0.00    -0.646 OA
BRANCH  22  24
HETATM   24  O   UNK N   1      22.732  11.135  11.299  0.00  0.00    -0.772 OA
HETATM   25  H   UNK N   1      21.900  11.002  10.886  0.00  0.00     0.167 HD
ENDBRANCH  22  24
ENDBRANCH  12  22
TORSDOF 4
ENDMDL
MODEL 4
REMARK VINA RESULT:      -6.8      6.755     10.091
REMARK  4 active torsions:
REMARK  status: ('A' for Active; 'I' for Inactive)
REMARK    1  A    between atoms: O_3  and  C_24 
REMARK    2  A    between atoms: N_5  and  C_12 
REMARK    3  A    between atoms: N_7  and  C_19 
REMARK    4  A    between atoms: C_22  and  C_24 
ROOT
HETATM    1  F   UNK N   1      36.639  14.525  14.118  0.00  0.00    -0.204 F 
HETATM    2  O   UNK N   1      35.741  17.728  10.406  0.00  0.00    -0.286 OA
HETATM    3  N   UNK N   1      34.259  14.223   9.118  0.00  0.00    -0.355 N 
HETATM    4  C   UNK N   1      35.492  13.200  12.445  0.00  0.00     0.071 A 
HETATM    5  C   UNK N   1      34.850  14.298  10.351  0.00  0.00     0.051 A 
HETATM    6  C   UNK N   1      34.915  13.169  11.170  0.00  0.00     0.063 A 
HETATM    7  C   UNK N   1      36.053  14.421  12.899  0.00  0.00     0.143 A 
HETATM    8  C   UNK N   1      35.385  15.517  10.820  0.00  0.00     0.045 A 
HETATM    9  C   UNK N   1      35.992  15.563  12.087  0.00  0.00     0.062 A 
HETATM   10  C   UNK N   1      35.291  16.662  10.011  0.00  0.00     0.202 A 
HETATM   11  C   UNK N   1      34.168  15.333   8.332  0.00  0.00     0.113 A 
HETATM   12  C   UNK N   1      34.669  16.571   8.748  0.00  0.00     0.104 A 
ENDROOT
BRANCH   4  13
HETATM   13  N   UNK N   1      35.459  12.005  13.240  0.00  0.00    -0.375 N 
HETATM   14  C   UNK N   1      36.704  11.268  13.417  0.00  0.00     0.153 C 
HETATM   15  C   UNK N   1      36.676  10.434  14.686  0.00  0.00     0.291 C 
HETATM   16  N   UNK N   1      35.500   9.580  14.658  0.00  0.00     0.087 N 
HETATM   17  C   UNK N   1      34.331  10.445  14.781  0.00  0.00     0.291 C 
HETATM   18  C   UNK N   1      35.557   8.736  15.836  0.00  0.00     0.310 C 
HETATM   19  C   UNK N   1      34.203  11.336  13.541  0.00  0.00     0.153 C 
ENDBRANCH   4  13
BRANCH   3  20
HETATM   20  C   UNK N   1      33.711  12.935   8.653  0.00  0.00     0.124 C 
HETATM   21  C   UNK N   1      33.351  12.900   7.172  0.00  0.00     0.027 C 
ENDBRANCH   3  20
BRANCH  12  22
HETATM   22  C   UNK N   1      34.510  17.732   7.836  0.00  0.00     0.181 C 
HETATM   23  O   UNK N   1      34.371  17.572   6.633  0.00  0.00    -0.646 OA
BRANCH  22  24
HETATM   24  O   UNK N   1      34.529  18.984   8.336  0.00  0.00    -0.772 OA
HETATM   25  H   UNK N   1      35.292  19.519   8.231  0.00  0.00     0.167 HD
ENDBRANCH  22  24
ENDBRANCH  12  22
TORSDOF 4
ENDMDL
MODEL 5
REMARK VINA RESULT:      -6.6      2.117      2.616
REMARK  4 active torsions:
REMARK  status: ('A' for Active; 'I' for Inactive)
REMARK    1  A    between atoms: O_3  and  C_24 
REMARK    2  A    between atoms: N_5  and  C_12 
REMARK    3  A    between atoms: N_7  and  C_19 
REMARK    4  A    between atoms: C_22  and  C_24 
ROOT
HETATM    1  F   UNK N   1      28.060  16.666   2.849  0.00  0.00    -0.204 F 
HETATM    2  O   UNK N   1      32.754  17.140   4.456  0.00  0.00    -0.286 OA
HETATM    3  N   UNK N   1      30.506  17.341   7.779  0.00  0.00    -0.355 N 
HETATM    4  C   UNK N   1      27.854  16.868   5.254  0.00  0.00     0.071 A 
HETATM    5  C   UNK N   1      29.902  17.177   6.561  0.00  0.00     0.051 A 
HETATM    6  C   UNK N   1      28.515  17.054   6.474  0.00  0.00     0.063 A 
HETATM    7  C   UNK N   1      28.630  16.832   4.068  0.00  0.00     0.143 A 
HETATM    8  C   UNK N   1      30.672  17.113   5.379  0.00  0.00     0.045 A 
HETATM    9  C   UNK N   1      30.026  16.952   4.142  0.00  0.00     0.062 A 
HETATM   10  C   UNK N   1      32.071  17.204   5.469  0.00  0.00     0.202 A 
HETATM   11  C   UNK N   1      31.863  17.430   7.867  0.00  0.00     0.113 A 
HETATM   12  C   UNK N   1      32.679  17.360   6.733  0.00  0.00     0.104 A 
ENDROOT
BRANCH   4  13
HETATM   13  N   UNK N   1      26.429  16.690   5.268  0.00  0.00    -0.375 N 
HETATM   14  C   UNK N   1      25.906  15.394   5.684  0.00  0.00     0.153 C 
HETATM   15  C   UNK N   1      24.489  15.515   6.214  0.00  0.00     0.291 C 
HETATM   16  N   UNK N   1      23.669  16.171   5.209  0.00  0.00     0.087 N 
HETATM   17  C   UNK N   1      24.125  17.554   5.109  0.00  0.00     0.291 C 
HETATM   18  C   UNK N   1      22.308  16.186   5.710  0.00  0.00     0.310 C 
HETATM   19  C   UNK N   1      25.550  17.599   4.549  0.00  0.00     0.153 C 
ENDBRANCH   4  13
BRANCH   3  20
HETATM   20  C   UNK N   1      29.676  17.408   8.997  0.00  0.00     0.124 C 
HETATM   21  C   UNK N   1      29.761  18.732   9.746  0.00  0.00     0.027 C 
ENDBRANCH   3  20
BRANCH  12  22
HETATM   22  C   UNK N   1      34.149  17.446   6.921  0.00  0.00     0.181 C 
HETATM   23  O   UNK N   1      34.653  18.396   7.501  0.00  0.00    -0.646 OA
BRANCH  22  24
HETATM   24  O   UNK N   1      34.945  16.470   6.440  0.00  0.00    -0.772 OA
HETATM   25  H   UNK N   1      34.703  16.011   5.659  0.00  0.00     0.167 HD
ENDBRANCH  22  24
ENDBRANCH  12  22
TORSDOF 4
ENDMDL
MODEL 6
REMARK VINA RESULT:      -6.4      3.563      7.404
REMARK  4 active torsions:
REMARK  status: ('A' for Active; 'I' for Inactive)
REMARK    1  A    between atoms: O_3  and  C_24 
REMARK    2  A    between atoms: N_5  and  C_12 
REMARK    3  A    between atoms: N_7  and  C_19 
REMARK    4  A    between atoms: C_22  and  C_24 
ROOT
HETATM    1  F   UNK N   1      34.662  15.297   6.519  0.00  0.00    -0.204 F 
HETATM    2  O   UNK N   1      30.829  17.149   3.927  0.00  0.00    -0.286 OA
HETATM    3  N   UNK N   1      29.743  17.526   7.776  0.00  0.00    -0.355 N 
HETATM    4  C   UNK N   1      33.081  16.011   8.210  0.00  0.00     0.071 A 
HETATM    5  C   UNK N   1      30.956  16.972   7.465  0.00  0.00     0.051 A 
HETATM    6  C   UNK N   1      31.824  16.564   8.478  0.00  0.00     0.063 A 
HETATM    7  C   UNK N   1      33.464  15.836   6.856  0.00  0.00     0.143 A 
HETATM    8  C   UNK N   1      31.354  16.822   6.118  0.00  0.00     0.045 A 
HETATM    9  C   UNK N   1      32.602  16.245   5.828  0.00  0.00     0.062 A 
HETATM   10  C   UNK N   1      30.495  17.262   5.098  0.00  0.00     0.202 A 
HETATM   11  C   UNK N   1      28.908  17.952   6.786  0.00  0.00     0.113 A 
HETATM   12  C   UNK N   1      29.253  17.841   5.435  0.00  0.00     0.104 A 
ENDROOT
BRANCH   4  13
HETATM   13  N   UNK N   1      33.932  15.677   9.318  0.00  0.00    -0.375 N 
HETATM   14  C   UNK N   1      34.956  16.638   9.707  0.00  0.00     0.153 C 
HETATM   15  C   UNK N   1      35.351  16.466  11.163  0.00  0.00     0.291 C 
HETATM   16  N   UNK N   1      35.746  15.084  11.380  0.00  0.00     0.087 N 
HETATM   17  C   UNK N   1      34.549  14.261  11.241  0.00  0.00     0.291 C 
HETATM   18  C   UNK N   1      36.203  14.980  12.752  0.00  0.00     0.310 C 
HETATM   19  C   UNK N   1      34.043  14.307   9.795  0.00  0.00     0.153 C 
ENDBRANCH   4  13
BRANCH   3  20
HETATM   20  C   UNK N   1      29.351  17.667   9.191  0.00  0.00     0.124 C 
HETATM   21  C   UNK N   1      27.902  17.298   9.485  0.00  0.00     0.027 C 
ENDBRANCH   3  20
BRANCH  12  22
HETATM   22  C   UNK N   1      28.293  18.349   4.423  0.00  0.00     0.181 C 
HETATM   23  O   UNK N   1      27.917  19.511   4.441  0.00  0.00    -0.646 OA
BRANCH  22  24
HETATM   24  O   UNK N   1      27.818  17.519   3.473  0.00  0.00    -0.772 OA
HETATM   25  H   UNK N   1      28.300  16.747   3.242  0.00  0.00     0.167 HD
ENDBRANCH  22  24
ENDBRANCH  12  22
TORSDOF 4
ENDMDL
MODEL 7
REMARK VINA RESULT:      -6.2     12.511     14.432
REMARK  4 active torsions:
REMARK  status: ('A' for Active; 'I' for Inactive)
REMARK    1  A    between atoms: O_3  and  C_24 
REMARK    2  A    between atoms: N_5  and  C_12 
REMARK    3  A    between atoms: N_7  and  C_19 
REMARK    4  A    between atoms: C_22  and  C_24 
ROOT
HETATM    1  F   UNK N   1      25.978  21.843  -8.644  0.00  0.00    -0.204 F 
HETATM    2  O   UNK N   1      24.817  25.618  -5.604  0.00  0.00    -0.286 OA
HETATM    3  N   UNK N   1      28.513  24.505  -4.493  0.00  0.00    -0.355 N 
HETATM    4  C   UNK N   1      27.941  22.118  -7.251  0.00  0.00     0.071 A 
HETATM    5  C   UNK N   1      27.885  23.846  -5.516  0.00  0.00     0.051 A 
HETATM    6  C   UNK N   1      28.534  22.809  -6.189  0.00  0.00     0.063 A 
HETATM    7  C   UNK N   1      26.622  22.474  -7.631  0.00  0.00     0.143 A 
HETATM    8  C   UNK N   1      26.583  24.214  -5.917  0.00  0.00     0.045 A 
HETATM    9  C   UNK N   1      25.960  23.516  -6.965  0.00  0.00     0.062 A 
HETATM   10  C   UNK N   1      25.941  25.279  -5.262  0.00  0.00     0.202 A 
HETATM   11  C   UNK N   1      27.891  25.538  -3.857  0.00  0.00     0.113 A 
HETATM   12  C   UNK N   1      26.607  25.956  -4.218  0.00  0.00     0.104 A 
ENDROOT
BRANCH   4  13
HETATM   13  N   UNK N   1      28.708  21.108  -7.923  0.00  0.00    -0.375 N 
HETATM   14  C   UNK N   1      29.404  20.122  -7.105  0.00  0.00     0.153 C 
HETATM   15  C   UNK N   1      29.651  18.838  -7.878  0.00  0.00     0.291 C 
HETATM   16  N   UNK N   1      30.351  19.162  -9.109  0.00  0.00     0.087 N 
HETATM   17  C   UNK N   1      29.424  19.907  -9.955  0.00  0.00     0.291 C 
HETATM   18  C   UNK N   1      30.651  17.908  -9.773  0.00  0.00     0.310 C 
HETATM   19  C   UNK N   1      29.102  21.262  -9.315  0.00  0.00     0.153 C 
ENDBRANCH   4  13
BRANCH   3  20
HETATM   20  C   UNK N   1      29.873  24.096  -4.093  0.00  0.00     0.124 C 
HETATM   21  C   UNK N   1      29.945  23.363  -2.759  0.00  0.00     0.027 C 
ENDBRANCH   3  20
BRANCH  12  22
HETATM   22  C   UNK N   1      26.011  27.102  -3.485  0.00  0.00     0.181 C 
HETATM   23  O   UNK N   1      25.982  27.120  -2.264  0.00  0.00    -0.646 OA
BRANCH  22  24
HETATM   24  O   UNK N   1      25.485  28.136  -4.171  0.00  0.00    -0.772 OA
HETATM   25  H   UNK N   1      25.149  28.002  -5.036  0.00  0.00     0.167 HD
ENDBRANCH  22  24
ENDBRANCH  12  22
TORSDOF 4
ENDMDL
MODEL 8
REMARK VINA RESULT:      -6.2     10.782     12.536
REMARK  4 active torsions:
REMARK  status: ('A' for Active; 'I' for Inactive)
REMARK    1  A    between atoms: O_3  and  C_24 
REMARK    2  A    between atoms: N_5  and  C_12 
REMARK    3  A    between atoms: N_7  and  C_19 
REMARK    4  A    between atoms: C_22  and  C_24 
ROOT
HETATM    1  F   UNK N   1      29.129  24.506  -2.243  0.00  0.00    -0.204 F 
HETATM    2  O   UNK N   1      32.798  21.134  -2.244  0.00  0.00    -0.286 OA
HETATM    3  N   UNK N   1      31.175  20.884  -5.909  0.00  0.00    -0.355 N 
HETATM    4  C   UNK N   1      29.070  23.554  -4.470  0.00  0.00     0.071 A 
HETATM    5  C   UNK N   1      30.668  21.776  -5.003  0.00  0.00     0.051 A 
HETATM    6  C   UNK N   1      29.609  22.614  -5.356  0.00  0.00     0.063 A 
HETATM    7  C   UNK N   1      29.607  23.629  -3.160  0.00  0.00     0.143 A 
HETATM    8  C   UNK N   1      31.217  21.874  -3.706  0.00  0.00     0.045 A 
HETATM    9  C   UNK N   1      30.673  22.794  -2.793  0.00  0.00     0.062 A 
HETATM   10  C   UNK N   1      32.304  21.054  -3.359  0.00  0.00     0.202 A 
HETATM   11  C   UNK N   1      32.229  20.087  -5.574  0.00  0.00     0.113 A 
HETATM   12  C   UNK N   1      32.823  20.149  -4.309  0.00  0.00     0.104 A 
ENDROOT
BRANCH   4  13
HETATM   13  N   UNK N   1      28.022  24.415  -4.942  0.00  0.00    -0.375 N 
HETATM   14  C   UNK N   1      26.678  23.862  -5.047  0.00  0.00     0.153 C 
HETATM   15  C   UNK N   1      25.624  24.952  -4.969  0.00  0.00     0.291 C 
HETATM   16  N   UNK N   1      25.914  25.956  -5.979  0.00  0.00     0.087 N 
HETATM   17  C   UNK N   1      27.146  26.630  -5.583  0.00  0.00     0.291 C 
HETATM   18  C   UNK N   1      24.839  26.928  -5.936  0.00  0.00     0.310 C 
HETATM   19  C   UNK N   1      28.324  25.652  -5.646  0.00  0.00     0.153 C 
ENDBRANCH   4  13
BRANCH   3  20
HETATM   20  C   UNK N   1      30.579  20.801  -7.256  0.00  0.00     0.124 C 
HETATM   21  C   UNK N   1      29.704  19.574  -7.484  0.00  0.00     0.027 C 
ENDBRANCH   3  20
BRANCH  12  22
HETATM   22  C   UNK N   1      33.979  19.258  -4.034  0.00  0.00     0.181 C 
HETATM   23  O   UNK N   1      35.123  19.634  -4.238  0.00  0.00    -0.646 OA
BRANCH  22  24
HETATM   24  O   UNK N   1      33.769  18.013  -3.562  0.00  0.00    -0.772 OA
HETATM   25  H   UNK N   1      33.076  17.855  -2.950  0.00  0.00     0.167 HD
ENDBRANCH  22  24
ENDBRANCH  12  22
TORSDOF 4
ENDMDL
MODEL 9
REMARK VINA RESULT:      -6.2      3.835      7.677
REMARK  4 active torsions:
REMARK  status: ('A' for Active; 'I' for Inactive)
REMARK    1  A    between atoms: O_3  and  C_24 
REMARK    2  A    between atoms: N_5  and  C_12 
REMARK    3  A    between atoms: N_7  and  C_19 
REMARK    4  A    between atoms: C_22  and  C_24 
ROOT
HETATM    1  F   UNK N   1      30.513  18.291   9.728  0.00  0.00    -0.204 F 
HETATM    2  O   UNK N   1      26.972  18.808   6.259  0.00  0.00    -0.286 OA
HETATM    3  N   UNK N   1      29.896  16.743   4.439  0.00  0.00    -0.355 N 
HETATM    4  C   UNK N   1      31.398  17.139   7.789  0.00  0.00     0.071 A 
HETATM    5  C   UNK N   1      30.050  17.128   5.744  0.00  0.00     0.051 A 
HETATM    6  C   UNK N   1      31.204  16.784   6.450  0.00  0.00     0.063 A 
HETATM    7  C   UNK N   1      30.391  17.900   8.435  0.00  0.00     0.143 A 
HETATM    8  C   UNK N   1      29.038  17.863   6.401  0.00  0.00     0.045 A 
HETATM    9  C   UNK N   1      29.225  18.251   7.738  0.00  0.00     0.062 A 
HETATM   10  C   UNK N   1      27.862  18.182   5.703  0.00  0.00     0.202 A 
HETATM   11  C   UNK N   1      28.755  17.053   3.761  0.00  0.00     0.113 A 
HETATM   12  C   UNK N   1      27.714  17.767   4.362  0.00  0.00     0.104 A 
ENDROOT
BRANCH   4  13
HETATM   13  N   UNK N   1      32.590  16.688   8.450  0.00  0.00    -0.375 N 
HETATM   14  C   UNK N   1      33.805  17.474   8.279  0.00  0.00     0.153 C 
HETATM   15  C   UNK N   1      34.767  17.263   9.434  0.00  0.00     0.291 C 
HETATM   16  N   UNK N   1      35.018  15.839   9.580  0.00  0.00     0.087 N 
HETATM   17  C   UNK N   1      33.778  15.222  10.039  0.00  0.00     0.291 C 
HETATM   18  C   UNK N   1      36.008  15.684  10.628  0.00  0.00     0.310 C 
HETATM   19  C   UNK N   1      32.704  15.326   8.950  0.00  0.00     0.153 C 
ENDBRANCH   4  13
BRANCH   3  20
HETATM   20  C   UNK N   1      30.971  15.979   3.778  0.00  0.00     0.124 C 
HETATM   21  C   UNK N   1      31.909  16.822   2.921  0.00  0.00     0.027 C 
ENDBRANCH   3  20
BRANCH  12  22
HETATM   22  C   UNK N   1      26.499  18.045   3.556  0.00  0.00     0.181 C 
HETATM   23  O   UNK N   1      25.877  17.138   3.024  0.00  0.00    -0.646 OA
BRANCH  22  24
HETATM   24  O   UNK N   1      26.076  19.315   3.397  0.00  0.00    -0.772 OA
HETATM   25  H   UNK N   1      25.266  19.591   3.781  0.00  0.00     0.167 HD
ENDBRANCH  22  24
ENDBRANCH  12  22
TORSDOF 4
ENDMDL
