REMARK  4 active torsions:
REMARK  status: ('A' for Active; 'I' for Inactive)
REMARK    1  A    between atoms: O_3  and  C_24 
REMARK    2  A    between atoms: N_5  and  C_12 
REMARK    3  A    between atoms: N_7  and  C_19 
REMARK    4  A    between atoms: C_22  and  C_24 
ROOT
HETATM    1  F   UNK N   1       8.210   1.898   0.046  0.00  0.00    -0.204 F 
HETATM    2  O   UNK N   1       3.364   3.061   0.111  0.00  0.00    -0.286 OA
HETATM    3  N   UNK N   1       3.454  -0.951  -0.057  0.00  0.00    -0.355 N 
HETATM    4  C   UNK N   1       7.077  -0.243  -0.004  0.00  0.00     0.071 A 
HETATM    5  C   UNK N   1       4.628  -0.247  -0.035  0.00  0.00     0.051 A 
HETATM    6  C   UNK N   1       5.852  -0.918  -0.044  0.00  0.00     0.063 A 
HETATM    7  C   UNK N   1       7.063   1.175   0.018  0.00  0.00     0.143 A 
HETATM    8  C   UNK N   1       4.620   1.164   0.015  0.00  0.00     0.045 A 
HETATM    9  C   UNK N   1       5.840   1.861   0.030  0.00  0.00     0.062 A 
HETATM   10  C   UNK N   1       3.389   1.840   0.057  0.00  0.00     0.202 A 
HETATM   11  C   UNK N   1       2.259  -0.296  -0.017  0.00  0.00     0.113 A 
HETATM   12  C   UNK N   1       2.188   1.099   0.046  0.00  0.00     0.104 A 
ENDROOT
BRANCH   4  13
HETATM   13  N   UNK N   1       8.284  -1.019   0.045  0.00  0.00    -0.375 N 
HETATM   14  C   UNK N   1       8.163  -2.460   0.230  0.00  0.00     0.153 C 
HETATM   15  C   UNK N   1       9.377  -3.191  -0.315  0.00  0.00     0.291 C 
HETATM   16  N   UNK N   1      10.572  -2.631   0.294  0.00  0.00     0.087 N 
HETATM   17  C   UNK N   1      10.724  -1.271  -0.214  0.00  0.00     0.291 C 
HETATM   18  C   UNK N   1      11.699  -3.412  -0.178  0.00  0.00     0.310 C 
HETATM   19  C   UNK N   1       9.574  -0.391   0.287  0.00  0.00     0.153 C 
ENDBRANCH   4  13
BRANCH   3  20
HETATM   20  C   UNK N   1       3.493  -2.425  -0.113  0.00  0.00     0.124 C 
HETATM   21  C   UNK N   1       2.123  -3.093  -0.115  0.00  0.00     0.027 C 
ENDBRANCH   3  20
BRANCH  12  22
HETATM   22  C   UNK N   1       0.845   1.730   0.106  0.00  0.00     0.181 C 
HETATM   23  O   UNK N   1       0.724   2.943   0.182  0.00  0.00    -0.646 OA
BRANCH  22  24
HETATM   24  O   UNK N   1      -0.260   0.958   0.086  0.00  0.00    -0.772 OA
HETATM   25  H   UNK N   1      -1.109   1.356   0.072  0.00  0.00     0.167 HD
ENDBRANCH  22  24
ENDBRANCH  12  22
TORSDOF 4
