REMARK  0 active torsions:
REMARK  status: ('A' for Active; 'I' for Inactive)
REMARK       I    between atoms: N_1  and  C_10 
REMARK       I    between atoms: N_2  and  C_11 
REMARK       I    between atoms: N_3  and  C_12 
ROOT
HETATM    1  N   UNK N   1       3.703   2.335   0.000  0.00  0.00    -0.225 N 
HETATM    2  N   UNK N   1       6.103  -1.871   0.000  0.00  0.00    -0.225 N 
HETATM    3  N   UNK N   1       1.289  -1.848  -0.000  0.00  0.00    -0.225 N 
HETATM    4  N   UNK N   1       4.882   0.220   0.000  0.00  0.00    -0.021 N 
ATOM      5  HN  UNK N   1       5.767   0.727   0.000  1.00  0.00     0.203 HD
HETATM    6  N   UNK N   1       2.529   0.226  -0.000  0.00  0.00    -0.021 N 
ATOM      7  HN  UNK N   1       1.646   0.737  -0.000  1.00  0.00     0.203 HD
HETATM    8  N   UNK N   1       3.697  -1.809  -0.000  0.00  0.00    -0.021 N 
ATOM      9  HN  UNK N   1       3.694  -2.829  -0.000  1.00  0.00     0.203 HD
HETATM   10  C   UNK N   1       3.705   0.910  -0.000  0.00  0.00     0.708 A 
HETATM   11  C   UNK N   1       4.880  -1.142   0.000  0.00  0.00     0.708 A 
HETATM   12  C   UNK N   1       2.520  -1.134  -0.000  0.00  0.00     0.708 A 
HETATM   13  C   UNK N   1       2.461   3.066   0.000  0.00  0.00     0.168 C 
HETATM   14  C   UNK N   1       4.938   3.075  -0.000  0.00  0.00     0.168 C 
HETATM   15  C   UNK N   1       6.092  -3.312  -0.000  0.00  0.00     0.168 C 
HETATM   16  C   UNK N   1       7.371  -1.190   0.000  0.00  0.00     0.168 C 
HETATM   17  C   UNK N   1       1.279  -3.289   0.000  0.00  0.00     0.168 C 
HETATM   18  C   UNK N   1       0.032  -1.145  -0.000  0.00  0.00     0.168 C 
ENDROOT
TORSDOF 0
