MODEL 1
REMARK VINA RESULT:      -4.5      0.000      0.000
REMARK  0 active torsions:
REMARK  status: ('A' for Active; 'I' for Inactive)
REMARK       I    between atoms: N_1  and  C_10 
REMARK       I    between atoms: N_2  and  C_11 
REMARK       I    between atoms: N_3  and  C_12 
ROOT
HETATM    1  N   UNK N   1      26.767  20.027   5.832  0.00  0.00    -0.225 N 
HETATM    2  N   UNK N   1      30.016  17.765   8.622  0.00  0.00    -0.225 N 
HETATM    3  N   UNK N   1      28.975  16.033   4.252  0.00  0.00    -0.225 N 
HETATM    4  N   UNK N   1      28.395  18.879   7.210  0.00  0.00    -0.021 N 
ATOM      5  HN  UNK N   1      28.253  19.579   7.938  1.00  0.00     0.203 HD
HETATM    6  N   UNK N   1      27.889  18.029   5.075  0.00  0.00    -0.021 N 
ATOM      7  HN  UNK N   1      27.369  18.089   4.200  1.00  0.00     0.203 HD
HETATM    8  N   UNK N   1      29.463  16.937   6.430  0.00  0.00    -0.021 N 
ATOM      9  HN  UNK N   1      30.126  16.176   6.576  1.00  0.00     0.203 HD
HETATM   10  C   UNK N   1      27.695  18.966   6.042  0.00  0.00     0.708 A 
HETATM   11  C   UNK N   1      29.281  17.864   7.406  0.00  0.00     0.708 A 
HETATM   12  C   UNK N   1      28.772  17.012   5.265  0.00  0.00     0.708 A 
HETATM   13  C   UNK N   1      26.026  20.120   4.599  0.00  0.00     0.168 C 
HETATM   14  C   UNK N   1      26.548  21.027   6.845  0.00  0.00     0.168 C 
HETATM   15  C   UNK N   1      30.951  16.687   8.822  0.00  0.00     0.168 C 
HETATM   16  C   UNK N   1      29.843  18.733   9.672  0.00  0.00     0.168 C 
HETATM   17  C   UNK N   1      29.911  14.955   4.453  0.00  0.00     0.168 C 
HETATM   18  C   UNK N   1      28.249  16.100   3.010  0.00  0.00     0.168 C 
ENDROOT
TORSDOF 0
ENDMDL
MODEL 2
REMARK VINA RESULT:      -4.4      4.737      7.527
REMARK  0 active torsions:
REMARK  status: ('A' for Active; 'I' for Inactive)
REMARK       I    between atoms: N_1  and  C_10 
REMARK       I    between atoms: N_2  and  C_11 
REMARK       I    between atoms: N_3  and  C_12 
ROOT
HETATM    1  N   UNK N   1      22.469  15.820   6.000  0.00  0.00    -0.225 N 
HETATM    2  N   UNK N   1      21.165  19.402   3.013  0.00  0.00    -0.225 N 
HETATM    3  N   UNK N   1      25.701  19.125   4.601  0.00  0.00    -0.225 N 
HETATM    4  N   UNK N   1      21.840  17.620   4.507  0.00  0.00    -0.021 N 
ATOM      5  HN  UNK N   1      20.889  17.251   4.483  1.00  0.00     0.203 HD
HETATM    6  N   UNK N   1      24.058  17.489   5.280  0.00  0.00    -0.021 N 
ATOM      7  HN  UNK N   1      24.774  17.022   5.837  1.00  0.00     0.203 HD
HETATM    8  N   UNK N   1      23.421  19.222   3.833  0.00  0.00    -0.021 N 
ATOM      9  HN  UNK N   1      23.657  20.059   3.300  1.00  0.00     0.203 HD
HETATM   10  C   UNK N   1      22.792  16.990   5.253  0.00  0.00     0.708 A 
HETATM   11  C   UNK N   1      22.153  18.738   3.795  0.00  0.00     0.708 A 
HETATM   12  C   UNK N   1      24.377  18.605   4.571  0.00  0.00     0.708 A 
HETATM   13  C   UNK N   1      23.474  15.153   6.789  0.00  0.00     0.168 C 
HETATM   14  C   UNK N   1      21.135  15.279   5.983  0.00  0.00     0.168 C 
HETATM   15  C   UNK N   1      21.505  20.585   2.262  0.00  0.00     0.168 C 
HETATM   16  C   UNK N   1      19.814  18.911   2.954  0.00  0.00     0.168 C 
HETATM   17  C   UNK N   1      26.040  20.307   3.850  0.00  0.00     0.168 C 
HETATM   18  C   UNK N   1      26.727  18.480   5.380  0.00  0.00     0.168 C 
ENDROOT
TORSDOF 0
ENDMDL
MODEL 3
REMARK VINA RESULT:      -4.4      5.162      7.004
REMARK  0 active torsions:
REMARK  status: ('A' for Active; 'I' for Inactive)
REMARK       I    between atoms: N_1  and  C_10 
REMARK       I    between atoms: N_2  and  C_11 
REMARK       I    between atoms: N_3  and  C_12 
ROOT
HETATM    1  N   UNK N   1      20.585  19.500   2.649  0.00  0.00    -0.225 N 
HETATM    2  N   UNK N   1      25.161  19.232   4.213  0.00  0.00    -0.225 N 
HETATM    3  N   UNK N   1      21.870  16.125   5.856  0.00  0.00    -0.225 N 
HETATM    4  N   UNK N   1      22.867  19.347   3.445  0.00  0.00    -0.021 N 
ATOM      5  HN  UNK N   1      23.114  20.140   2.852  1.00  0.00     0.203 HD
HETATM    6  N   UNK N   1      21.263  17.826   4.251  0.00  0.00    -0.021 N 
ATOM      7  HN  UNK N   1      20.305  17.476   4.264  1.00  0.00     0.203 HD
HETATM    8  N   UNK N   1      23.481  17.701   5.005  0.00  0.00    -0.021 N 
ATOM      9  HN  UNK N   1      24.192  17.258   5.586  1.00  0.00     0.203 HD
HETATM   10  C   UNK N   1      21.584  18.884   3.458  0.00  0.00     0.708 A 
HETATM   11  C   UNK N   1      23.819  18.756   4.219  0.00  0.00     0.708 A 
HETATM   12  C   UNK N   1      22.208  17.232   5.027  0.00  0.00     0.708 A 
HETATM   13  C   UNK N   1      19.229  19.012   2.660  0.00  0.00     0.168 C 
HETATM   14  C   UNK N   1      20.908  20.620   1.803  0.00  0.00     0.168 C 
HETATM   15  C   UNK N   1      26.161  18.601   5.036  0.00  0.00     0.168 C 
HETATM   16  C   UNK N   1      25.546  20.348   3.390  0.00  0.00     0.168 C 
HETATM   17  C   UNK N   1      22.872  15.495   6.678  0.00  0.00     0.168 C 
HETATM   18  C   UNK N   1      20.524  15.616   5.889  0.00  0.00     0.168 C 
ENDROOT
TORSDOF 0
ENDMDL
MODEL 4
REMARK VINA RESULT:      -4.4      2.399      4.961
REMARK  0 active torsions:
REMARK  status: ('A' for Active; 'I' for Inactive)
REMARK       I    between atoms: N_1  and  C_10 
REMARK       I    between atoms: N_2  and  C_11 
REMARK       I    between atoms: N_3  and  C_12 
ROOT
HETATM    1  N   UNK N   1      33.907  16.332   7.964  0.00  0.00    -0.225 N 
HETATM    2  N   UNK N   1      29.496  18.272   8.436  0.00  0.00    -0.225 N 
HETATM    3  N   UNK N   1      30.829  16.319   4.242  0.00  0.00    -0.225 N 
HETATM    4  N   UNK N   1      31.697  17.296   8.177  0.00  0.00    -0.021 N 
ATOM      5  HN  UNK N   1      31.908  17.537   9.145  1.00  0.00     0.203 HD
HETATM    6  N   UNK N   1      32.343  16.343   6.125  0.00  0.00    -0.021 N 
ATOM      7  HN  UNK N   1      33.041  15.868   5.551  1.00  0.00     0.203 HD
HETATM    8  N   UNK N   1      30.207  17.284   6.360  0.00  0.00    -0.021 N 
ATOM      9  HN  UNK N   1      29.297  17.518   5.963  1.00  0.00     0.203 HD
HETATM   10  C   UNK N   1      32.634  16.661   7.416  0.00  0.00     0.708 A 
HETATM   11  C   UNK N   1      30.480  17.609   7.650  0.00  0.00     0.708 A 
HETATM   12  C   UNK N   1      31.131  16.653   5.593  0.00  0.00     0.708 A 
HETATM   13  C   UNK N   1      34.899  15.661   7.161  0.00  0.00     0.168 C 
HETATM   14  C   UNK N   1      34.232  16.661   9.327  0.00  0.00     0.168 C 
HETATM   15  C   UNK N   1      28.212  18.600   7.870  0.00  0.00     0.168 C 
HETATM   16  C   UNK N   1      29.758  18.628   9.806  0.00  0.00     0.168 C 
HETATM   17  C   UNK N   1      29.544  16.648   3.678  0.00  0.00     0.168 C 
HETATM   18  C   UNK N   1      31.800  15.649   3.416  0.00  0.00     0.168 C 
ENDROOT
TORSDOF 0
ENDMDL
MODEL 5
REMARK VINA RESULT:      -4.4      5.177      7.484
REMARK  0 active torsions:
REMARK  status: ('A' for Active; 'I' for Inactive)
REMARK       I    between atoms: N_1  and  C_10 
REMARK       I    between atoms: N_2  and  C_11 
REMARK       I    between atoms: N_3  and  C_12 
ROOT
HETATM    1  N   UNK N   1      25.169  19.175   4.218  0.00  0.00    -0.225 N 
HETATM    2  N   UNK N   1      21.826  16.097   5.893  0.00  0.00    -0.225 N 
HETATM    3  N   UNK N   1      20.603  19.456   2.668  0.00  0.00    -0.225 N 
HETATM    4  N   UNK N   1      23.481  17.647   5.042  0.00  0.00    -0.021 N 
ATOM      5  HN  UNK N   1      24.187  17.201   5.626  1.00  0.00     0.203 HD
HETATM    6  N   UNK N   1      22.878  19.287   3.466  0.00  0.00    -0.021 N 
ATOM      7  HN  UNK N   1      23.131  20.072   2.866  1.00  0.00     0.203 HD
HETATM    8  N   UNK N   1      21.263  17.793   4.280  0.00  0.00    -0.021 N 
ATOM      9  HN  UNK N   1      20.301  17.454   4.294  1.00  0.00     0.203 HD
HETATM   10  C   UNK N   1      23.827  18.697   4.242  0.00  0.00     0.708 A 
HETATM   11  C   UNK N   1      22.197  17.193   5.062  0.00  0.00     0.708 A 
HETATM   12  C   UNK N   1      21.594  18.838   3.481  0.00  0.00     0.708 A 
HETATM   13  C   UNK N   1      25.537  20.284   3.375  0.00  0.00     0.168 C 
HETATM   14  C   UNK N   1      26.185  18.563   5.034  0.00  0.00     0.168 C 
HETATM   15  C   UNK N   1      20.465  15.623   5.908  0.00  0.00     0.168 C 
HETATM   16  C   UNK N   1      22.795  15.443   6.731  0.00  0.00     0.168 C 
HETATM   17  C   UNK N   1      19.243  18.981   2.684  0.00  0.00     0.168 C 
HETATM   18  C   UNK N   1      20.941  20.566   1.815  0.00  0.00     0.168 C 
ENDROOT
TORSDOF 0
ENDMDL
MODEL 6
REMARK VINA RESULT:      -4.4      2.379      3.547
REMARK  0 active torsions:
REMARK  status: ('A' for Active; 'I' for Inactive)
REMARK       I    between atoms: N_1  and  C_10 
REMARK       I    between atoms: N_2  and  C_11 
REMARK       I    between atoms: N_3  and  C_12 
ROOT
HETATM    1  N   UNK N   1      29.462  18.270   8.369  0.00  0.00    -0.225 N 
HETATM    2  N   UNK N   1      33.873  16.342   7.847  0.00  0.00    -0.225 N 
HETATM    3  N   UNK N   1      30.773  16.289   4.164  0.00  0.00    -0.225 N 
HETATM    4  N   UNK N   1      31.662  17.300   8.085  0.00  0.00    -0.021 N 
ATOM      5  HN  UNK N   1      31.883  17.548   9.050  1.00  0.00     0.203 HD
HETATM    6  N   UNK N   1      30.151  17.271   6.282  0.00  0.00    -0.021 N 
ATOM      7  HN  UNK N   1      29.236  17.498   5.891  1.00  0.00     0.203 HD
HETATM    8  N   UNK N   1      32.290  16.339   6.035  0.00  0.00    -0.021 N 
ATOM      9  HN  UNK N   1      32.985  15.864   5.459  1.00  0.00     0.203 HD
HETATM   10  C   UNK N   1      30.437  17.606   7.569  0.00  0.00     0.708 A 
HETATM   11  C   UNK N   1      32.592  16.665   7.318  0.00  0.00     0.708 A 
HETATM   12  C   UNK N   1      31.074  16.638   5.511  0.00  0.00     0.708 A 
HETATM   13  C   UNK N   1      28.167  18.594   7.826  0.00  0.00     0.168 C 
HETATM   14  C   UNK N   1      29.747  18.631   9.733  0.00  0.00     0.168 C 
HETATM   15  C   UNK N   1      34.851  15.670   7.028  0.00  0.00     0.168 C 
HETATM   16  C   UNK N   1      34.220  16.676   9.203  0.00  0.00     0.168 C 
HETATM   17  C   UNK N   1      31.752  15.617   3.346  0.00  0.00     0.168 C 
HETATM   18  C   UNK N   1      29.488  16.599   3.594  0.00  0.00     0.168 C 
ENDROOT
TORSDOF 0
ENDMDL
MODEL 7
REMARK VINA RESULT:      -4.4      5.176      7.086
REMARK  0 active torsions:
REMARK  status: ('A' for Active; 'I' for Inactive)
REMARK       I    between atoms: N_1  and  C_10 
REMARK       I    between atoms: N_2  and  C_11 
REMARK       I    between atoms: N_3  and  C_12 
ROOT
HETATM    1  N   UNK N   1      20.579  19.490   2.655  0.00  0.00    -0.225 N 
HETATM    2  N   UNK N   1      21.863  16.101   5.868  0.00  0.00    -0.225 N 
HETATM    3  N   UNK N   1      25.144  19.210   4.209  0.00  0.00    -0.225 N 
HETATM    4  N   UNK N   1      21.244  17.804   4.261  0.00  0.00    -0.021 N 
ATOM      5  HN  UNK N   1      20.285  17.456   4.275  1.00  0.00     0.203 HD
HETATM    6  N   UNK N   1      22.851  19.321   3.453  0.00  0.00    -0.021 N 
ATOM      7  HN  UNK N   1      23.100  20.113   2.861  1.00  0.00     0.203 HD
HETATM    8  N   UNK N   1      23.468  17.677   5.010  0.00  0.00    -0.021 N 
ATOM      9  HN  UNK N   1      24.180  17.232   5.589  1.00  0.00     0.203 HD
HETATM   10  C   UNK N   1      21.570  18.864   3.466  0.00  0.00     0.708 A 
HETATM   11  C   UNK N   1      22.193  17.208   5.035  0.00  0.00     0.708 A 
HETATM   12  C   UNK N   1      23.804  18.731   4.224  0.00  0.00     0.708 A 
HETATM   13  C   UNK N   1      20.921  20.610   1.815  0.00  0.00     0.168 C 
HETATM   14  C   UNK N   1      19.219  19.019   2.657  0.00  0.00     0.168 C 
HETATM   15  C   UNK N   1      22.874  15.477   6.684  0.00  0.00     0.168 C 
HETATM   16  C   UNK N   1      20.521  15.584   5.914  0.00  0.00     0.168 C 
HETATM   17  C   UNK N   1      26.153  18.585   5.025  0.00  0.00     0.168 C 
HETATM   18  C   UNK N   1      25.515  20.327   3.380  0.00  0.00     0.168 C 
ENDROOT
TORSDOF 0
ENDMDL
MODEL 8
REMARK VINA RESULT:      -4.4      7.955     10.937
REMARK  0 active torsions:
REMARK  status: ('A' for Active; 'I' for Inactive)
REMARK       I    between atoms: N_1  and  C_10 
REMARK       I    between atoms: N_2  and  C_11 
REMARK       I    between atoms: N_3  and  C_12 
ROOT
HETATM    1  N   UNK N   1      36.401  13.244  14.700  0.00  0.00    -0.225 N 
HETATM    2  N   UNK N   1      34.856  15.284  10.589  0.00  0.00    -0.225 N 
HETATM    3  N   UNK N   1      34.201  10.572  11.332  0.00  0.00    -0.225 N 
HETATM    4  N   UNK N   1      35.620  14.242  12.637  0.00  0.00    -0.021 N 
ATOM      5  HN  UNK N   1      35.969  15.146  12.956  1.00  0.00     0.203 HD
HETATM    6  N   UNK N   1      35.298  11.939  12.995  0.00  0.00    -0.021 N 
ATOM      7  HN  UNK N   1      35.404  11.112  13.584  1.00  0.00     0.203 HD
HETATM    8  N   UNK N   1      34.551  12.933  11.005  0.00  0.00    -0.021 N 
ATOM      9  HN  UNK N   1      34.096  12.855  10.096  1.00  0.00     0.203 HD
HETATM   10  C   UNK N   1      35.766  13.141  13.429  0.00  0.00     0.708 A 
HETATM   11  C   UNK N   1      35.012  14.140  11.423  0.00  0.00     0.708 A 
HETATM   12  C   UNK N   1      34.690  11.830  11.784  0.00  0.00     0.708 A 
HETATM   13  C   UNK N   1      36.556  12.082  15.539  0.00  0.00     0.168 C 
HETATM   14  C   UNK N   1      36.902  14.507  15.175  0.00  0.00     0.168 C 
HETATM   15  C   UNK N   1      34.212  15.167   9.305  0.00  0.00     0.168 C 
HETATM   16  C   UNK N   1      35.335  16.575  11.006  0.00  0.00     0.168 C 
HETATM   17  C   UNK N   1      33.557  10.457  10.048  0.00  0.00     0.168 C 
HETATM   18  C   UNK N   1      34.341   9.394  12.147  0.00  0.00     0.168 C 
ENDROOT
TORSDOF 0
ENDMDL
MODEL 9
REMARK VINA RESULT:      -4.4      2.371      5.064
REMARK  0 active torsions:
REMARK  status: ('A' for Active; 'I' for Inactive)
REMARK       I    between atoms: N_1  and  C_10 
REMARK       I    between atoms: N_2  and  C_11 
REMARK       I    between atoms: N_3  and  C_12 
ROOT
HETATM    1  N   UNK N   1      29.463  18.276   8.379  0.00  0.00    -0.225 N 
HETATM    2  N   UNK N   1      30.750  16.290   4.155  0.00  0.00    -0.225 N 
HETATM    3  N   UNK N   1      33.864  16.367   7.825  0.00  0.00    -0.225 N 
HETATM    4  N   UNK N   1      30.128  17.278   6.276  0.00  0.00    -0.021 N 
ATOM      5  HN  UNK N   1      29.210  17.501   5.893  1.00  0.00     0.203 HD
HETATM    6  N   UNK N   1      31.654  17.313   8.067  0.00  0.00    -0.021 N 
ATOM      7  HN  UNK N   1      31.882  17.562   9.030  1.00  0.00     0.203 HD
HETATM    8  N   UNK N   1      32.272  16.352   6.018  0.00  0.00    -0.021 N 
ATOM      9  HN  UNK N   1      32.965  15.878   5.438  1.00  0.00     0.203 HD
HETATM   10  C   UNK N   1      30.426  17.614   7.564  0.00  0.00     0.708 A 
HETATM   11  C   UNK N   1      31.052  16.645   5.500  0.00  0.00     0.708 A 
HETATM   12  C   UNK N   1      32.580  16.681   7.297  0.00  0.00     0.708 A 
HETATM   13  C   UNK N   1      29.775  18.633   9.740  0.00  0.00     0.168 C 
HETATM   14  C   UNK N   1      28.159  18.603   7.863  0.00  0.00     0.168 C 
HETATM   15  C   UNK N   1      31.733  15.621   3.340  0.00  0.00     0.168 C 
HETATM   16  C   UNK N   1      29.465  16.589   3.580  0.00  0.00     0.168 C 
HETATM   17  C   UNK N   1      34.846  15.698   7.010  0.00  0.00     0.168 C 
HETATM   18  C   UNK N   1      34.205  16.710   9.181  0.00  0.00     0.168 C 
ENDROOT
TORSDOF 0
ENDMDL
