REMARK  7 active torsions:
REMARK  status: ('A' for Active; 'I' for Inactive)
REMARK    1  A    between atoms: S_1  and  N_6 
REMARK    2  A    between atoms: O_2  and  C_7 
REMARK    3  A    between atoms: N_5  and  C_8 
REMARK    4  A    between atoms: N_5  and  C_9 
REMARK    5  A    between atoms: N_6  and  C_15 
REMARK    6  A    between atoms: C_7  and  C_8 
REMARK    7  A    between atoms: C_7  and  C_10 
ROOT
HETATM    1  C   UNK N   1       4.202  -1.210  -0.295  0.00  0.00    -0.028 A 
HETATM    2  C   UNK N   1       2.955  -0.625  -0.583  0.00  0.00     0.012 A 
HETATM    3  C   UNK N   1       5.253  -0.393   0.137  0.00  0.00     0.012 A 
HETATM    4  C   UNK N   1       3.820   1.562  -0.001  0.00  0.00     0.042 A 
HETATM    5  C   UNK N   1       2.769   0.752  -0.443  0.00  0.00     0.031 A 
HETATM    6  C   UNK N   1       5.062   0.980   0.293  0.00  0.00     0.031 A 
ENDROOT
BRANCH   1   7
HETATM    7  C   UNK N   1       4.444  -2.692  -0.459  0.00  0.00     0.168 C 
BRANCH   7   8
HETATM    8  O   UNK N   1       5.050  -3.218   0.685  0.00  0.00    -0.389 OA
HETATM    9  H   UNK N   1       4.944  -3.765   1.479  0.00  0.00     0.210 HD
ENDBRANCH   7   8
BRANCH   7  10
HETATM   10  C   UNK N   1       3.181  -3.492  -0.775  0.00  0.00     0.150 C 
BRANCH  10  11
HETATM   11  N   UNK N   1       2.302  -3.502   0.388  0.00  0.00    -0.415 N 
HETATM   12  H   UNK N   1       2.580  -3.313   1.350  0.00  0.00     0.153 HD
BRANCH  11  13
HETATM   13  C   UNK N   1       0.962  -3.826  -0.064  0.00  0.00     0.068 C 
HETATM   14  C   UNK N   1       0.710  -5.311   0.113  0.00  0.00     0.031 C 
HETATM   15  C   UNK N   1      -0.039  -3.052   0.769  0.00  0.00     0.031 C 
ENDBRANCH  11  13
ENDBRANCH  10  11
ENDBRANCH   7  10
ENDBRANCH   1   7
BRANCH   4  16
HETATM   16  N   UNK N   1       3.625   2.961   0.118  0.00  0.00    -0.285 N 
HETATM   17  H   UNK N   1       2.758   3.342  -0.152  0.00  0.00     0.178 HD
BRANCH  16  18
HETATM   18  S   UNK N   1       4.871   4.045   0.732  0.00  0.00     0.227 S 
HETATM   19  O   UNK N   1       5.367   3.817  -0.705  0.00  0.00    -0.206 OA
HETATM   20  O   UNK N   1       3.705   5.019   0.504  0.00  0.00    -0.206 OA
HETATM   21  C   UNK N   1       5.444   5.573  -0.057  0.00  0.00     0.186 C 
ENDBRANCH  16  18
ENDBRANCH   4  16
TORSDOF 7
