MODEL 1
REMARK VINA RESULT:      -5.7      0.000      0.000
REMARK  7 active torsions:
REMARK  status: ('A' for Active; 'I' for Inactive)
REMARK    1  A    between atoms: S_1  and  N_6 
REMARK    2  A    between atoms: O_2  and  C_7 
REMARK    3  A    between atoms: N_5  and  C_8 
REMARK    4  A    between atoms: N_5  and  C_9 
REMARK    5  A    between atoms: N_6  and  C_15 
REMARK    6  A    between atoms: C_7  and  C_8 
REMARK    7  A    between atoms: C_7  and  C_10 
ROOT
HETATM    1  C   UNK N   1      29.528  17.822   7.797  0.00  0.00    -0.028 A 
HETATM    2  C   UNK N   1      30.504  18.188   8.742  0.00  0.00     0.012 A 
HETATM    3  C   UNK N   1      29.918  17.107   6.659  0.00  0.00     0.012 A 
HETATM    4  C   UNK N   1      32.226  17.124   7.412  0.00  0.00     0.042 A 
HETATM    5  C   UNK N   1      31.844  17.847   8.546  0.00  0.00     0.031 A 
HETATM    6  C   UNK N   1      31.254  16.752   6.472  0.00  0.00     0.031 A 
ENDROOT
BRANCH   1   7
HETATM    7  C   UNK N   1      28.074  18.196   7.967  0.00  0.00     0.168 C 
BRANCH   7   8
HETATM    8  O   UNK N   1      27.749  18.291   9.322  0.00  0.00    -0.389 OA
HETATM    9  H   UNK N   1      28.078  18.318  10.234  0.00  0.00     0.210 HD
ENDBRANCH   7   8
BRANCH   7  10
HETATM   10  C   UNK N   1      27.686  19.495   7.262  0.00  0.00     0.150 C 
BRANCH  10  11
HETATM   11  N   UNK N   1      26.655  19.225   6.267  0.00  0.00    -0.415 N 
HETATM   12  H   UNK N   1      26.153  18.346   6.149  0.00  0.00     0.153 HD
BRANCH  11  13
HETATM   13  C   UNK N   1      26.468  20.426   5.475  0.00  0.00     0.068 C 
HETATM   14  C   UNK N   1      27.136  21.600   6.166  0.00  0.00     0.031 C 
HETATM   15  C   UNK N   1      27.106  20.224   4.116  0.00  0.00     0.031 C 
ENDBRANCH  11  13
ENDBRANCH  10  11
ENDBRANCH   7  10
ENDBRANCH   1   7
BRANCH   4  16
HETATM   16  N   UNK N   1      33.592  16.800   7.214  0.00  0.00    -0.285 N 
HETATM   17  H   UNK N   1      34.264  17.514   7.302  0.00  0.00     0.178 HD
BRANCH  16  18
HETATM   18  S   UNK N   1      34.135  15.171   6.818  0.00  0.00     0.227 S 
HETATM   19  O   UNK N   1      35.194  16.015   6.091  0.00  0.00    -0.206 OA
HETATM   20  O   UNK N   1      34.591  15.298   8.280  0.00  0.00    -0.206 OA
HETATM   21  C   UNK N   1      35.812  14.520   7.035  0.00  0.00     0.186 C 
ENDBRANCH  16  18
ENDBRANCH   4  16
TORSDOF 7
ENDMDL
MODEL 2
REMARK VINA RESULT:      -5.7      1.764      1.840
REMARK  7 active torsions:
REMARK  status: ('A' for Active; 'I' for Inactive)
REMARK    1  A    between atoms: S_1  and  N_6 
REMARK    2  A    between atoms: O_2  and  C_7 
REMARK    3  A    between atoms: N_5  and  C_8 
REMARK    4  A    between atoms: N_5  and  C_9 
REMARK    5  A    between atoms: N_6  and  C_15 
REMARK    6  A    between atoms: C_7  and  C_8 
REMARK    7  A    between atoms: C_7  and  C_10 
ROOT
HETATM    1  C   UNK N   1      29.419  17.319   7.148  0.00  0.00    -0.028 A 
HETATM    2  C   UNK N   1      29.541  18.003   8.372  0.00  0.00     0.012 A 
HETATM    3  C   UNK N   1      30.570  16.801   6.542  0.00  0.00     0.012 A 
HETATM    4  C   UNK N   1      31.935  17.637   8.367  0.00  0.00     0.042 A 
HETATM    5  C   UNK N   1      30.791  18.166   8.972  0.00  0.00     0.031 A 
HETATM    6  C   UNK N   1      31.816  16.949   7.150  0.00  0.00     0.031 A 
ENDROOT
BRANCH   1   7
HETATM    7  C   UNK N   1      28.086  17.146   6.460  0.00  0.00     0.168 C 
BRANCH   7   8
HETATM    8  O   UNK N   1      27.076  16.926   7.400  0.00  0.00    -0.389 OA
HETATM    9  H   UNK N   1      26.644  17.234   8.212  0.00  0.00     0.210 HD
ENDBRANCH   7   8
BRANCH   7  10
HETATM   10  C   UNK N   1      27.696  18.323   5.566  0.00  0.00     0.150 C 
BRANCH  10  11
HETATM   11  N   UNK N   1      26.674  19.125   6.228  0.00  0.00    -0.415 N 
HETATM   12  H   UNK N   1      26.140  18.853   7.051  0.00  0.00     0.153 HD
BRANCH  11  13
HETATM   13  C   UNK N   1      26.554  20.380   5.510  0.00  0.00     0.068 C 
HETATM   14  C   UNK N   1      27.362  21.451   6.216  0.00  0.00     0.031 C 
HETATM   15  C   UNK N   1      27.093  20.198   4.106  0.00  0.00     0.031 C 
ENDBRANCH  11  13
ENDBRANCH  10  11
ENDBRANCH   7  10
ENDBRANCH   1   7
BRANCH   4  16
HETATM   16  N   UNK N   1      33.202  17.826   8.975  0.00  0.00    -0.285 N 
HETATM   17  H   UNK N   1      33.342  18.623   9.536  0.00  0.00     0.178 HD
BRANCH  16  18
HETATM   18  S   UNK N   1      34.533  16.689   8.771  0.00  0.00     0.227 S 
HETATM   19  O   UNK N   1      35.197  17.759   9.653  0.00  0.00    -0.206 OA
HETATM   20  O   UNK N   1      33.655  15.950   9.792  0.00  0.00    -0.206 OA
HETATM   21  C   UNK N   1      35.540  15.972  10.096  0.00  0.00     0.186 C 
ENDBRANCH  16  18
ENDBRANCH   4  16
TORSDOF 7
ENDMDL
MODEL 3
REMARK VINA RESULT:      -5.7     11.513     13.985
REMARK  7 active torsions:
REMARK  status: ('A' for Active; 'I' for Inactive)
REMARK    1  A    between atoms: S_1  and  N_6 
REMARK    2  A    between atoms: O_2  and  C_7 
REMARK    3  A    between atoms: N_5  and  C_8 
REMARK    4  A    between atoms: N_5  and  C_9 
REMARK    5  A    between atoms: N_6  and  C_15 
REMARK    6  A    between atoms: C_7  and  C_8 
REMARK    7  A    between atoms: C_7  and  C_10 
ROOT
HETATM    1  C   UNK N   1      35.336  11.945  18.505  0.00  0.00    -0.028 A 
HETATM    2  C   UNK N   1      35.609  10.861  17.651  0.00  0.00     0.012 A 
HETATM    3  C   UNK N   1      35.081  13.203  17.946  0.00  0.00     0.012 A 
HETATM    4  C   UNK N   1      35.363  12.293  15.713  0.00  0.00     0.042 A 
HETATM    5  C   UNK N   1      35.629  11.036  16.266  0.00  0.00     0.031 A 
HETATM    6  C   UNK N   1      35.083  13.375  16.562  0.00  0.00     0.031 A 
ENDROOT
BRANCH   1   7
HETATM    7  C   UNK N   1      35.331  11.795  20.008  0.00  0.00     0.168 C 
BRANCH   7   8
HETATM    8  O   UNK N   1      34.831  12.951  20.613  0.00  0.00    -0.389 OA
HETATM    9  H   UNK N   1      34.637  13.896  20.517  0.00  0.00     0.210 HD
ENDBRANCH   7   8
BRANCH   7  10
HETATM   10  C   UNK N   1      34.544  10.583  20.504  0.00  0.00     0.150 C 
BRANCH  10  11
HETATM   11  N   UNK N   1      33.972  10.871  21.814  0.00  0.00    -0.415 N 
HETATM   12  H   UNK N   1      34.418  11.408  22.556  0.00  0.00     0.153 HD
BRANCH  11  13
HETATM   13  C   UNK N   1      32.657  10.263  21.873  0.00  0.00     0.068 C 
HETATM   14  C   UNK N   1      32.593   9.093  20.910  0.00  0.00     0.031 C 
HETATM   15  C   UNK N   1      32.411   9.759  23.281  0.00  0.00     0.031 C 
ENDBRANCH  11  13
ENDBRANCH  10  11
ENDBRANCH   7  10
ENDBRANCH   1   7
BRANCH   4  16
HETATM   16  N   UNK N   1      35.405  12.464  14.306  0.00  0.00    -0.285 N 
HETATM   17  H   UNK N   1      35.053  11.745  13.732  0.00  0.00     0.178 HD
BRANCH  16  18
HETATM   18  S   UNK N   1      36.059  13.912  13.544  0.00  0.00     0.227 S 
HETATM   19  O   UNK N   1      36.932  12.824  12.899  0.00  0.00    -0.206 OA
HETATM   20  O   UNK N   1      34.736  13.737  12.782  0.00  0.00    -0.206 OA
HETATM   21  C   UNK N   1      36.293  14.172  11.766  0.00  0.00     0.186 C 
ENDBRANCH  16  18
ENDBRANCH   4  16
TORSDOF 7
ENDMDL
MODEL 4
REMARK VINA RESULT:      -5.6     12.015     14.500
REMARK  7 active torsions:
REMARK  status: ('A' for Active; 'I' for Inactive)
REMARK    1  A    between atoms: S_1  and  N_6 
REMARK    2  A    between atoms: O_2  and  C_7 
REMARK    3  A    between atoms: N_5  and  C_8 
REMARK    4  A    between atoms: N_5  and  C_9 
REMARK    5  A    between atoms: N_6  and  C_15 
REMARK    6  A    between atoms: C_7  and  C_8 
REMARK    7  A    between atoms: C_7  and  C_10 
ROOT
HETATM    1  C   UNK N   1      35.609  11.203  18.980  0.00  0.00    -0.028 A 
HETATM    2  C   UNK N   1      35.226  12.556  19.039  0.00  0.00     0.012 A 
HETATM    3  C   UNK N   1      35.887  10.629  17.735  0.00  0.00     0.012 A 
HETATM    4  C   UNK N   1      35.411  12.738  16.630  0.00  0.00     0.042 A 
HETATM    5  C   UNK N   1      35.122  13.314  17.871  0.00  0.00     0.031 A 
HETATM    6  C   UNK N   1      35.799  11.391  16.570  0.00  0.00     0.031 A 
ENDROOT
BRANCH   1   7
HETATM    7  C   UNK N   1      35.708  10.348  20.222  0.00  0.00     0.168 C 
BRANCH   7   8
HETATM    8  O   UNK N   1      36.393  11.030  21.231  0.00  0.00    -0.389 OA
HETATM    9  H   UNK N   1      36.796  11.865  21.515  0.00  0.00     0.210 HD
ENDBRANCH   7   8
BRANCH   7  10
HETATM   10  C   UNK N   1      34.356   9.878  20.757  0.00  0.00     0.150 C 
BRANCH  10  11
HETATM   11  N   UNK N   1      33.955  10.716  21.881  0.00  0.00    -0.415 N 
HETATM   12  H   UNK N   1      34.547  11.386  22.369  0.00  0.00     0.153 HD
BRANCH  11  13
HETATM   13  C   UNK N   1      32.565  10.430  22.180  0.00  0.00     0.068 C 
HETATM   14  C   UNK N   1      32.072   9.307  21.288  0.00  0.00     0.031 C 
HETATM   15  C   UNK N   1      32.452   9.997  23.628  0.00  0.00     0.031 C 
ENDBRANCH  11  13
ENDBRANCH  10  11
ENDBRANCH   7  10
ENDBRANCH   1   7
BRANCH   4  16
HETATM   16  N   UNK N   1      35.282  13.512  15.450  0.00  0.00    -0.285 N 
HETATM   17  H   UNK N   1      34.652  14.269  15.448  0.00  0.00     0.178 HD
BRANCH  16  18
HETATM   18  S   UNK N   1      36.206  13.176  13.988  0.00  0.00     0.227 S 
HETATM   19  O   UNK N   1      34.793  13.346  13.406  0.00  0.00    -0.206 OA
HETATM   20  O   UNK N   1      36.600  14.634  14.269  0.00  0.00    -0.206 OA
HETATM   21  C   UNK N   1      36.194  14.159  12.465  0.00  0.00     0.186 C 
ENDBRANCH  16  18
ENDBRANCH   4  16
TORSDOF 7
ENDMDL
MODEL 5
REMARK VINA RESULT:      -5.6      2.710      3.376
REMARK  7 active torsions:
REMARK  status: ('A' for Active; 'I' for Inactive)
REMARK    1  A    between atoms: S_1  and  N_6 
REMARK    2  A    between atoms: O_2  and  C_7 
REMARK    3  A    between atoms: N_5  and  C_8 
REMARK    4  A    between atoms: N_5  and  C_9 
REMARK    5  A    between atoms: N_6  and  C_15 
REMARK    6  A    between atoms: C_7  and  C_8 
REMARK    7  A    between atoms: C_7  and  C_10 
ROOT
HETATM    1  C   UNK N   1      31.705  17.160   5.879  0.00  0.00    -0.028 A 
HETATM    2  C   UNK N   1      33.076  17.473   5.884  0.00  0.00     0.012 A 
HETATM    3  C   UNK N   1      31.070  16.860   7.090  0.00  0.00     0.012 A 
HETATM    4  C   UNK N   1      33.155  17.192   8.290  0.00  0.00     0.042 A 
HETATM    5  C   UNK N   1      33.796  17.482   7.081  0.00  0.00     0.031 A 
HETATM    6  C   UNK N   1      31.786  16.885   8.287  0.00  0.00     0.031 A 
ENDROOT
BRANCH   1   7
HETATM    7  C   UNK N   1      30.902  17.117   4.600  0.00  0.00     0.168 C 
BRANCH   7   8
HETATM    8  O   UNK N   1      31.139  15.923   3.913  0.00  0.00    -0.389 OA
HETATM    9  H   UNK N   1      30.823  15.029   3.712  0.00  0.00     0.210 HD
ENDBRANCH   7   8
BRANCH   7  10
HETATM   10  C   UNK N   1      29.398  17.290   4.809  0.00  0.00     0.150 C 
BRANCH  10  11
HETATM   11  N   UNK N   1      28.994  18.626   4.389  0.00  0.00    -0.415 N 
HETATM   12  H   UNK N   1      29.463  19.202   3.692  0.00  0.00     0.153 HD
BRANCH  11  13
HETATM   13  C   UNK N   1      27.805  18.991   5.137  0.00  0.00     0.068 C 
HETATM   14  C   UNK N   1      28.064  18.821   6.621  0.00  0.00     0.031 C 
HETATM   15  C   UNK N   1      27.474  20.443   4.856  0.00  0.00     0.031 C 
ENDBRANCH  11  13
ENDBRANCH  10  11
ENDBRANCH   7  10
ENDBRANCH   1   7
BRANCH   4  16
HETATM   16  N   UNK N   1      33.901  17.185   9.495  0.00  0.00    -0.285 N 
HETATM   17  H   UNK N   1      33.666  17.831  10.200  0.00  0.00     0.178 HD
BRANCH  16  18
HETATM   18  S   UNK N   1      35.229  16.063   9.784  0.00  0.00     0.227 S 
HETATM   19  O   UNK N   1      35.730  17.307  10.535  0.00  0.00    -0.206 OA
HETATM   20  O   UNK N   1      34.162  15.528  10.752  0.00  0.00    -0.206 OA
HETATM   21  C   UNK N   1      35.956  15.657  11.394  0.00  0.00     0.186 C 
ENDBRANCH  16  18
ENDBRANCH   4  16
TORSDOF 7
ENDMDL
MODEL 6
REMARK VINA RESULT:      -5.5     15.075     16.470
REMARK  7 active torsions:
REMARK  status: ('A' for Active; 'I' for Inactive)
REMARK    1  A    between atoms: S_1  and  N_6 
REMARK    2  A    between atoms: O_2  and  C_7 
REMARK    3  A    between atoms: N_5  and  C_8 
REMARK    4  A    between atoms: N_5  and  C_9 
REMARK    5  A    between atoms: N_6  and  C_15 
REMARK    6  A    between atoms: C_7  and  C_8 
REMARK    7  A    between atoms: C_7  and  C_10 
ROOT
HETATM    1  C   UNK N   1      25.896  27.312  -4.330  0.00  0.00    -0.028 A 
HETATM    2  C   UNK N   1      25.332  27.283  -5.620  0.00  0.00     0.012 A 
HETATM    3  C   UNK N   1      26.312  26.112  -3.742  0.00  0.00     0.012 A 
HETATM    4  C   UNK N   1      25.614  24.878  -5.713  0.00  0.00     0.042 A 
HETATM    5  C   UNK N   1      25.187  26.073  -6.302  0.00  0.00     0.031 A 
HETATM    6  C   UNK N   1      26.182  24.906  -4.431  0.00  0.00     0.031 A 
ENDROOT
BRANCH   1   7
HETATM    7  C   UNK N   1      26.045  28.600  -3.555  0.00  0.00     0.168 C 
BRANCH   7   8
HETATM    8  O   UNK N   1      26.707  28.369  -2.347  0.00  0.00    -0.389 OA
HETATM    9  H   UNK N   1      26.661  27.980  -1.459  0.00  0.00     0.210 HD
ENDBRANCH   7   8
BRANCH   7  10
HETATM   10  C   UNK N   1      26.768  29.704  -4.326  0.00  0.00     0.150 C 
BRANCH  10  11
HETATM   11  N   UNK N   1      28.160  29.770  -3.897  0.00  0.00    -0.415 N 
HETATM   12  H   UNK N   1      28.488  30.019  -2.965  0.00  0.00     0.153 HD
BRANCH  11  13
HETATM   13  C   UNK N   1      28.997  29.418  -5.029  0.00  0.00     0.068 C 
HETATM   14  C   UNK N   1      29.457  27.979  -4.894  0.00  0.00     0.031 C 
HETATM   15  C   UNK N   1      28.188  29.561  -6.302  0.00  0.00     0.031 C 
ENDBRANCH  11  13
ENDBRANCH  10  11
ENDBRANCH   7  10
ENDBRANCH   1   7
BRANCH   4  16
HETATM   16  N   UNK N   1      25.443  23.654  -6.408  0.00  0.00    -0.285 N 
HETATM   17  H   UNK N   1      24.990  22.910  -5.949  0.00  0.00     0.178 HD
BRANCH  16  18
HETATM   18  S   UNK N   1      26.008  23.412  -8.059  0.00  0.00     0.227 S 
HETATM   19  O   UNK N   1      26.597  22.173  -7.366  0.00  0.00    -0.206 OA
HETATM   20  O   UNK N   1      24.528  23.020  -8.183  0.00  0.00    -0.206 OA
HETATM   21  C   UNK N   1      25.814  21.904  -9.046  0.00  0.00     0.186 C 
ENDBRANCH  16  18
ENDBRANCH   4  16
TORSDOF 7
ENDMDL
MODEL 7
REMARK VINA RESULT:      -5.5      5.001      6.546
REMARK  7 active torsions:
REMARK  status: ('A' for Active; 'I' for Inactive)
REMARK    1  A    between atoms: S_1  and  N_6 
REMARK    2  A    between atoms: O_2  and  C_7 
REMARK    3  A    between atoms: N_5  and  C_8 
REMARK    4  A    between atoms: N_5  and  C_9 
REMARK    5  A    between atoms: N_6  and  C_15 
REMARK    6  A    between atoms: C_7  and  C_8 
REMARK    7  A    between atoms: C_7  and  C_10 
ROOT
HETATM    1  C   UNK N   1      34.465  16.885   9.354  0.00  0.00    -0.028 A 
HETATM    2  C   UNK N   1      35.374  17.061  10.413  0.00  0.00     0.012 A 
HETATM    3  C   UNK N   1      33.782  15.669   9.239  0.00  0.00     0.012 A 
HETATM    4  C   UNK N   1      34.902  14.827  11.222  0.00  0.00     0.042 A 
HETATM    5  C   UNK N   1      35.595  16.036  11.335  0.00  0.00     0.031 A 
HETATM    6  C   UNK N   1      33.990  14.651  10.170  0.00  0.00     0.031 A 
ENDROOT
BRANCH   1   7
HETATM    7  C   UNK N   1      34.221  17.964   8.325  0.00  0.00     0.168 C 
BRANCH   7   8
HETATM    8  O   UNK N   1      35.170  18.982   8.449  0.00  0.00    -0.389 OA
HETATM    9  H   UNK N   1      35.416  19.892   8.221  0.00  0.00     0.210 HD
ENDBRANCH   7   8
BRANCH   7  10
HETATM   10  C   UNK N   1      34.214  17.453   6.885  0.00  0.00     0.150 C 
BRANCH  10  11
HETATM   11  N   UNK N   1      32.875  17.586   6.323  0.00  0.00    -0.415 N 
HETATM   12  H   UNK N   1      32.155  18.234   6.639  0.00  0.00     0.153 HD
BRANCH  11  13
HETATM   13  C   UNK N   1      32.749  16.637   5.233  0.00  0.00     0.068 C 
HETATM   14  C   UNK N   1      32.472  17.379   3.940  0.00  0.00     0.031 C 
HETATM   15  C   UNK N   1      34.048  15.870   5.094  0.00  0.00     0.031 C 
ENDBRANCH  11  13
ENDBRANCH  10  11
ENDBRANCH   7  10
ENDBRANCH   1   7
BRANCH   4  16
HETATM   16  N   UNK N   1      35.150  13.787  12.152  0.00  0.00    -0.285 N 
HETATM   17  H   UNK N   1      34.799  12.887  11.959  0.00  0.00     0.178 HD
BRANCH  16  18
HETATM   18  S   UNK N   1      36.061  14.039  13.639  0.00  0.00     0.227 S 
HETATM   19  O   UNK N   1      34.789  13.373  14.188  0.00  0.00    -0.206 OA
HETATM   20  O   UNK N   1      36.798  12.837  13.030  0.00  0.00    -0.206 OA
HETATM   21  C   UNK N   1      36.419  12.787  14.900  0.00  0.00     0.186 C 
ENDBRANCH  16  18
ENDBRANCH   4  16
TORSDOF 7
ENDMDL
MODEL 8
REMARK VINA RESULT:      -5.5      3.781      7.294
REMARK  7 active torsions:
REMARK  status: ('A' for Active; 'I' for Inactive)
REMARK    1  A    between atoms: S_1  and  N_6 
REMARK    2  A    between atoms: O_2  and  C_7 
REMARK    3  A    between atoms: N_5  and  C_8 
REMARK    4  A    between atoms: N_5  and  C_9 
REMARK    5  A    between atoms: N_6  and  C_15 
REMARK    6  A    between atoms: C_7  and  C_8 
REMARK    7  A    between atoms: C_7  and  C_10 
ROOT
HETATM    1  C   UNK N   1      33.174  17.323   6.675  0.00  0.00    -0.028 A 
HETATM    2  C   UNK N   1      33.415  17.511   5.301  0.00  0.00     0.012 A 
HETATM    3  C   UNK N   1      31.860  17.125   7.114  0.00  0.00     0.012 A 
HETATM    4  C   UNK N   1      31.049  17.293   4.832  0.00  0.00     0.042 A 
HETATM    5  C   UNK N   1      32.358  17.502   4.389  0.00  0.00     0.031 A 
HETATM    6  C   UNK N   1      30.807  17.099   6.200  0.00  0.00     0.031 A 
ENDROOT
BRANCH   1   7
HETATM    7  C   UNK N   1      34.291  17.351   7.692  0.00  0.00     0.168 C 
BRANCH   7   8
HETATM    8  O   UNK N   1      34.826  18.638   7.795  0.00  0.00    -0.389 OA
HETATM    9  H   UNK N   1      34.806  19.488   8.261  0.00  0.00     0.210 HD
ENDBRANCH   7   8
BRANCH   7  10
HETATM   10  C   UNK N   1      33.875  16.864   9.079  0.00  0.00     0.150 C 
BRANCH  10  11
HETATM   11  N   UNK N   1      34.886  17.246  10.057  0.00  0.00    -0.415 N 
HETATM   12  H   UNK N   1      35.348  18.152  10.118  0.00  0.00     0.153 HD
BRANCH  11  13
HETATM   13  C   UNK N   1      35.118  16.111  10.931  0.00  0.00     0.068 C 
HETATM   14  C   UNK N   1      34.033  15.073  10.715  0.00  0.00     0.031 C 
HETATM   15  C   UNK N   1      36.462  15.498  10.596  0.00  0.00     0.031 C 
ENDBRANCH  11  13
ENDBRANCH  10  11
ENDBRANCH   7  10
ENDBRANCH   1   7
BRANCH   4  16
HETATM   16  N   UNK N   1      29.982  17.306   3.898  0.00  0.00    -0.285 N 
HETATM   17  H   UNK N   1      29.987  17.984   3.184  0.00  0.00     0.178 HD
BRANCH  16  18
HETATM   18  S   UNK N   1      28.649  16.156   3.963  0.00  0.00     0.227 S 
HETATM   19  O   UNK N   1      27.885  17.474   3.758  0.00  0.00    -0.206 OA
HETATM   20  O   UNK N   1      29.204  15.900   2.554  0.00  0.00    -0.206 OA
HETATM   21  C   UNK N   1      27.308  16.003   2.753  0.00  0.00     0.186 C 
ENDBRANCH  16  18
ENDBRANCH   4  16
TORSDOF 7
ENDMDL
MODEL 9
REMARK VINA RESULT:      -5.4      4.045      5.308
REMARK  7 active torsions:
REMARK  status: ('A' for Active; 'I' for Inactive)
REMARK    1  A    between atoms: S_1  and  N_6 
REMARK    2  A    between atoms: O_2  and  C_7 
REMARK    3  A    between atoms: N_5  and  C_8 
REMARK    4  A    between atoms: N_5  and  C_9 
REMARK    5  A    between atoms: N_6  and  C_15 
REMARK    6  A    between atoms: C_7  and  C_8 
REMARK    7  A    between atoms: C_7  and  C_10 
ROOT
HETATM    1  C   UNK N   1      31.879  17.256   5.946  0.00  0.00    -0.028 A 
HETATM    2  C   UNK N   1      33.261  17.522   5.965  0.00  0.00     0.012 A 
HETATM    3  C   UNK N   1      31.224  16.974   7.151  0.00  0.00     0.012 A 
HETATM    4  C   UNK N   1      33.308  17.231   8.370  0.00  0.00     0.042 A 
HETATM    5  C   UNK N   1      33.970  17.503   7.168  0.00  0.00     0.031 A 
HETATM    6  C   UNK N   1      31.930  16.972   8.354  0.00  0.00     0.031 A 
ENDROOT
BRANCH   1   7
HETATM    7  C   UNK N   1      31.087  17.244   4.660  0.00  0.00     0.168 C 
BRANCH   7   8
HETATM    8  O   UNK N   1      31.655  18.118   3.729  0.00  0.00    -0.389 OA
HETATM    9  H   UNK N   1      32.121  18.209   2.883  0.00  0.00     0.210 HD
ENDBRANCH   7   8
BRANCH   7  10
HETATM   10  C   UNK N   1      30.949  15.858   4.033  0.00  0.00     0.150 C 
BRANCH  10  11
HETATM   11  N   UNK N   1      32.029  15.640   3.079  0.00  0.00    -0.415 N 
HETATM   12  H   UNK N   1      32.287  16.262   2.314  0.00  0.00     0.153 HD
BRANCH  11  13
HETATM   13  C   UNK N   1      32.675  14.383   3.411  0.00  0.00     0.068 C 
HETATM   14  C   UNK N   1      34.056  14.654   3.975  0.00  0.00     0.031 C 
HETATM   15  C   UNK N   1      31.846  13.665   4.456  0.00  0.00     0.031 C 
ENDBRANCH  11  13
ENDBRANCH  10  11
ENDBRANCH   7  10
ENDBRANCH   1   7
BRANCH   4  16
HETATM   16  N   UNK N   1      34.042  17.194   9.582  0.00  0.00    -0.285 N 
HETATM   17  H   UNK N   1      33.831  17.854  10.283  0.00  0.00     0.178 HD
BRANCH  16  18
HETATM   18  S   UNK N   1      35.315  16.015   9.887  0.00  0.00     0.227 S 
HETATM   19  O   UNK N   1      35.885  17.249  10.605  0.00  0.00    -0.206 OA
HETATM   20  O   UNK N   1      34.232  15.556  10.875  0.00  0.00    -0.206 OA
HETATM   21  C   UNK N   1      36.035  15.610  11.500  0.00  0.00     0.186 C 
ENDBRANCH  16  18
ENDBRANCH   4  16
TORSDOF 7
ENDMDL
