MODEL 1
REMARK VINA RESULT:      -7.6      0.000      0.000
REMARK  5 active torsions:
REMARK  status: ('A' for Active; 'I' for Inactive)
REMARK    1  A    between atoms: N_3  and  C_19 
REMARK    2  A    between atoms: N_4  and  C_22 
REMARK       I    between atoms: N_5  and  C_27 
REMARK    3  A    between atoms: C_19  and  C_20 
REMARK    4  A    between atoms: C_20  and  C_21 
REMARK    5  A    between atoms: C_21  and  C_22 
ROOT
HETATM    1  C   UNK N   1      36.604  12.679  10.091  0.00  0.00     0.032 C 
ENDROOT
BRANCH   1   2
HETATM    2  C   UNK N   1      36.123  11.852  11.272  0.00  0.00     0.022 C 
BRANCH   2   3
HETATM    3  C   UNK N   1      35.072  12.639  12.043  0.00  0.00     0.135 C 
BRANCH   3   4
HETATM    4  N   UNK N   1      34.995  12.433  13.496  0.00  0.00    -0.288 N 
HETATM    5  C   UNK N   1      35.646  13.349  14.288  0.00  0.00     0.227 C 
HETATM    6  O   UNK N   1      36.245  14.287  13.778  0.00  0.00    -0.273 OA
HETATM    7  C   UNK N   1      35.642  13.248  15.790  0.00  0.00     0.113 C 
HETATM    8  C   UNK N   1      35.431  11.822  16.266  0.00  0.00    -0.024 C 
HETATM    9  C   UNK N   1      35.247  11.783  17.765  0.00  0.00     0.010 C 
HETATM   10  C   UNK N   1      36.654  10.951  16.042  0.00  0.00     0.010 C 
HETATM   11  C   UNK N   1      34.205  11.247  15.572  0.00  0.00     0.113 C 
HETATM   12  C   UNK N   1      35.655  10.380  18.185  0.00  0.00     0.001 C 
HETATM   13  C   UNK N   1      36.525   9.833  17.061  0.00  0.00     0.001 C 
HETATM   14  C   UNK N   1      34.303  11.383  14.078  0.00  0.00     0.227 C 
HETATM   15  O   UNK N   1      33.739  10.540  13.400  0.00  0.00    -0.273 OA
ENDBRANCH   3   4
ENDBRANCH   2   3
ENDBRANCH   1   2
BRANCH   1  16
HETATM   16  C   UNK N   1      36.819  14.155  10.455  0.00  0.00     0.272 C 
BRANCH  16  17
HETATM   17  N   UNK N   1      36.167  15.095   9.540  0.00  0.00     0.091 N 
HETATM   18  C   UNK N   1      35.241  14.394   8.644  0.00  0.00     0.292 C 
HETATM   19  C   UNK N   1      34.675  15.394   7.650  0.00  0.00     0.171 C 
HETATM   20  N   UNK N   1      33.997  16.419   8.404  0.00  0.00    -0.214 N 
HETATM   21  C   UNK N   1      34.725  17.090   9.462  0.00  0.00     0.171 C 
HETATM   22  C   UNK N   1      32.627  16.702   8.149  0.00  0.00     0.679 A 
HETATM   23  C   UNK N   1      35.397  16.041  10.357  0.00  0.00     0.292 C 
HETATM   24  N   UNK N   1      31.980  16.068   7.131  0.00  0.00    -0.202 N 
HETATM   25  N   UNK N   1      31.958  17.614   8.908  0.00  0.00    -0.202 N 
HETATM   26  C   UNK N   1      30.676  16.328   6.859  0.00  0.00     0.107 A 
ATOM     27  HN  UNK N   1      32.484  15.384   6.565  1.00  0.00     0.183 HD
HETATM   28  C   UNK N   1      29.980  17.256   7.629  0.00  0.00     0.035 A 
HETATM   29  C   UNK N   1      30.652  17.897   8.667  0.00  0.00     0.107 A 
ATOM     30  HN  UNK N   1      32.445  18.090   9.669  1.00  0.00     0.183 HD
ENDBRANCH  16  17
ENDBRANCH   1  16
TORSDOF 5
ENDMDL
MODEL 2
REMARK VINA RESULT:      -7.4      3.366     10.180
REMARK  5 active torsions:
REMARK  status: ('A' for Active; 'I' for Inactive)
REMARK    1  A    between atoms: N_3  and  C_19 
REMARK    2  A    between atoms: N_4  and  C_22 
REMARK       I    between atoms: N_5  and  C_27 
REMARK    3  A    between atoms: C_19  and  C_20 
REMARK    4  A    between atoms: C_20  and  C_21 
REMARK    5  A    between atoms: C_21  and  C_22 
ROOT
HETATM    1  C   UNK N   1      34.110  17.400   7.493  0.00  0.00     0.032 C 
ENDROOT
BRANCH   1   2
HETATM    2  C   UNK N   1      32.955  17.272   6.514  0.00  0.00     0.022 C 
BRANCH   2   3
HETATM    3  C   UNK N   1      31.882  16.375   7.115  0.00  0.00     0.135 C 
BRANCH   3   4
HETATM    4  N   UNK N   1      30.481  16.670   6.784  0.00  0.00    -0.288 N 
HETATM    5  C   UNK N   1      29.927  15.960   5.745  0.00  0.00     0.227 C 
HETATM    6  O   UNK N   1      30.590  15.122   5.150  0.00  0.00    -0.273 OA
HETATM    7  C   UNK N   1      28.501  16.171   5.309  0.00  0.00     0.113 C 
HETATM    8  C   UNK N   1      27.996  17.560   5.655  0.00  0.00    -0.024 C 
HETATM    9  C   UNK N   1      26.516  17.674   5.375  0.00  0.00     0.010 C 
HETATM   10  C   UNK N   1      28.604  18.633   4.770  0.00  0.00     0.010 C 
HETATM   11  C   UNK N   1      28.274  17.831   7.127  0.00  0.00     0.113 C 
HETATM   12  C   UNK N   1      26.261  19.157   5.160  0.00  0.00     0.001 C 
HETATM   13  C   UNK N   1      27.606  19.778   4.810  0.00  0.00     0.001 C 
HETATM   14  C   UNK N   1      29.721  17.606   7.466  0.00  0.00     0.227 C 
HETATM   15  O   UNK N   1      30.194  18.270   8.374  0.00  0.00    -0.273 OA
ENDBRANCH   3   4
ENDBRANCH   2   3
ENDBRANCH   1   2
BRANCH   1  16
HETATM   16  C   UNK N   1      33.715  17.008   8.924  0.00  0.00     0.272 C 
BRANCH  16  17
HETATM   17  N   UNK N   1      34.628  16.050   9.552  0.00  0.00     0.091 N 
HETATM   18  C   UNK N   1      35.382  16.683  10.639  0.00  0.00     0.292 C 
HETATM   19  C   UNK N   1      36.386  15.680  11.183  0.00  0.00     0.171 C 
HETATM   20  N   UNK N   1      35.645  14.538  11.657  0.00  0.00    -0.214 N 
HETATM   21  C   UNK N   1      34.709  13.902  10.753  0.00  0.00     0.171 C 
HETATM   22  C   UNK N   1      35.789  14.104  13.003  0.00  0.00     0.679 A 
HETATM   23  C   UNK N   1      33.810  14.971  10.120  0.00  0.00     0.292 C 
HETATM   24  N   UNK N   1      36.695  14.713  13.820  0.00  0.00    -0.202 N 
HETATM   25  N   UNK N   1      35.036  13.075  13.481  0.00  0.00    -0.202 N 
HETATM   26  C   UNK N   1      36.861  14.311  15.105  0.00  0.00     0.107 A 
ATOM     27  HN  UNK N   1      37.257  15.484  13.459  1.00  0.00     0.183 HD
HETATM   28  C   UNK N   1      36.096  13.262  15.608  0.00  0.00     0.035 A 
HETATM   29  C   UNK N   1      35.172  12.649  14.764  0.00  0.00     0.107 A 
ATOM     30  HN  UNK N   1      34.359  12.619  12.868  1.00  0.00     0.183 HD
ENDBRANCH  16  17
ENDBRANCH   1  16
TORSDOF 5
ENDMDL
MODEL 3
REMARK VINA RESULT:      -7.3      4.085     10.886
REMARK  5 active torsions:
REMARK  status: ('A' for Active; 'I' for Inactive)
REMARK    1  A    between atoms: N_3  and  C_19 
REMARK    2  A    between atoms: N_4  and  C_22 
REMARK       I    between atoms: N_5  and  C_27 
REMARK    3  A    between atoms: C_19  and  C_20 
REMARK    4  A    between atoms: C_20  and  C_21 
REMARK    5  A    between atoms: C_21  and  C_22 
ROOT
HETATM    1  C   UNK N   1      32.182  16.328   8.322  0.00  0.00     0.032 C 
ENDROOT
BRANCH   1   2
HETATM    2  C   UNK N   1      31.227  17.506   8.237  0.00  0.00     0.022 C 
BRANCH   2   3
HETATM    3  C   UNK N   1      29.897  17.037   7.664  0.00  0.00     0.135 C 
BRANCH   3   4
HETATM    4  N   UNK N   1      29.163  17.966   6.793  0.00  0.00    -0.288 N 
HETATM    5  C   UNK N   1      28.308  18.849   7.409  0.00  0.00     0.227 C 
HETATM    6  O   UNK N   1      28.191  18.844   8.627  0.00  0.00    -0.273 OA
HETATM    7  C   UNK N   1      27.499  19.850   6.626  0.00  0.00     0.113 C 
HETATM    8  C   UNK N   1      27.248  19.393   5.200  0.00  0.00    -0.024 C 
HETATM    9  C   UNK N   1      26.600  20.494   4.395  0.00  0.00     0.010 C 
HETATM   10  C   UNK N   1      26.237  18.264   5.125  0.00  0.00     0.010 C 
HETATM   11  C   UNK N   1      28.575  18.994   4.571  0.00  0.00     0.113 C 
HETATM   12  C   UNK N   1      25.864  19.789   3.267  0.00  0.00     0.001 C 
HETATM   13  C   UNK N   1      25.666  18.348   3.720  0.00  0.00     0.001 C 
HETATM   14  C   UNK N   1      29.305  17.986   5.415  0.00  0.00     0.227 C 
HETATM   15  O   UNK N   1      30.035  17.196   4.839  0.00  0.00    -0.273 OA
ENDBRANCH   3   4
ENDBRANCH   2   3
ENDBRANCH   1   2
BRANCH   1  16
HETATM   16  C   UNK N   1      33.511  16.593   7.601  0.00  0.00     0.272 C 
BRANCH  16  17
HETATM   17  N   UNK N   1      34.696  16.322   8.417  0.00  0.00     0.091 N 
HETATM   18  C   UNK N   1      34.475  16.726   9.810  0.00  0.00     0.292 C 
HETATM   19  C   UNK N   1      35.765  16.524  10.586  0.00  0.00     0.171 C 
HETATM   20  N   UNK N   1      36.112  15.127  10.496  0.00  0.00    -0.214 N 
HETATM   21  C   UNK N   1      36.194  14.523   9.182  0.00  0.00     0.171 C 
HETATM   22  C   UNK N   1      36.297  14.361  11.679  0.00  0.00     0.679 A 
HETATM   23  C   UNK N   1      34.931  14.874   8.384  0.00  0.00     0.292 C 
HETATM   24  N   UNK N   1      36.234  14.967  12.898  0.00  0.00    -0.202 N 
HETATM   25  N   UNK N   1      36.548  13.025  11.603  0.00  0.00    -0.202 N 
HETATM   26  C   UNK N   1      36.418  14.262  14.042  0.00  0.00     0.107 A 
ATOM     27  HN  UNK N   1      36.044  15.968  12.951  1.00  0.00     0.183 HD
HETATM   28  C   UNK N   1      36.674  12.895  13.980  0.00  0.00     0.035 A 
HETATM   29  C   UNK N   1      36.734  12.286  12.728  0.00  0.00     0.107 A 
ATOM     30  HN  UNK N   1      36.597  12.572  10.690  1.00  0.00     0.183 HD
ENDBRANCH  16  17
ENDBRANCH   1  16
TORSDOF 5
ENDMDL
MODEL 4
REMARK VINA RESULT:      -7.2      1.994      2.979
REMARK  5 active torsions:
REMARK  status: ('A' for Active; 'I' for Inactive)
REMARK    1  A    between atoms: N_3  and  C_19 
REMARK    2  A    between atoms: N_4  and  C_22 
REMARK       I    between atoms: N_5  and  C_27 
REMARK    3  A    between atoms: C_19  and  C_20 
REMARK    4  A    between atoms: C_20  and  C_21 
REMARK    5  A    between atoms: C_21  and  C_22 
ROOT
HETATM    1  C   UNK N   1      34.421  13.277   7.825  0.00  0.00     0.032 C 
ENDROOT
BRANCH   1   2
HETATM    2  C   UNK N   1      35.372  12.650   8.831  0.00  0.00     0.022 C 
BRANCH   2   3
HETATM    3  C   UNK N   1      34.603  12.288  10.094  0.00  0.00     0.135 C 
BRANCH   3   4
HETATM    4  N   UNK N   1      35.236  12.583  11.387  0.00  0.00    -0.288 N 
HETATM    5  C   UNK N   1      36.071  11.620  11.903  0.00  0.00     0.227 C 
HETATM    6  O   UNK N   1      36.265  10.580  11.287  0.00  0.00    -0.273 OA
HETATM    7  C   UNK N   1      36.779  11.803  13.220  0.00  0.00     0.113 C 
HETATM    8  C   UNK N   1      36.042  12.763  14.136  0.00  0.00    -0.024 C 
HETATM    9  C   UNK N   1      36.868  13.066  15.364  0.00  0.00     0.010 C 
HETATM   10  C   UNK N   1      34.774  12.156  14.709  0.00  0.00     0.010 C 
HETATM   11  C   UNK N   1      35.748  14.045  13.372  0.00  0.00     0.113 C 
HETATM   12  C   UNK N   1      35.868  13.483  16.430  0.00  0.00     0.001 C 
HETATM   13  C   UNK N   1      34.518  12.932  15.989  0.00  0.00     0.001 C 
HETATM   14  C   UNK N   1      35.032  13.765  12.079  0.00  0.00     0.227 C 
HETATM   15  O   UNK N   1      34.276  14.626  11.660  0.00  0.00    -0.273 OA
ENDBRANCH   3   4
ENDBRANCH   2   3
ENDBRANCH   1   2
BRANCH   1  16
HETATM   16  C   UNK N   1      35.082  14.396   7.009  0.00  0.00     0.272 C 
BRANCH  16  17
HETATM   17  N   UNK N   1      34.340  15.660   7.021  0.00  0.00     0.091 N 
HETATM   18  C   UNK N   1      33.065  15.524   6.309  0.00  0.00     0.292 C 
HETATM   19  C   UNK N   1      32.389  16.884   6.258  0.00  0.00     0.171 C 
HETATM   20  N   UNK N   1      32.184  17.317   7.618  0.00  0.00    -0.214 N 
HETATM   21  C   UNK N   1      33.323  17.334   8.513  0.00  0.00     0.171 C 
HETATM   22  C   UNK N   1      30.878  17.649   8.071  0.00  0.00     0.679 A 
HETATM   23  C   UNK N   1      34.057  15.990   8.423  0.00  0.00     0.292 C 
HETATM   24  N   UNK N   1      29.833  17.644   7.196  0.00  0.00    -0.202 N 
HETATM   25  N   UNK N   1      30.664  17.985   9.374  0.00  0.00    -0.202 N 
HETATM   26  C   UNK N   1      28.579  17.967   7.600  0.00  0.00     0.107 A 
ATOM     27  HN  UNK N   1      29.997  17.390   6.221  1.00  0.00     0.183 HD
HETATM   28  C   UNK N   1      28.345  18.310   8.929  0.00  0.00     0.035 A 
HETATM   29  C   UNK N   1      29.421  18.311   9.814  0.00  0.00     0.107 A 
ATOM     30  HN  UNK N   1      31.448  17.990  10.028  1.00  0.00     0.183 HD
ENDBRANCH  16  17
ENDBRANCH   1  16
TORSDOF 5
ENDMDL
MODEL 5
REMARK VINA RESULT:      -7.2      2.624      9.522
REMARK  5 active torsions:
REMARK  status: ('A' for Active; 'I' for Inactive)
REMARK    1  A    between atoms: N_3  and  C_19 
REMARK    2  A    between atoms: N_4  and  C_22 
REMARK       I    between atoms: N_5  and  C_27 
REMARK    3  A    between atoms: C_19  and  C_20 
REMARK    4  A    between atoms: C_20  and  C_21 
REMARK    5  A    between atoms: C_21  and  C_22 
ROOT
HETATM    1  C   UNK N   1      36.059  14.382   9.488  0.00  0.00     0.032 C 
ENDROOT
BRANCH   1   2
HETATM    2  C   UNK N   1      34.804  15.110   9.036  0.00  0.00     0.022 C 
BRANCH   2   3
HETATM    3  C   UNK N   1      34.699  15.038   7.518  0.00  0.00     0.135 C 
BRANCH   3   4
HETATM    4  N   UNK N   1      33.463  15.532   6.896  0.00  0.00    -0.288 N 
HETATM    5  C   UNK N   1      33.522  16.768   6.296  0.00  0.00     0.227 C 
HETATM    6  O   UNK N   1      34.571  17.399   6.289  0.00  0.00    -0.273 OA
HETATM    7  C   UNK N   1      32.323  17.384   5.624  0.00  0.00     0.113 C 
HETATM    8  C   UNK N   1      31.017  16.859   6.191  0.00  0.00    -0.024 C 
HETATM    9  C   UNK N   1      29.846  17.353   5.375  0.00  0.00     0.010 C 
HETATM   10  C   UNK N   1      30.730  17.401   7.579  0.00  0.00     0.010 C 
HETATM   11  C   UNK N   1      31.055  15.337   6.186  0.00  0.00     0.113 C 
HETATM   12  C   UNK N   1      28.653  17.310   6.316  0.00  0.00     0.001 C 
HETATM   13  C   UNK N   1      29.221  17.302   7.729  0.00  0.00     0.001 C 
HETATM   14  C   UNK N   1      32.279  14.814   6.887  0.00  0.00     0.227 C 
HETATM   15  O   UNK N   1      32.189  13.728   7.434  0.00  0.00    -0.273 OA
ENDBRANCH   3   4
ENDBRANCH   2   3
ENDBRANCH   1   2
BRANCH   1  16
HETATM   16  C   UNK N   1      35.749  13.184  10.397  0.00  0.00     0.272 C 
BRANCH  16  17
HETATM   17  N   UNK N   1      36.396  13.250  11.709  0.00  0.00     0.091 N 
HETATM   18  C   UNK N   1      35.603  14.055  12.644  0.00  0.00     0.292 C 
HETATM   19  C   UNK N   1      36.368  14.179  13.950  0.00  0.00     0.171 C 
HETATM   20  N   UNK N   1      36.579  12.847  14.458  0.00  0.00    -0.214 N 
HETATM   21  C   UNK N   1      37.194  11.868  13.585  0.00  0.00     0.171 C 
HETATM   22  C   UNK N   1      36.126  12.501  15.761  0.00  0.00     0.679 A 
HETATM   23  C   UNK N   1      36.478  11.879  12.229  0.00  0.00     0.292 C 
HETATM   24  N   UNK N   1      35.572  13.453  16.563  0.00  0.00    -0.202 N 
HETATM   25  N   UNK N   1      36.252  11.224  16.218  0.00  0.00    -0.202 N 
HETATM   26  C   UNK N   1      35.142  13.152  17.814  0.00  0.00     0.107 A 
ATOM     27  HN  UNK N   1      35.478  14.408  16.217  1.00  0.00     0.183 HD
HETATM   28  C   UNK N   1      35.263  11.851  18.294  0.00  0.00     0.035 A 
HETATM   29  C   UNK N   1      35.829  10.886  17.464  0.00  0.00     0.107 A 
ATOM     30  HN  UNK N   1      36.669  10.512  15.617  1.00  0.00     0.183 HD
ENDBRANCH  16  17
ENDBRANCH   1  16
TORSDOF 5
ENDMDL
MODEL 6
REMARK VINA RESULT:      -7.2      2.289      9.201
REMARK  5 active torsions:
REMARK  status: ('A' for Active; 'I' for Inactive)
REMARK    1  A    between atoms: N_3  and  C_19 
REMARK    2  A    between atoms: N_4  and  C_22 
REMARK       I    between atoms: N_5  and  C_27 
REMARK    3  A    between atoms: C_19  and  C_20 
REMARK    4  A    between atoms: C_20  and  C_21 
REMARK    5  A    between atoms: C_21  and  C_22 
ROOT
HETATM    1  C   UNK N   1      37.065  12.934  10.432  0.00  0.00     0.032 C 
ENDROOT
BRANCH   1   2
HETATM    2  C   UNK N   1      37.042  14.433  10.180  0.00  0.00     0.022 C 
BRANCH   2   3
HETATM    3  C   UNK N   1      35.603  14.930  10.227  0.00  0.00     0.135 C 
BRANCH   3   4
HETATM    4  N   UNK N   1      35.066  15.581   9.025  0.00  0.00    -0.288 N 
HETATM    5  C   UNK N   1      34.969  16.952   9.053  0.00  0.00     0.227 C 
HETATM    6  O   UNK N   1      35.329  17.574  10.043  0.00  0.00    -0.273 OA
HETATM    7  C   UNK N   1      34.433  17.736   7.884  0.00  0.00     0.113 C 
HETATM    8  C   UNK N   1      33.497  16.909   7.022  0.00  0.00    -0.024 C 
HETATM    9  C   UNK N   1      33.128  17.660   5.764  0.00  0.00     0.010 C 
HETATM   10  C   UNK N   1      32.156  16.669   7.691  0.00  0.00     0.010 C 
HETATM   11  C   UNK N   1      34.182  15.597   6.667  0.00  0.00     0.113 C 
HETATM   12  C   UNK N   1      31.798  17.073   5.320  0.00  0.00     0.001 C 
HETATM   13  C   UNK N   1      31.193  16.404   6.547  0.00  0.00     0.001 C 
HETATM   14  C   UNK N   1      34.673  14.882   7.896  0.00  0.00     0.227 C 
HETATM   15  O   UNK N   1      34.722  13.664   7.852  0.00  0.00    -0.273 OA
ENDBRANCH   3   4
ENDBRANCH   2   3
ENDBRANCH   1   2
BRANCH   1  16
HETATM   16  C   UNK N   1      37.576  12.581  11.835  0.00  0.00     0.272 C 
BRANCH  16  17
HETATM   17  N   UNK N   1      36.513  12.305  12.804  0.00  0.00     0.091 N 
HETATM   18  C   UNK N   1      36.894  11.208  13.700  0.00  0.00     0.292 C 
HETATM   19  C   UNK N   1      35.720  10.893  14.611  0.00  0.00     0.171 C 
HETATM   20  N   UNK N   1      35.412  12.090  15.353  0.00  0.00    -0.214 N 
HETATM   21  C   UNK N   1      35.187  13.316  14.616  0.00  0.00     0.171 C 
HETATM   22  C   UNK N   1      35.404  12.064  16.774  0.00  0.00     0.679 A 
HETATM   23  C   UNK N   1      36.325  13.519  13.609  0.00  0.00     0.292 C 
HETATM   24  N   UNK N   1      35.599  10.888  17.434  0.00  0.00    -0.202 N 
HETATM   25  N   UNK N   1      35.191  13.208  17.483  0.00  0.00    -0.202 N 
HETATM   26  C   UNK N   1      35.585  10.834  18.790  0.00  0.00     0.107 A 
ATOM     27  HN  UNK N   1      35.760  10.034  16.900  1.00  0.00     0.183 HD
HETATM   28  C   UNK N   1      35.370  11.995  19.528  0.00  0.00     0.035 A 
HETATM   29  C   UNK N   1      35.174  13.192  18.842  0.00  0.00     0.107 A 
ATOM     30  HN  UNK N   1      35.043  14.088  16.988  1.00  0.00     0.183 HD
ENDBRANCH  16  17
ENDBRANCH   1  16
TORSDOF 5
ENDMDL
MODEL 7
REMARK VINA RESULT:      -6.9      1.799      2.459
REMARK  5 active torsions:
REMARK  status: ('A' for Active; 'I' for Inactive)
REMARK    1  A    between atoms: N_3  and  C_19 
REMARK    2  A    between atoms: N_4  and  C_22 
REMARK       I    between atoms: N_5  and  C_27 
REMARK    3  A    between atoms: C_19  and  C_20 
REMARK    4  A    between atoms: C_20  and  C_21 
REMARK    5  A    between atoms: C_21  and  C_22 
ROOT
HETATM    1  C   UNK N   1      36.922  14.043  10.233  0.00  0.00     0.032 C 
ENDROOT
BRANCH   1   2
HETATM    2  C   UNK N   1      36.877  13.283  11.548  0.00  0.00     0.022 C 
BRANCH   2   3
HETATM    3  C   UNK N   1      35.733  13.817  12.400  0.00  0.00     0.135 C 
BRANCH   3   4
HETATM    4  N   UNK N   1      35.499  13.181  13.703  0.00  0.00    -0.288 N 
HETATM    5  C   UNK N   1      36.087  13.772  14.797  0.00  0.00     0.227 C 
HETATM    6  O   UNK N   1      36.762  14.783  14.660  0.00  0.00    -0.273 OA
HETATM    7  C   UNK N   1      35.923  13.215  16.187  0.00  0.00     0.113 C 
HETATM    8  C   UNK N   1      35.625  11.727  16.175  0.00  0.00    -0.024 C 
HETATM    9  C   UNK N   1      35.283  11.241  17.564  0.00  0.00     0.010 C 
HETATM   10  C   UNK N   1      36.840  10.897  15.804  0.00  0.00     0.010 C 
HETATM   11  C   UNK N   1      34.463  11.464  15.227  0.00  0.00     0.113 C 
HETATM   12  C   UNK N   1      35.607   9.756  17.563  0.00  0.00     0.001 C 
HETATM   13  C   UNK N   1      36.575   9.530  16.410  0.00  0.00     0.001 C 
HETATM   14  C   UNK N   1      34.722  12.046  13.865  0.00  0.00     0.227 C 
HETATM   15  O   UNK N   1      34.209  11.485  12.910  0.00  0.00    -0.273 OA
ENDBRANCH   3   4
ENDBRANCH   2   3
ENDBRANCH   1   2
BRANCH   1  16
HETATM   16  C   UNK N   1      36.049  15.306  10.253  0.00  0.00     0.272 C 
BRANCH  16  17
HETATM   17  N   UNK N   1      34.873  15.230   9.382  0.00  0.00     0.091 N 
HETATM   18  C   UNK N   1      34.476  16.565   8.922  0.00  0.00     0.292 C 
HETATM   19  C   UNK N   1      33.195  16.442   8.115  0.00  0.00     0.171 C 
HETATM   20  N   UNK N   1      33.466  15.565   7.003  0.00  0.00    -0.214 N 
HETATM   21  C   UNK N   1      34.038  14.263   7.277  0.00  0.00     0.171 C 
HETATM   22  C   UNK N   1      33.238  16.011   5.672  0.00  0.00     0.679 A 
HETATM   23  C   UNK N   1      35.243  14.426   8.211  0.00  0.00     0.292 C 
HETATM   24  N   UNK N   1      32.678  17.235   5.452  0.00  0.00    -0.202 N 
HETATM   25  N   UNK N   1      33.564  15.219   4.613  0.00  0.00    -0.202 N 
HETATM   26  C   UNK N   1      32.439  17.680   4.193  0.00  0.00     0.107 A 
ATOM     27  HN  UNK N   1      32.437  17.826   6.247  1.00  0.00     0.183 HD
HETATM   28  C   UNK N   1      32.769  16.881   3.101  0.00  0.00     0.035 A 
HETATM   29  C   UNK N   1      33.342  15.634   3.339  0.00  0.00     0.107 A 
ATOM     30  HN  UNK N   1      33.981  14.303   4.780  1.00  0.00     0.183 HD
ENDBRANCH  16  17
ENDBRANCH   1  16
TORSDOF 5
ENDMDL
MODEL 8
REMARK VINA RESULT:      -6.6      1.538      2.172
REMARK  5 active torsions:
REMARK  status: ('A' for Active; 'I' for Inactive)
REMARK    1  A    between atoms: N_3  and  C_19 
REMARK    2  A    between atoms: N_4  and  C_22 
REMARK       I    between atoms: N_5  and  C_27 
REMARK    3  A    between atoms: C_19  and  C_20 
REMARK    4  A    between atoms: C_20  and  C_21 
REMARK    5  A    between atoms: C_21  and  C_22 
ROOT
HETATM    1  C   UNK N   1      36.430  11.066   9.647  0.00  0.00     0.032 C 
ENDROOT
BRANCH   1   2
HETATM    2  C   UNK N   1      35.981  10.817  11.077  0.00  0.00     0.022 C 
BRANCH   2   3
HETATM    3  C   UNK N   1      35.183  12.017  11.571  0.00  0.00     0.135 C 
BRANCH   3   4
HETATM    4  N   UNK N   1      35.058  12.202  13.022  0.00  0.00    -0.288 N 
HETATM    5  C   UNK N   1      35.788  13.224  13.583  0.00  0.00     0.227 C 
HETATM    6  O   UNK N   1      36.493  13.934  12.878  0.00  0.00    -0.273 OA
HETATM    7  C   UNK N   1      35.745  13.516  15.060  0.00  0.00     0.113 C 
HETATM    8  C   UNK N   1      35.376  12.289  15.874  0.00  0.00    -0.024 C 
HETATM    9  C   UNK N   1      35.161  12.658  17.323  0.00  0.00     0.010 C 
HETATM   10  C   UNK N   1      36.503  11.275  15.935  0.00  0.00     0.010 C 
HETATM   11  C   UNK N   1      34.108  11.677  15.295  0.00  0.00     0.113 C 
HETATM   12  C   UNK N   1      35.409  11.378  18.105  0.00  0.00     0.001 C 
HETATM   13  C   UNK N   1      36.238  10.477  17.200  0.00  0.00     0.001 C 
HETATM   14  C   UNK N   1      34.248  11.412  13.821  0.00  0.00     0.227 C 
HETATM   15  O   UNK N   1      33.610  10.481  13.357  0.00  0.00    -0.273 OA
ENDBRANCH   3   4
ENDBRANCH   2   3
ENDBRANCH   1   2
BRANCH   1  16
HETATM   16  C   UNK N   1      35.348  10.707   8.619  0.00  0.00     0.272 C 
BRANCH  16  17
HETATM   17  N   UNK N   1      34.925  11.832   7.782  0.00  0.00     0.091 N 
HETATM   18  C   UNK N   1      33.591  12.302   8.174  0.00  0.00     0.292 C 
HETATM   19  C   UNK N   1      33.157  13.394   7.210  0.00  0.00     0.171 C 
HETATM   20  N   UNK N   1      34.130  14.455   7.290  0.00  0.00    -0.214 N 
HETATM   21  C   UNK N   1      35.528  14.122   7.106  0.00  0.00     0.171 C 
HETATM   22  C   UNK N   1      33.717  15.777   7.611  0.00  0.00     0.679 A 
HETATM   23  C   UNK N   1      35.883  12.923   7.994  0.00  0.00     0.292 C 
HETATM   24  N   UNK N   1      32.391  16.058   7.756  0.00  0.00    -0.202 N 
HETATM   25  N   UNK N   1      34.637  16.769   7.765  0.00  0.00    -0.202 N 
HETATM   26  C   UNK N   1      31.969  17.314   8.052  0.00  0.00     0.107 A 
ATOM     27  HN  UNK N   1      31.705  15.312   7.642  1.00  0.00     0.183 HD
HETATM   28  C   UNK N   1      32.899  18.337   8.214  0.00  0.00     0.035 A 
HETATM   29  C   UNK N   1      34.251  18.037   8.065  0.00  0.00     0.107 A 
ATOM     30  HN  UNK N   1      35.630  16.557   7.654  1.00  0.00     0.183 HD
ENDBRANCH  16  17
ENDBRANCH   1  16
TORSDOF 5
ENDMDL
MODEL 9
REMARK VINA RESULT:      -6.5      2.447      4.269
REMARK  5 active torsions:
REMARK  status: ('A' for Active; 'I' for Inactive)
REMARK    1  A    between atoms: N_3  and  C_19 
REMARK    2  A    between atoms: N_4  and  C_22 
REMARK       I    between atoms: N_5  and  C_27 
REMARK    3  A    between atoms: C_19  and  C_20 
REMARK    4  A    between atoms: C_20  and  C_21 
REMARK    5  A    between atoms: C_21  and  C_22 
ROOT
HETATM    1  C   UNK N   1      35.021  15.339   7.042  0.00  0.00     0.032 C 
ENDROOT
BRANCH   1   2
HETATM    2  C   UNK N   1      34.505  14.456   8.166  0.00  0.00     0.022 C 
BRANCH   2   3
HETATM    3  C   UNK N   1      35.685  13.847   8.911  0.00  0.00     0.135 C 
BRANCH   3   4
HETATM    4  N   UNK N   1      35.593  13.753  10.374  0.00  0.00    -0.288 N 
HETATM    5  C   UNK N   1      36.148  14.782  11.099  0.00  0.00     0.227 C 
HETATM    6  O   UNK N   1      36.677  15.723  10.524  0.00  0.00    -0.273 OA
HETATM    7  C   UNK N   1      36.119  14.801  12.604  0.00  0.00     0.113 C 
HETATM    8  C   UNK N   1      36.018  13.405  13.192  0.00  0.00    -0.024 C 
HETATM    9  C   UNK N   1      35.805  13.470  14.686  0.00  0.00     0.010 C 
HETATM   10  C   UNK N   1      37.314  12.627  13.058  0.00  0.00     0.010 C 
HETATM   11  C   UNK N   1      34.860  12.673  12.528  0.00  0.00     0.113 C 
HETATM   12  C   UNK N   1      36.319  12.145  15.225  0.00  0.00     0.001 C 
HETATM   13  C   UNK N   1      37.257  11.587  14.164  0.00  0.00     0.001 C 
HETATM   14  C   UNK N   1      34.980  12.697  11.029  0.00  0.00     0.227 C 
HETATM   15  O   UNK N   1      34.504  11.758  10.414  0.00  0.00    -0.273 OA
ENDBRANCH   3   4
ENDBRANCH   2   3
ENDBRANCH   1   2
BRANCH   1  16
HETATM   16  C   UNK N   1      34.231  16.649   6.912  0.00  0.00     0.272 C 
BRANCH  16  17
HETATM   17  N   UNK N   1      32.787  16.460   6.750  0.00  0.00     0.091 N 
HETATM   18  C   UNK N   1      32.040  17.339   7.656  0.00  0.00     0.292 C 
HETATM   19  C   UNK N   1      30.559  17.027   7.525  0.00  0.00     0.171 C 
HETATM   20  N   UNK N   1      30.187  17.256   6.151  0.00  0.00    -0.214 N 
HETATM   21  C   UNK N   1      30.953  16.596   5.113  0.00  0.00     0.171 C 
HETATM   22  C   UNK N   1      29.139  18.163   5.837  0.00  0.00     0.679 A 
HETATM   23  C   UNK N   1      32.449  16.820   5.368  0.00  0.00     0.292 C 
HETATM   24  N   UNK N   1      28.425  18.749   6.840  0.00  0.00    -0.202 N 
HETATM   25  N   UNK N   1      28.833  18.443   4.540  0.00  0.00    -0.202 N 
HETATM   26  C   UNK N   1      27.412  19.610   6.569  0.00  0.00     0.107 A 
ATOM     27  HN  UNK N   1      28.657  18.538   7.811  1.00  0.00     0.183 HD
HETATM   28  C   UNK N   1      27.090  19.907   5.247  0.00  0.00     0.035 A 
HETATM   29  C   UNK N   1      27.828  19.303   4.231  0.00  0.00     0.107 A 
ATOM     30  HN  UNK N   1      29.367  18.002   3.790  1.00  0.00     0.183 HD
ENDBRANCH  16  17
ENDBRANCH   1  16
TORSDOF 5
ENDMDL
