REMARK  8 active torsions:
REMARK  status: ('A' for Active; 'I' for Inactive)
REMARK    1  A    between atoms: C_8  and  O_1 
REMARK    2  A    between atoms: C_9  and  O_2 
REMARK    3  A    between atoms: C_10  and  O_3 
REMARK    4  A    between atoms: O_4  and  C_12 
REMARK    5  A    between atoms: O_5  and  C_14 
REMARK    6  A    between atoms: N_6  and  C_13 
REMARK    7  A    between atoms: C_7  and  C_12 
REMARK    8  A    between atoms: C_13  and  C_14 
ROOT
HETATM    1  N   UNK N   1       3.403   0.531   0.259  0.00  0.00     0.102 N 
HETATM    2  C   UNK N   1       4.598  -0.215  -0.194  0.00  0.00     0.277 C 
HETATM    3  C   UNK N   1       4.515  -1.691   0.237  0.00  0.00     0.184 C 
HETATM    4  C   UNK N   1       3.218  -2.331  -0.243  0.00  0.00     0.179 C 
HETATM    5  C   UNK N   1       2.039  -1.513   0.257  0.00  0.00     0.177 C 
HETATM    6  C   UNK N   1       2.188  -0.096  -0.272  0.00  0.00     0.307 C 
ENDROOT
BRANCH   1   7
HETATM    7  C   UNK N   1       3.434   1.878  -0.306  0.00  0.00     0.299 C 
BRANCH   7   8
HETATM    8  C   UNK N   1       2.473   2.796   0.432  0.00  0.00     0.194 C 
BRANCH   8   9
HETATM    9  O   UNK N   1       2.526   4.069  -0.133  0.00  0.00    -0.399 OA
HETATM   10  H   UNK N   1       3.311   4.481  -0.527  0.00  0.00     0.209 HD
ENDBRANCH   8   9
ENDBRANCH   7   8
ENDBRANCH   1   7
BRANCH   2  11
HETATM   11  C   UNK N   1       5.875   0.362   0.426  0.00  0.00     0.202 C 
BRANCH  11  12
HETATM   12  O   UNK N   1       6.251   1.546  -0.208  0.00  0.00    -0.399 OA
HETATM   13  H   UNK N   1       7.095   1.732  -0.649  0.00  0.00     0.209 HD
ENDBRANCH  11  12
ENDBRANCH   2  11
BRANCH   3  14
HETATM   14  O   UNK N   1       5.601  -2.401  -0.280  0.00  0.00    -0.391 OA
HETATM   15  H   UNK N   1       5.551  -3.301  -0.640  0.00  0.00     0.210 HD
ENDBRANCH   3  14
BRANCH   5  16
HETATM   16  O   UNK N   1       0.845  -2.059  -0.216  0.00  0.00    -0.391 OA
HETATM   17  H   UNK N   1       0.102  -1.530  -0.544  0.00  0.00     0.210 HD
ENDBRANCH   5  16
BRANCH   4  18
HETATM   18  O   UNK N   1       3.129  -3.637   0.242  0.00  0.00    -0.390 OA
HETATM   19  H   UNK N   1       2.312  -4.037   0.580  0.00  0.00     0.210 HD
ENDBRANCH   4  18
TORSDOF 8
