MODEL 1
REMARK VINA RESULT:      -5.1      0.000      0.000
REMARK  8 active torsions:
REMARK  status: ('A' for Active; 'I' for Inactive)
REMARK    1  A    between atoms: C_8  and  O_1 
REMARK    2  A    between atoms: C_9  and  O_2 
REMARK    3  A    between atoms: C_10  and  O_3 
REMARK    4  A    between atoms: O_4  and  C_12 
REMARK    5  A    between atoms: O_5  and  C_14 
REMARK    6  A    between atoms: N_6  and  C_13 
REMARK    7  A    between atoms: C_7  and  C_12 
REMARK    8  A    between atoms: C_13  and  C_14 
ROOT
HETATM    1  N   UNK N   1      20.646  18.308   3.685  0.00  0.00     0.102 N 
HETATM    2  C   UNK N   1      20.726  17.584   2.397  0.00  0.00     0.277 C 
HETATM    3  C   UNK N   1      20.239  18.474   1.239  0.00  0.00     0.184 C 
HETATM    4  C   UNK N   1      20.996  19.796   1.207  0.00  0.00     0.179 C 
HETATM    5  C   UNK N   1      20.871  20.480   2.558  0.00  0.00     0.177 C 
HETATM    6  C   UNK N   1      21.432  19.544   3.616  0.00  0.00     0.307 C 
ENDROOT
BRANCH   1   7
HETATM    7  C   UNK N   1      21.267  17.500   4.731  0.00  0.00     0.299 C 
BRANCH   7   8
HETATM    8  C   UNK N   1      21.994  18.381   5.734  0.00  0.00     0.194 C 
BRANCH   8   9
HETATM    9  O   UNK N   1      21.199  18.540   6.868  0.00  0.00    -0.399 OA
HETATM   10  H   UNK N   1      20.939  17.835   7.481  0.00  0.00     0.209 HD
ENDBRANCH   8   9
ENDBRANCH   7   8
ENDBRANCH   1   7
BRANCH   2  11
HETATM   11  C   UNK N   1      19.835  16.337   2.410  0.00  0.00     0.202 C 
BRANCH  11  12
HETATM   12  O   UNK N   1      20.385  15.317   1.634  0.00  0.00    -0.399 OA
HETATM   13  H   UNK N   1      20.759  14.479   1.949  0.00  0.00     0.209 HD
ENDBRANCH  11  12
ENDBRANCH   2  11
BRANCH   3  14
HETATM   14  O   UNK N   1      20.411  17.811   0.022  0.00  0.00    -0.391 OA
HETATM   15  H   UNK N   1      19.837  17.101  -0.306  0.00  0.00     0.210 HD
ENDBRANCH   3  14
BRANCH   5  16
HETATM   16  O   UNK N   1      21.601  21.669   2.560  0.00  0.00    -0.391 OA
HETATM   17  H   UNK N   1      21.212  22.542   2.399  0.00  0.00     0.210 HD
ENDBRANCH   5  16
BRANCH   4  18
HETATM   18  O   UNK N   1      20.469  20.617   0.208  0.00  0.00    -0.390 OA
HETATM   19  H   UNK N   1      19.658  20.420  -0.287  0.00  0.00     0.210 HD
ENDBRANCH   4  18
TORSDOF 8
ENDMDL
MODEL 2
REMARK VINA RESULT:      -5.0      1.111      3.443
REMARK  8 active torsions:
REMARK  status: ('A' for Active; 'I' for Inactive)
REMARK    1  A    between atoms: C_8  and  O_1 
REMARK    2  A    between atoms: C_9  and  O_2 
REMARK    3  A    between atoms: C_10  and  O_3 
REMARK    4  A    between atoms: O_4  and  C_12 
REMARK    5  A    between atoms: O_5  and  C_14 
REMARK    6  A    between atoms: N_6  and  C_13 
REMARK    7  A    between atoms: C_7  and  C_12 
REMARK    8  A    between atoms: C_13  and  C_14 
ROOT
HETATM    1  N   UNK N   1      21.901  18.006   3.910  0.00  0.00     0.102 N 
HETATM    2  C   UNK N   1      21.337  19.215   3.269  0.00  0.00     0.277 C 
HETATM    3  C   UNK N   1      20.675  18.861   1.925  0.00  0.00     0.184 C 
HETATM    4  C   UNK N   1      19.634  17.761   2.098  0.00  0.00     0.179 C 
HETATM    5  C   UNK N   1      20.282  16.557   2.761  0.00  0.00     0.177 C 
HETATM    6  C   UNK N   1      20.849  17.001   4.099  0.00  0.00     0.307 C 
ENDROOT
BRANCH   1   7
HETATM    7  C   UNK N   1      22.370  18.346   5.251  0.00  0.00     0.299 C 
BRANCH   7   8
HETATM    8  C   UNK N   1      21.430  17.794   6.310  0.00  0.00     0.194 C 
BRANCH   8   9
HETATM    9  O   UNK N   1      20.984  18.837   7.119  0.00  0.00    -0.399 OA
HETATM   10  H   UNK N   1      21.432  19.168   7.914  0.00  0.00     0.209 HD
ENDBRANCH   8   9
ENDBRANCH   7   8
ENDBRANCH   1   7
BRANCH   2  11
HETATM   11  C   UNK N   1      22.435  20.242   2.972  0.00  0.00     0.202 C 
BRANCH  11  12
HETATM   12  O   UNK N   1      21.901  21.525   2.844  0.00  0.00    -0.399 OA
HETATM   13  H   UNK N   1      21.113  21.878   3.287  0.00  0.00     0.209 HD
ENDBRANCH  11  12
ENDBRANCH   2  11
BRANCH   3  14
HETATM   14  O   UNK N   1      20.065  19.994   1.381  0.00  0.00    -0.391 OA
HETATM   15  H   UNK N   1      20.453  20.549   0.685  0.00  0.00     0.210 HD
ENDBRANCH   3  14
BRANCH   5  16
HETATM   16  O   UNK N   1      19.330  15.559   2.971  0.00  0.00    -0.391 OA
HETATM   17  H   UNK N   1      18.452  15.721   3.348  0.00  0.00     0.210 HD
ENDBRANCH   5  16
BRANCH   4  18
HETATM   18  O   UNK N   1      19.120  17.398   0.852  0.00  0.00    -0.390 OA
HETATM   19  H   UNK N   1      18.198  17.535   0.584  0.00  0.00     0.210 HD
ENDBRANCH   4  18
TORSDOF 8
ENDMDL
MODEL 3
REMARK VINA RESULT:      -4.9     12.526     14.810
REMARK  8 active torsions:
REMARK  status: ('A' for Active; 'I' for Inactive)
REMARK    1  A    between atoms: C_8  and  O_1 
REMARK    2  A    between atoms: C_9  and  O_2 
REMARK    3  A    between atoms: C_10  and  O_3 
REMARK    4  A    between atoms: O_4  and  C_12 
REMARK    5  A    between atoms: O_5  and  C_14 
REMARK    6  A    between atoms: N_6  and  C_13 
REMARK    7  A    between atoms: C_7  and  C_12 
REMARK    8  A    between atoms: C_13  and  C_14 
ROOT
HETATM    1  N   UNK N   1      33.245  16.330   7.212  0.00  0.00     0.102 N 
HETATM    2  C   UNK N   1      34.203  16.961   8.147  0.00  0.00     0.277 C 
HETATM    3  C   UNK N   1      33.822  16.654   9.607  0.00  0.00     0.184 C 
HETATM    4  C   UNK N   1      33.693  15.153   9.837  0.00  0.00     0.179 C 
HETATM    5  C   UNK N   1      32.698  14.576   8.844  0.00  0.00     0.177 C 
HETATM    6  C   UNK N   1      33.198  14.882   7.442  0.00  0.00     0.307 C 
ENDROOT
BRANCH   1   7
HETATM    7  C   UNK N   1      33.727  16.499   5.843  0.00  0.00     0.299 C 
BRANCH   7   8
HETATM    8  C   UNK N   1      32.658  17.134   4.968  0.00  0.00     0.194 C 
BRANCH   8   9
HETATM    9  O   UNK N   1      31.506  17.340   5.725  0.00  0.00    -0.399 OA
HETATM   10  H   UNK N   1      31.404  17.996   6.433  0.00  0.00     0.209 HD
ENDBRANCH   8   9
ENDBRANCH   7   8
ENDBRANCH   1   7
BRANCH   2  11
HETATM   11  C   UNK N   1      34.200  18.485   7.993  0.00  0.00     0.202 C 
BRANCH  11  12
HETATM   12  O   UNK N   1      35.360  19.047   8.525  0.00  0.00    -0.399 OA
HETATM   13  H   UNK N   1      36.264  18.956   8.185  0.00  0.00     0.209 HD
ENDBRANCH  11  12
ENDBRANCH   2  11
BRANCH   3  14
HETATM   14  O   UNK N   1      34.788  17.174  10.471  0.00  0.00    -0.391 OA
HETATM   15  H   UNK N   1      34.626  17.876  11.122  0.00  0.00     0.210 HD
ENDBRANCH   3  14
BRANCH   5  16
HETATM   16  O   UNK N   1      32.606  13.194   9.010  0.00  0.00    -0.391 OA
HETATM   17  H   UNK N   1      32.955  12.549   8.375  0.00  0.00     0.210 HD
ENDBRANCH   5  16
BRANCH   4  18
HETATM   18  O   UNK N   1      33.256  14.912  11.141  0.00  0.00    -0.390 OA
HETATM   19  H   UNK N   1      33.615  14.217  11.715  0.00  0.00     0.210 HD
ENDBRANCH   4  18
TORSDOF 8
ENDMDL
MODEL 4
REMARK VINA RESULT:      -4.8      9.042     10.898
REMARK  8 active torsions:
REMARK  status: ('A' for Active; 'I' for Inactive)
REMARK    1  A    between atoms: C_8  and  O_1 
REMARK    2  A    between atoms: C_9  and  O_2 
REMARK    3  A    between atoms: C_10  and  O_3 
REMARK    4  A    between atoms: O_4  and  C_12 
REMARK    5  A    between atoms: O_5  and  C_14 
REMARK    6  A    between atoms: N_6  and  C_13 
REMARK    7  A    between atoms: C_7  and  C_12 
REMARK    8  A    between atoms: C_13  and  C_14 
ROOT
HETATM    1  N   UNK N   1      30.858  17.033   7.471  0.00  0.00     0.102 N 
HETATM    2  C   UNK N   1      29.695  17.322   6.604  0.00  0.00     0.277 C 
HETATM    3  C   UNK N   1      28.391  17.324   7.423  0.00  0.00     0.184 C 
HETATM    4  C   UNK N   1      28.485  18.285   8.602  0.00  0.00     0.179 C 
HETATM    5  C   UNK N   1      29.699  17.930   9.444  0.00  0.00     0.177 C 
HETATM    6  C   UNK N   1      30.931  18.016   8.558  0.00  0.00     0.307 C 
ENDROOT
BRANCH   1   7
HETATM    7  C   UNK N   1      32.087  17.202   6.700  0.00  0.00     0.299 C 
BRANCH   7   8
HETATM    8  C   UNK N   1      33.177  17.835   7.551  0.00  0.00     0.194 C 
BRANCH   8   9
HETATM    9  O   UNK N   1      34.289  18.100   6.753  0.00  0.00    -0.399 OA
HETATM   10  H   UNK N   1      34.618  17.536   6.035  0.00  0.00     0.209 HD
ENDBRANCH   8   9
ENDBRANCH   7   8
ENDBRANCH   1   7
BRANCH   2  11
HETATM   11  C   UNK N   1      29.539  16.252   5.517  0.00  0.00     0.202 C 
BRANCH  11  12
HETATM   12  O   UNK N   1      29.039  16.803   4.338  0.00  0.00    -0.399 OA
HETATM   13  H   UNK N   1      29.522  16.953   3.510  0.00  0.00     0.209 HD
ENDBRANCH  11  12
ENDBRANCH   2  11
BRANCH   3  14
HETATM   14  O   UNK N   1      27.317  17.692   6.610  0.00  0.00    -0.391 OA
HETATM   15  H   UNK N   1      27.308  18.465   6.023  0.00  0.00     0.210 HD
ENDBRANCH   3  14
BRANCH   5  16
HETATM   16  O   UNK N   1      29.827  18.832  10.501  0.00  0.00    -0.391 OA
HETATM   17  H   UNK N   1      30.527  18.785  11.170  0.00  0.00     0.210 HD
ENDBRANCH   5  16
BRANCH   4  18
HETATM   18  O   UNK N   1      27.328  18.195   9.377  0.00  0.00    -0.390 OA
HETATM   19  H   UNK N   1      27.290  17.775  10.251  0.00  0.00     0.210 HD
ENDBRANCH   4  18
TORSDOF 8
ENDMDL
MODEL 5
REMARK VINA RESULT:      -4.8      1.548      3.259
REMARK  8 active torsions:
REMARK  status: ('A' for Active; 'I' for Inactive)
REMARK    1  A    between atoms: C_8  and  O_1 
REMARK    2  A    between atoms: C_9  and  O_2 
REMARK    3  A    between atoms: C_10  and  O_3 
REMARK    4  A    between atoms: O_4  and  C_12 
REMARK    5  A    between atoms: O_5  and  C_14 
REMARK    6  A    between atoms: N_6  and  C_13 
REMARK    7  A    between atoms: C_7  and  C_12 
REMARK    8  A    between atoms: C_13  and  C_14 
ROOT
HETATM    1  N   UNK N   1      22.155  18.094   3.592  0.00  0.00     0.102 N 
HETATM    2  C   UNK N   1      22.453  19.539   3.712  0.00  0.00     0.277 C 
HETATM    3  C   UNK N   1      21.965  20.301   2.466  0.00  0.00     0.184 C 
HETATM    4  C   UNK N   1      20.487  20.035   2.204  0.00  0.00     0.179 C 
HETATM    5  C   UNK N   1      20.258  18.537   2.094  0.00  0.00     0.177 C 
HETATM    6  C   UNK N   1      20.716  17.892   3.392  0.00  0.00     0.307 C 
ENDROOT
BRANCH   1   7
HETATM    7  C   UNK N   1      22.478  17.431   4.853  0.00  0.00     0.299 C 
BRANCH   7   8
HETATM    8  C   UNK N   1      21.297  17.482   5.809  0.00  0.00     0.194 C 
BRANCH   8   9
HETATM    9  O   UNK N   1      21.531  18.454   6.779  0.00  0.00    -0.399 OA
HETATM   10  H   UNK N   1      21.764  19.380   6.608  0.00  0.00     0.209 HD
ENDBRANCH   8   9
ENDBRANCH   7   8
ENDBRANCH   1   7
BRANCH   2  11
HETATM   11  C   UNK N   1      23.961  19.783   3.825  0.00  0.00     0.202 C 
BRANCH  11  12
HETATM   12  O   UNK N   1      24.481  20.279   2.629  0.00  0.00    -0.399 OA
HETATM   13  H   UNK N   1      24.655  19.781   1.815  0.00  0.00     0.209 HD
ENDBRANCH  11  12
ENDBRANCH   2  11
BRANCH   3  14
HETATM   14  O   UNK N   1      22.165  21.673   2.637  0.00  0.00    -0.391 OA
HETATM   15  H   UNK N   1      21.585  22.364   2.280  0.00  0.00     0.210 HD
ENDBRANCH   3  14
BRANCH   5  16
HETATM   16  O   UNK N   1      18.901  18.275   1.903  0.00  0.00    -0.391 OA
HETATM   17  H   UNK N   1      18.556  17.438   1.555  0.00  0.00     0.210 HD
ENDBRANCH   5  16
BRANCH   4  18
HETATM   18  O   UNK N   1      20.099  20.662   1.018  0.00  0.00    -0.390 OA
HETATM   19  H   UNK N   1      20.383  21.552   0.755  0.00  0.00     0.210 HD
ENDBRANCH   4  18
TORSDOF 8
ENDMDL
MODEL 6
REMARK VINA RESULT:      -4.7      7.443      9.677
REMARK  8 active torsions:
REMARK  status: ('A' for Active; 'I' for Inactive)
REMARK    1  A    between atoms: C_8  and  O_1 
REMARK    2  A    between atoms: C_9  and  O_2 
REMARK    3  A    between atoms: C_10  and  O_3 
REMARK    4  A    between atoms: O_4  and  C_12 
REMARK    5  A    between atoms: O_5  and  C_14 
REMARK    6  A    between atoms: N_6  and  C_13 
REMARK    7  A    between atoms: C_7  and  C_12 
REMARK    8  A    between atoms: C_13  and  C_14 
ROOT
HETATM    1  N   UNK N   1      23.611  13.022   8.280  0.00  0.00     0.102 N 
HETATM    2  C   UNK N   1      22.223  13.313   8.702  0.00  0.00     0.277 C 
HETATM    3  C   UNK N   1      21.807  12.404   9.873  0.00  0.00     0.184 C 
HETATM    4  C   UNK N   1      22.796  12.509  11.028  0.00  0.00     0.179 C 
HETATM    5  C   UNK N   1      24.195  12.200  10.521  0.00  0.00     0.177 C 
HETATM    6  C   UNK N   1      24.526  13.188   9.415  0.00  0.00     0.307 C 
ENDROOT
BRANCH   1   7
HETATM    7  C   UNK N   1      24.029  14.008   7.286  0.00  0.00     0.299 C 
BRANCH   7   8
HETATM    8  C   UNK N   1      25.493  14.375   7.470  0.00  0.00     0.194 C 
BRANCH   8   9
HETATM    9  O   UNK N   1      25.691  15.695   7.070  0.00  0.00    -0.399 OA
HETATM   10  H   UNK N   1      25.531  16.481   7.616  0.00  0.00     0.209 HD
ENDBRANCH   8   9
ENDBRANCH   7   8
ENDBRANCH   1   7
BRANCH   2  11
HETATM   11  C   UNK N   1      21.235  13.053   7.560  0.00  0.00     0.202 C 
BRANCH  11  12
HETATM   12  O   UNK N   1      20.170  13.953   7.602  0.00  0.00    -0.399 OA
HETATM   13  H   UNK N   1      19.340  13.902   7.103  0.00  0.00     0.209 HD
ENDBRANCH  11  12
ENDBRANCH   2  11
BRANCH   3  14
HETATM   14  O   UNK N   1      20.532  12.756  10.321  0.00  0.00    -0.391 OA
HETATM   15  H   UNK N   1      19.703  12.491   9.891  0.00  0.00     0.210 HD
ENDBRANCH   3  14
BRANCH   5  16
HETATM   16  O   UNK N   1      25.119  12.341  11.557  0.00  0.00    -0.391 OA
HETATM   17  H   UNK N   1      25.765  11.661  11.801  0.00  0.00     0.210 HD
ENDBRANCH   5  16
BRANCH   4  18
HETATM   18  O   UNK N   1      22.445  11.606  12.033  0.00  0.00    -0.390 OA
HETATM   19  H   UNK N   1      22.594  10.648  11.979  0.00  0.00     0.210 HD
ENDBRANCH   4  18
TORSDOF 8
ENDMDL
MODEL 7
REMARK VINA RESULT:      -4.6     21.555     22.465
REMARK  8 active torsions:
REMARK  status: ('A' for Active; 'I' for Inactive)
REMARK    1  A    between atoms: C_8  and  O_1 
REMARK    2  A    between atoms: C_9  and  O_2 
REMARK    3  A    between atoms: C_10  and  O_3 
REMARK    4  A    between atoms: O_4  and  C_12 
REMARK    5  A    between atoms: O_5  and  C_14 
REMARK    6  A    between atoms: N_6  and  C_13 
REMARK    7  A    between atoms: C_7  and  C_12 
REMARK    8  A    between atoms: C_13  and  C_14 
ROOT
HETATM    1  N   UNK N   1      43.125  20.334   2.414  0.00  0.00     0.102 N 
HETATM    2  C   UNK N   1      42.378  21.458   1.806  0.00  0.00     0.277 C 
HETATM    3  C   UNK N   1      42.321  22.659   2.768  0.00  0.00     0.184 C 
HETATM    4  C   UNK N   1      43.718  23.070   3.216  0.00  0.00     0.179 C 
HETATM    5  C   UNK N   1      44.424  21.870   3.826  0.00  0.00     0.177 C 
HETATM    6  C   UNK N   1      44.478  20.770   2.779  0.00  0.00     0.307 C 
ENDROOT
BRANCH   1   7
HETATM    7  C   UNK N   1      43.303  19.280   1.419  0.00  0.00     0.299 C 
BRANCH   7   8
HETATM    8  C   UNK N   1      43.001  17.915   2.017  0.00  0.00     0.194 C 
BRANCH   8   9
HETATM    9  O   UNK N   1      42.058  18.056   3.034  0.00  0.00    -0.399 OA
HETATM   10  H   UNK N   1      41.152  18.386   2.924  0.00  0.00     0.209 HD
ENDBRANCH   8   9
ENDBRANCH   7   8
ENDBRANCH   1   7
BRANCH   2  11
HETATM   11  C   UNK N   1      40.930  21.056   1.505  0.00  0.00     0.202 C 
BRANCH  11  12
HETATM   12  O   UNK N   1      40.107  21.274   2.610  0.00  0.00    -0.399 OA
HETATM   13  H   UNK N   1      40.364  21.651   3.466  0.00  0.00     0.209 HD
ENDBRANCH  11  12
ENDBRANCH   2  11
BRANCH   3  14
HETATM   14  O   UNK N   1      41.698  23.741   2.144  0.00  0.00    -0.391 OA
HETATM   15  H   UNK N   1      41.778  23.956   1.200  0.00  0.00     0.210 HD
ENDBRANCH   3  14
BRANCH   5  16
HETATM   16  O   UNK N   1      45.723  22.219   4.197  0.00  0.00    -0.391 OA
HETATM   17  H   UNK N   1      46.351  21.605   4.608  0.00  0.00     0.210 HD
ENDBRANCH   5  16
BRANCH   4  18
HETATM   18  O   UNK N   1      43.629  24.097   4.157  0.00  0.00    -0.390 OA
HETATM   19  H   UNK N   1      43.889  24.006   5.088  0.00  0.00     0.210 HD
ENDBRANCH   4  18
TORSDOF 8
ENDMDL
MODEL 8
REMARK VINA RESULT:      -4.6      9.191     11.436
REMARK  8 active torsions:
REMARK  status: ('A' for Active; 'I' for Inactive)
REMARK    1  A    between atoms: C_8  and  O_1 
REMARK    2  A    between atoms: C_9  and  O_2 
REMARK    3  A    between atoms: C_10  and  O_3 
REMARK    4  A    between atoms: O_4  and  C_12 
REMARK    5  A    between atoms: O_5  and  C_14 
REMARK    6  A    between atoms: N_6  and  C_13 
REMARK    7  A    between atoms: C_7  and  C_12 
REMARK    8  A    between atoms: C_13  and  C_14 
ROOT
HETATM    1  N   UNK N   1      30.563  17.416   6.606  0.00  0.00     0.102 N 
HETATM    2  C   UNK N   1      30.836  17.184   8.042  0.00  0.00     0.277 C 
HETATM    3  C   UNK N   1      29.772  17.873   8.918  0.00  0.00     0.184 C 
HETATM    4  C   UNK N   1      28.367  17.437   8.519  0.00  0.00     0.179 C 
HETATM    5  C   UNK N   1      28.160  17.703   7.037  0.00  0.00     0.177 C 
HETATM    6  C   UNK N   1      29.220  16.934   6.266  0.00  0.00     0.307 C 
ENDROOT
BRANCH   1   7
HETATM    7  C   UNK N   1      31.487  16.617   5.806  0.00  0.00     0.299 C 
BRANCH   7   8
HETATM    8  C   UNK N   1      32.148  17.467   4.733  0.00  0.00     0.194 C 
BRANCH   8   9
HETATM    9  O   UNK N   1      33.410  17.863   5.173  0.00  0.00    -0.399 OA
HETATM   10  H   UNK N   1      33.739  17.798   6.084  0.00  0.00     0.209 HD
ENDBRANCH   8   9
ENDBRANCH   7   8
ENDBRANCH   1   7
BRANCH   2  11
HETATM   11  C   UNK N   1      32.194  17.767   8.445  0.00  0.00     0.202 C 
BRANCH  11  12
HETATM   12  O   UNK N   1      32.828  16.959   9.389  0.00  0.00    -0.399 OA
HETATM   13  H   UNK N   1      32.407  16.438  10.091  0.00  0.00     0.209 HD
ENDBRANCH  11  12
ENDBRANCH   2  11
BRANCH   3  14
HETATM   14  O   UNK N   1      29.989  17.564  10.263  0.00  0.00    -0.391 OA
HETATM   15  H   UNK N   1      30.414  16.752  10.581  0.00  0.00     0.210 HD
ENDBRANCH   3  14
BRANCH   5  16
HETATM   16  O   UNK N   1      26.895  17.264   6.646  0.00  0.00    -0.391 OA
HETATM   17  H   UNK N   1      26.175  17.072   7.266  0.00  0.00     0.210 HD
ENDBRANCH   5  16
BRANCH   4  18
HETATM   18  O   UNK N   1      27.425  18.147   9.265  0.00  0.00    -0.390 OA
HETATM   19  H   UNK N   1      26.716  18.684   8.875  0.00  0.00     0.210 HD
ENDBRANCH   4  18
TORSDOF 8
ENDMDL
MODEL 9
REMARK VINA RESULT:      -4.5     13.979     15.019
REMARK  8 active torsions:
REMARK  status: ('A' for Active; 'I' for Inactive)
REMARK    1  A    between atoms: C_8  and  O_1 
REMARK    2  A    between atoms: C_9  and  O_2 
REMARK    3  A    between atoms: C_10  and  O_3 
REMARK    4  A    between atoms: O_4  and  C_12 
REMARK    5  A    between atoms: O_5  and  C_14 
REMARK    6  A    between atoms: N_6  and  C_13 
REMARK    7  A    between atoms: C_7  and  C_12 
REMARK    8  A    between atoms: C_13  and  C_14 
ROOT
HETATM    1  N   UNK N   1      34.061  15.843   9.714  0.00  0.00     0.102 N 
HETATM    2  C   UNK N   1      34.235  15.011   8.502  0.00  0.00     0.277 C 
HETATM    3  C   UNK N   1      33.809  15.788   7.242  0.00  0.00     0.184 C 
HETATM    4  C   UNK N   1      34.545  17.118   7.141  0.00  0.00     0.179 C 
HETATM    5  C   UNK N   1      34.323  17.913   8.417  0.00  0.00     0.177 C 
HETATM    6  C   UNK N   1      34.830  17.085   9.586  0.00  0.00     0.307 C 
ENDROOT
BRANCH   1   7
HETATM    7  C   UNK N   1      34.628  15.142  10.863  0.00  0.00     0.299 C 
BRANCH   7   8
HETATM    8  C   UNK N   1      35.981  15.723  11.238  0.00  0.00     0.194 C 
BRANCH   8   9
HETATM    9  O   UNK N   1      36.360  15.241  12.490  0.00  0.00    -0.399 OA
HETATM   10  H   UNK N   1      35.761  14.879  13.161  0.00  0.00     0.209 HD
ENDBRANCH   8   9
ENDBRANCH   7   8
ENDBRANCH   1   7
BRANCH   2  11
HETATM   11  C   UNK N   1      33.365  13.752   8.568  0.00  0.00     0.202 C 
BRANCH  11  12
HETATM   12  O   UNK N   1      32.146  13.949   7.920  0.00  0.00    -0.399 OA
HETATM   13  H   UNK N   1      31.995  14.419   7.086  0.00  0.00     0.209 HD
ENDBRANCH  11  12
ENDBRANCH   2  11
BRANCH   3  14
HETATM   14  O   UNK N   1      34.069  15.026   6.101  0.00  0.00    -0.391 OA
HETATM   15  H   UNK N   1      34.956  14.825   5.763  0.00  0.00     0.210 HD
ENDBRANCH   3  14
BRANCH   5  16
HETATM   16  O   UNK N   1      35.032  19.114   8.360  0.00  0.00    -0.391 OA
HETATM   17  H   UNK N   1      34.682  19.930   7.972  0.00  0.00     0.210 HD
ENDBRANCH   5  16
BRANCH   4  18
HETATM   18  O   UNK N   1      34.070  17.838   6.044  0.00  0.00    -0.390 OA
HETATM   19  H   UNK N   1      33.296  17.580   5.518  0.00  0.00     0.210 HD
ENDBRANCH   4  18
TORSDOF 8
ENDMDL
