MODEL 1
REMARK VINA RESULT:      -6.6      0.000      0.000
REMARK  16 active torsions:
REMARK  status: ('A' for Active; 'I' for Inactive)
REMARK    1  A    between atoms: P_1  and  O_5 
REMARK    2  A    between atoms: P_1  and  C_22 
REMARK    3  A    between atoms: P_1  and  C_23 
REMARK    4  A    between atoms: O_2  and  C_21 
REMARK    5  A    between atoms: O_5  and  C_25 
REMARK    6  A    between atoms: O_7  and  C_25 
REMARK    7  A    between atoms: O_7  and  C_32 
REMARK       I    between atoms: N_9  and  C_20 
REMARK    8  A    between atoms: C_10  and  C_11 
REMARK    9  A    between atoms: C_16  and  C_21 
REMARK   10  A    between atoms: C_20  and  C_22 
REMARK   11  A    between atoms: C_23  and  C_24 
REMARK   12  A    between atoms: C_24  and  C_26 
REMARK   13  A    between atoms: C_25  and  C_27 
REMARK   14  A    between atoms: C_26  and  C_28 
REMARK   15  A    between atoms: C_28  and  C_31 
REMARK   16  A    between atoms: C_32  and  C_35 
ROOT
HETATM    1  P   UNK N   1      27.247  24.763  -3.957  0.00  0.00     0.208 P 
HETATM    2  O   UNK N   1      25.984  23.869  -3.802  0.00  0.00    -0.291 OA
ENDROOT
BRANCH   1   3
HETATM    3  O   UNK N   1      26.831  26.340  -3.329  0.00  0.00    -0.301 OA
BRANCH   3   4
HETATM    4  C   UNK N   1      27.446  27.241  -4.186  0.00  0.00     0.280 C 
BRANCH   4   5
HETATM    5  O   UNK N   1      28.628  27.735  -3.654  0.00  0.00    -0.289 OA
BRANCH   5   6
HETATM    6  C   UNK N   1      29.851  27.540  -4.220  0.00  0.00     0.260 C 
HETATM    7  O   UNK N   1      30.084  27.908  -5.361  0.00  0.00    -0.265 OA
BRANCH   6   8
HETATM    8  C   UNK N   1      30.932  26.892  -3.430  0.00  0.00     0.107 C 
HETATM    9  C   UNK N   1      31.734  25.976  -4.333  0.00  0.00     0.015 C 
ENDBRANCH   6   8
ENDBRANCH   5   6
ENDBRANCH   4   5
BRANCH   4  10
HETATM   10  C   UNK N   1      26.437  28.269  -4.702  0.00  0.00     0.034 C 
HETATM   11  C   UNK N   1      25.056  27.728  -5.042  0.00  0.00     0.014 C 
HETATM   12  C   UNK N   1      26.316  29.336  -3.652  0.00  0.00     0.014 C 
ENDBRANCH   4  10
ENDBRANCH   3   4
ENDBRANCH   1   3
BRANCH   1  13
HETATM   13  C   UNK N   1      27.323  25.085  -5.774  0.00  0.00     0.204 C 
BRANCH  13  14
HETATM   14  C   UNK N   1      26.468  24.067  -6.432  0.00  0.00     0.229 C 
HETATM   15  O   UNK N   1      25.251  24.240  -6.413  0.00  0.00    -0.273 OA
HETATM   16  N   UNK N   1      26.981  22.926  -6.986  0.00  0.00    -0.337 N 
HETATM   17  C   UNK N   1      28.394  22.611  -6.969  0.00  0.00     0.132 C 
HETATM   18  C   UNK N   1      26.169  21.846  -7.474  0.00  0.00     0.185 C 
HETATM   19  C   UNK N   1      28.413  21.113  -7.275  0.00  0.00     0.010 C 
HETATM   20  C   UNK N   1      27.163  20.890  -8.123  0.00  0.00     0.042 C 
BRANCH  19  21
HETATM   21  C   UNK N   1      29.746  20.627  -7.856  0.00  0.00    -0.009 C 
HETATM   22  C   UNK N   1      30.085  21.338  -9.171  0.00  0.00     0.005 C 
HETATM   23  C   UNK N   1      31.393  20.793  -9.746  0.00  0.00     0.000 C 
HETATM   24  C   UNK N   1      31.258  19.300 -10.021  0.00  0.00     0.000 C 
HETATM   25  C   UNK N   1      30.917  18.562  -8.731  0.00  0.00     0.000 C 
HETATM   26  C   UNK N   1      29.634  19.121  -8.123  0.00  0.00     0.005 C 
ENDBRANCH  19  21
BRANCH  18  27
HETATM   27  C   UNK N   1      25.054  22.261  -8.392  0.00  0.00     0.163 C 
HETATM   28  O   UNK N   1      25.328  22.733  -9.483  0.00  0.00    -0.648 OA
BRANCH  27  29
HETATM   29  O   UNK N   1      23.766  22.093  -8.040  0.00  0.00    -0.775 OA
HETATM   30  H   UNK N   1      22.971  22.464  -7.711  0.00  0.00     0.167 HD
ENDBRANCH  27  29
ENDBRANCH  18  27
ENDBRANCH  13  14
ENDBRANCH   1  13
BRANCH   1  31
HETATM   31  C   UNK N   1      28.854  23.796  -3.790  0.00  0.00     0.102 C 
BRANCH  31  32
HETATM   32  C   UNK N   1      29.291  23.309  -2.435  0.00  0.00     0.010 C 
BRANCH  32  33
HETATM   33  C   UNK N   1      30.605  22.546  -2.615  0.00  0.00     0.005 C 
BRANCH  33  34
HETATM   34  C   UNK N   1      30.386  21.296  -3.466  0.00  0.00     0.038 C 
BRANCH  34  35
HETATM   35  C   UNK N   1      31.385  21.200  -4.570  0.00  0.00    -0.058 A 
HETATM   36  C   UNK N   1      31.939  19.963  -4.917  0.00  0.00     0.007 A 
HETATM   37  C   UNK N   1      32.892  19.871  -5.931  0.00  0.00     0.001 A 
HETATM   38  C   UNK N   1      33.296  21.022  -6.609  0.00  0.00     0.000 A 
HETATM   39  C   UNK N   1      32.748  22.263  -6.267  0.00  0.00     0.001 A 
HETATM   40  C   UNK N   1      31.795  22.354  -5.247  0.00  0.00     0.007 A 
ENDBRANCH  34  35
ENDBRANCH  33  34
ENDBRANCH  32  33
ENDBRANCH  31  32
ENDBRANCH   1  31
TORSDOF 16
ENDMDL
MODEL 2
REMARK VINA RESULT:      -6.5      2.402      5.470
REMARK  16 active torsions:
REMARK  status: ('A' for Active; 'I' for Inactive)
REMARK    1  A    between atoms: P_1  and  O_5 
REMARK    2  A    between atoms: P_1  and  C_22 
REMARK    3  A    between atoms: P_1  and  C_23 
REMARK    4  A    between atoms: O_2  and  C_21 
REMARK    5  A    between atoms: O_5  and  C_25 
REMARK    6  A    between atoms: O_7  and  C_25 
REMARK    7  A    between atoms: O_7  and  C_32 
REMARK       I    between atoms: N_9  and  C_20 
REMARK    8  A    between atoms: C_10  and  C_11 
REMARK    9  A    between atoms: C_16  and  C_21 
REMARK   10  A    between atoms: C_20  and  C_22 
REMARK   11  A    between atoms: C_23  and  C_24 
REMARK   12  A    between atoms: C_24  and  C_26 
REMARK   13  A    between atoms: C_25  and  C_27 
REMARK   14  A    between atoms: C_26  and  C_28 
REMARK   15  A    between atoms: C_28  and  C_31 
REMARK   16  A    between atoms: C_32  and  C_35 
ROOT
HETATM    1  P   UNK N   1      29.437  26.532  -5.870  0.00  0.00     0.208 P 
HETATM    2  O   UNK N   1      29.729  28.033  -5.585  0.00  0.00    -0.291 OA
ENDROOT
BRANCH   1   3
HETATM    3  O   UNK N   1      28.469  25.943  -4.539  0.00  0.00    -0.301 OA
BRANCH   3   4
HETATM    4  C   UNK N   1      27.246  26.584  -4.674  0.00  0.00     0.280 C 
BRANCH   4   5
HETATM    5  O   UNK N   1      26.813  27.126  -3.474  0.00  0.00    -0.289 OA
BRANCH   5   6
HETATM    6  C   UNK N   1      26.839  28.458  -3.193  0.00  0.00     0.260 C 
HETATM    7  O   UNK N   1      27.360  28.877  -2.170  0.00  0.00    -0.265 OA
BRANCH   6   8
HETATM    8  C   UNK N   1      26.250  29.425  -4.158  0.00  0.00     0.107 C 
HETATM    9  C   UNK N   1      27.345  30.327  -4.695  0.00  0.00     0.015 C 
ENDBRANCH   6   8
ENDBRANCH   5   6
ENDBRANCH   4   5
BRANCH   4  10
HETATM   10  C   UNK N   1      26.255  25.698  -5.432  0.00  0.00     0.034 C 
HETATM   11  C   UNK N   1      25.664  24.540  -4.642  0.00  0.00     0.014 C 
HETATM   12  C   UNK N   1      25.150  26.589  -5.922  0.00  0.00     0.014 C 
ENDBRANCH   4  10
ENDBRANCH   3   4
ENDBRANCH   1   3
BRANCH   1  13
HETATM   13  C   UNK N   1      31.061  25.712  -5.551  0.00  0.00     0.204 C 
BRANCH  13  14
HETATM   14  C   UNK N   1      30.887  24.853  -4.354  0.00  0.00     0.229 C 
HETATM   15  O   UNK N   1      30.912  25.394  -3.251  0.00  0.00    -0.273 OA
HETATM   16  N   UNK N   1      30.775  23.492  -4.440  0.00  0.00    -0.337 N 
HETATM   17  C   UNK N   1      30.827  22.777  -5.697  0.00  0.00     0.132 C 
HETATM   18  C   UNK N   1      30.780  22.622  -3.296  0.00  0.00     0.185 C 
HETATM   19  C   UNK N   1      31.109  21.339  -5.260  0.00  0.00     0.010 C 
HETATM   20  C   UNK N   1      30.483  21.243  -3.870  0.00  0.00     0.042 C 
BRANCH  19  21
HETATM   21  C   UNK N   1      30.676  20.292  -6.293  0.00  0.00    -0.009 C 
HETATM   22  C   UNK N   1      31.693  20.165  -7.433  0.00  0.00     0.005 C 
HETATM   23  C   UNK N   1      31.205  19.151  -8.468  0.00  0.00     0.000 C 
HETATM   24  C   UNK N   1      29.873  19.606  -9.054  0.00  0.00     0.000 C 
HETATM   25  C   UNK N   1      28.837  19.745  -7.943  0.00  0.00     0.000 C 
HETATM   26  C   UNK N   1      29.327  20.725  -6.881  0.00  0.00     0.005 C 
ENDBRANCH  19  21
BRANCH  18  27
HETATM   27  C   UNK N   1      29.842  23.026  -2.194  0.00  0.00     0.163 C 
HETATM   28  O   UNK N   1      30.240  23.015  -1.041  0.00  0.00    -0.648 OA
BRANCH  27  29
HETATM   29  O   UNK N   1      28.585  23.425  -2.464  0.00  0.00    -0.775 OA
HETATM   30  H   UNK N   1      27.907  23.562  -3.096  0.00  0.00     0.167 HD
ENDBRANCH  27  29
ENDBRANCH  18  27
ENDBRANCH  13  14
ENDBRANCH   1  13
BRANCH   1  31
HETATM   31  C   UNK N   1      29.301  26.149  -7.708  0.00  0.00     0.102 C 
BRANCH  31  32
HETATM   32  C   UNK N   1      28.036  26.491  -8.448  0.00  0.00     0.010 C 
BRANCH  32  33
HETATM   33  C   UNK N   1      27.655  25.284  -9.306  0.00  0.00     0.005 C 
BRANCH  33  34
HETATM   34  C   UNK N   1      26.168  24.969  -9.158  0.00  0.00     0.038 C 
BRANCH  34  35
HETATM   35  C   UNK N   1      25.928  23.505  -8.992  0.00  0.00    -0.058 A 
HETATM   36  C   UNK N   1      25.400  23.007  -7.797  0.00  0.00     0.007 A 
HETATM   37  C   UNK N   1      25.197  21.638  -7.626  0.00  0.00     0.001 A 
HETATM   38  C   UNK N   1      25.524  20.755  -8.657  0.00  0.00     0.000 A 
HETATM   39  C   UNK N   1      26.055  21.245  -9.855  0.00  0.00     0.001 A 
HETATM   40  C   UNK N   1      26.260  22.620 -10.022  0.00  0.00     0.007 A 
ENDBRANCH  34  35
ENDBRANCH  33  34
ENDBRANCH  32  33
ENDBRANCH  31  32
ENDBRANCH   1  31
TORSDOF 16
ENDMDL
MODEL 3
REMARK VINA RESULT:      -6.4      2.613      6.241
REMARK  16 active torsions:
REMARK  status: ('A' for Active; 'I' for Inactive)
REMARK    1  A    between atoms: P_1  and  O_5 
REMARK    2  A    between atoms: P_1  and  C_22 
REMARK    3  A    between atoms: P_1  and  C_23 
REMARK    4  A    between atoms: O_2  and  C_21 
REMARK    5  A    between atoms: O_5  and  C_25 
REMARK    6  A    between atoms: O_7  and  C_25 
REMARK    7  A    between atoms: O_7  and  C_32 
REMARK       I    between atoms: N_9  and  C_20 
REMARK    8  A    between atoms: C_10  and  C_11 
REMARK    9  A    between atoms: C_16  and  C_21 
REMARK   10  A    between atoms: C_20  and  C_22 
REMARK   11  A    between atoms: C_23  and  C_24 
REMARK   12  A    between atoms: C_24  and  C_26 
REMARK   13  A    between atoms: C_25  and  C_27 
REMARK   14  A    between atoms: C_26  and  C_28 
REMARK   15  A    between atoms: C_28  and  C_31 
REMARK   16  A    between atoms: C_32  and  C_35 
ROOT
HETATM    1  P   UNK N   1      27.280  24.585  -3.962  0.00  0.00     0.208 P 
HETATM    2  O   UNK N   1      26.775  23.902  -2.658  0.00  0.00    -0.291 OA
ENDROOT
BRANCH   1   3
HETATM    3  O   UNK N   1      28.642  25.585  -3.515  0.00  0.00    -0.301 OA
BRANCH   3   4
HETATM    4  C   UNK N   1      29.748  24.945  -4.054  0.00  0.00     0.280 C 
BRANCH   4   5
HETATM    5  O   UNK N   1      30.653  24.566  -3.074  0.00  0.00    -0.289 OA
BRANCH   5   6
HETATM    6  C   UNK N   1      30.774  23.293  -2.609  0.00  0.00     0.260 C 
HETATM    7  O   UNK N   1      30.353  22.982  -1.505  0.00  0.00    -0.265 OA
BRANCH   6   8
HETATM    8  C   UNK N   1      31.403  22.252  -3.466  0.00  0.00     0.107 C 
HETATM    9  C   UNK N   1      30.510  21.027  -3.504  0.00  0.00     0.015 C 
ENDBRANCH   6   8
ENDBRANCH   5   6
ENDBRANCH   4   5
BRANCH   4  10
HETATM   10  C   UNK N   1      30.303  25.737  -5.240  0.00  0.00     0.034 C 
HETATM   11  C   UNK N   1      31.076  27.001  -4.889  0.00  0.00     0.014 C 
HETATM   12  C   UNK N   1      31.187  24.807  -6.019  0.00  0.00     0.014 C 
ENDBRANCH   4  10
ENDBRANCH   3   4
ENDBRANCH   1   3
BRANCH   1  13
HETATM   13  C   UNK N   1      25.979  25.848  -4.314  0.00  0.00     0.204 C 
BRANCH  13  14
HETATM   14  C   UNK N   1      26.477  27.143  -3.788  0.00  0.00     0.229 C 
HETATM   15  O   UNK N   1      26.168  27.454  -2.640  0.00  0.00    -0.273 OA
HETATM   16  N   UNK N   1      27.196  28.017  -4.556  0.00  0.00    -0.337 N 
HETATM   17  C   UNK N   1      27.522  27.760  -5.943  0.00  0.00     0.132 C 
HETATM   18  C   UNK N   1      27.542  29.346  -4.134  0.00  0.00     0.185 C 
HETATM   19  C   UNK N   1      27.906  29.145  -6.466  0.00  0.00     0.010 C 
HETATM   20  C   UNK N   1      28.453  29.868  -5.237  0.00  0.00     0.042 C 
BRANCH  19  21
HETATM   21  C   UNK N   1      28.805  29.100  -7.707  0.00  0.00    -0.009 C 
HETATM   22  C   UNK N   1      28.921  27.680  -8.273  0.00  0.00     0.005 C 
HETATM   23  C   UNK N   1      29.863  27.665  -9.478  0.00  0.00     0.000 C 
HETATM   24  C   UNK N   1      31.251  28.136  -9.058  0.00  0.00     0.000 C 
HETATM   25  C   UNK N   1      31.170  29.548  -8.486  0.00  0.00     0.000 C 
HETATM   26  C   UNK N   1      30.203  29.588  -7.307  0.00  0.00     0.005 C 
ENDBRANCH  19  21
BRANCH  18  27
HETATM   27  C   UNK N   1      28.153  29.432  -2.764  0.00  0.00     0.163 C 
HETATM   28  O   UNK N   1      29.305  29.065  -2.603  0.00  0.00    -0.648 OA
BRANCH  27  29
HETATM   29  O   UNK N   1      27.460  29.933  -1.724  0.00  0.00    -0.775 OA
HETATM   30  H   UNK N   1      26.895  29.783  -0.992  0.00  0.00     0.167 HD
ENDBRANCH  27  29
ENDBRANCH  18  27
ENDBRANCH  13  14
ENDBRANCH   1  13
BRANCH   1  31
HETATM   31  C   UNK N   1      27.034  23.515  -5.491  0.00  0.00     0.102 C 
BRANCH  31  32
HETATM   32  C   UNK N   1      27.387  24.063  -6.847  0.00  0.00     0.010 C 
BRANCH  32  33
HETATM   33  C   UNK N   1      28.321  23.061  -7.527  0.00  0.00     0.005 C 
BRANCH  33  34
HETATM   34  C   UNK N   1      28.829  22.032  -6.518  0.00  0.00     0.038 C 
BRANCH  34  35
HETATM   35  C   UNK N   1      29.620  20.954  -7.181  0.00  0.00    -0.058 A 
HETATM   36  C   UNK N   1      31.015  21.033  -7.236  0.00  0.00     0.007 A 
HETATM   37  C   UNK N   1      31.758  20.042  -7.876  0.00  0.00     0.001 A 
HETATM   38  C   UNK N   1      31.104  18.959  -8.467  0.00  0.00     0.000 A 
HETATM   39  C   UNK N   1      29.709  18.873  -8.417  0.00  0.00     0.001 A 
HETATM   40  C   UNK N   1      28.965  19.872  -7.777  0.00  0.00     0.007 A 
ENDBRANCH  34  35
ENDBRANCH  33  34
ENDBRANCH  32  33
ENDBRANCH  31  32
ENDBRANCH   1  31
TORSDOF 16
ENDMDL
MODEL 4
REMARK VINA RESULT:      -6.4      1.592      2.363
REMARK  16 active torsions:
REMARK  status: ('A' for Active; 'I' for Inactive)
REMARK    1  A    between atoms: P_1  and  O_5 
REMARK    2  A    between atoms: P_1  and  C_22 
REMARK    3  A    between atoms: P_1  and  C_23 
REMARK    4  A    between atoms: O_2  and  C_21 
REMARK    5  A    between atoms: O_5  and  C_25 
REMARK    6  A    between atoms: O_7  and  C_25 
REMARK    7  A    between atoms: O_7  and  C_32 
REMARK       I    between atoms: N_9  and  C_20 
REMARK    8  A    between atoms: C_10  and  C_11 
REMARK    9  A    between atoms: C_16  and  C_21 
REMARK   10  A    between atoms: C_20  and  C_22 
REMARK   11  A    between atoms: C_23  and  C_24 
REMARK   12  A    between atoms: C_24  and  C_26 
REMARK   13  A    between atoms: C_25  and  C_27 
REMARK   14  A    between atoms: C_26  and  C_28 
REMARK   15  A    between atoms: C_28  and  C_31 
REMARK   16  A    between atoms: C_32  and  C_35 
ROOT
HETATM    1  P   UNK N   1      27.005  26.041  -4.012  0.00  0.00     0.208 P 
HETATM    2  O   UNK N   1      26.046  24.834  -3.807  0.00  0.00    -0.291 OA
ENDROOT
BRANCH   1   3
HETATM    3  O   UNK N   1      26.086  27.484  -3.654  0.00  0.00    -0.301 OA
BRANCH   3   4
HETATM    4  C   UNK N   1      27.029  28.498  -3.570  0.00  0.00     0.280 C 
BRANCH   4   5
HETATM    5  O   UNK N   1      27.256  28.883  -2.257  0.00  0.00    -0.289 OA
BRANCH   5   6
HETATM    6  C   UNK N   1      28.426  29.424  -1.820  0.00  0.00     0.260 C 
HETATM    7  O   UNK N   1      29.501  29.029  -2.245  0.00  0.00    -0.265 OA
BRANCH   6   8
HETATM    8  C   UNK N   1      28.400  30.532  -0.828  0.00  0.00     0.107 C 
HETATM    9  C   UNK N   1      28.147  29.962   0.554  0.00  0.00     0.015 C 
ENDBRANCH   6   8
ENDBRANCH   5   6
ENDBRANCH   4   5
BRANCH   4  10
HETATM   10  C   UNK N   1      26.716  29.609  -4.573  0.00  0.00     0.034 C 
HETATM   11  C   UNK N   1      26.403  30.973  -3.975  0.00  0.00     0.014 C 
HETATM   12  C   UNK N   1      27.898  29.722  -5.493  0.00  0.00     0.014 C 
ENDBRANCH   4  10
ENDBRANCH   3   4
ENDBRANCH   1   3
BRANCH   1  13
HETATM   13  C   UNK N   1      27.176  26.144  -5.848  0.00  0.00     0.204 C 
BRANCH  13  14
HETATM   14  C   UNK N   1      26.387  25.027  -6.422  0.00  0.00     0.229 C 
HETATM   15  O   UNK N   1      25.170  25.172  -6.514  0.00  0.00    -0.273 OA
HETATM   16  N   UNK N   1      26.957  23.836  -6.779  0.00  0.00    -0.337 N 
HETATM   17  C   UNK N   1      28.369  23.561  -6.618  0.00  0.00     0.132 C 
HETATM   18  C   UNK N   1      26.199  22.681  -7.174  0.00  0.00     0.185 C 
HETATM   19  C   UNK N   1      28.432  22.035  -6.717  0.00  0.00     0.010 C 
HETATM   20  C   UNK N   1      27.252  21.671  -7.614  0.00  0.00     0.042 C 
BRANCH  19  21
HETATM   21  C   UNK N   1      29.812  21.509  -7.130  0.00  0.00    -0.009 C 
HETATM   22  C   UNK N   1      30.387  22.293  -8.315  0.00  0.00     0.005 C 
HETATM   23  C   UNK N   1      31.738  21.709  -8.731  0.00  0.00     0.000 C 
HETATM   24  C   UNK N   1      31.569  20.252  -9.147  0.00  0.00     0.000 C 
HETATM   25  C   UNK N   1      30.995  19.444  -7.988  0.00  0.00     0.000 C 
HETATM   26  C   UNK N   1      29.663  20.038  -7.536  0.00  0.00     0.005 C 
ENDBRANCH  19  21
BRANCH  18  27
HETATM   27  C   UNK N   1      25.150  22.942  -8.217  0.00  0.00     0.163 C 
HETATM   28  O   UNK N   1      24.059  22.407  -8.108  0.00  0.00    -0.648 OA
BRANCH  27  29
HETATM   29  O   UNK N   1      25.386  23.777  -9.246  0.00  0.00    -0.775 OA
HETATM   30  H   UNK N   1      25.054  24.395  -9.868  0.00  0.00     0.167 HD
ENDBRANCH  27  29
ENDBRANCH  18  27
ENDBRANCH  13  14
ENDBRANCH   1  13
BRANCH   1  31
HETATM   31  C   UNK N   1      28.795  25.632  -3.599  0.00  0.00     0.102 C 
BRANCH  31  32
HETATM   32  C   UNK N   1      29.904  26.234  -4.418  0.00  0.00     0.010 C 
BRANCH  32  33
HETATM   33  C   UNK N   1      31.066  25.240  -4.433  0.00  0.00     0.005 C 
BRANCH  33  34
HETATM   34  C   UNK N   1      30.771  24.056  -3.513  0.00  0.00     0.038 C 
BRANCH  34  35
HETATM   35  C   UNK N   1      31.394  22.798  -4.017  0.00  0.00    -0.058 A 
HETATM   36  C   UNK N   1      30.864  21.554  -3.659  0.00  0.00     0.007 A 
HETATM   37  C   UNK N   1      31.457  20.374  -4.107  0.00  0.00     0.001 A 
HETATM   38  C   UNK N   1      32.589  20.433  -4.921  0.00  0.00     0.000 A 
HETATM   39  C   UNK N   1      33.127  21.672  -5.282  0.00  0.00     0.001 A 
HETATM   40  C   UNK N   1      32.532  22.855  -4.829  0.00  0.00     0.007 A 
ENDBRANCH  34  35
ENDBRANCH  33  34
ENDBRANCH  32  33
ENDBRANCH  31  32
ENDBRANCH   1  31
TORSDOF 16
ENDMDL
MODEL 5
REMARK VINA RESULT:      -6.4     13.133     15.840
REMARK  16 active torsions:
REMARK  status: ('A' for Active; 'I' for Inactive)
REMARK    1  A    between atoms: P_1  and  O_5 
REMARK    2  A    between atoms: P_1  and  C_22 
REMARK    3  A    between atoms: P_1  and  C_23 
REMARK    4  A    between atoms: O_2  and  C_21 
REMARK    5  A    between atoms: O_5  and  C_25 
REMARK    6  A    between atoms: O_7  and  C_25 
REMARK    7  A    between atoms: O_7  and  C_32 
REMARK       I    between atoms: N_9  and  C_20 
REMARK    8  A    between atoms: C_10  and  C_11 
REMARK    9  A    between atoms: C_16  and  C_21 
REMARK   10  A    between atoms: C_20  and  C_22 
REMARK   11  A    between atoms: C_23  and  C_24 
REMARK   12  A    between atoms: C_24  and  C_26 
REMARK   13  A    between atoms: C_25  and  C_27 
REMARK   14  A    between atoms: C_26  and  C_28 
REMARK   15  A    between atoms: C_28  and  C_31 
REMARK   16  A    between atoms: C_32  and  C_35 
ROOT
HETATM    1  P   UNK N   1      21.240  17.764   3.950  0.00  0.00     0.208 P 
HETATM    2  O   UNK N   1      19.900  17.161   4.460  0.00  0.00    -0.291 OA
ENDROOT
BRANCH   1   3
HETATM    3  O   UNK N   1      22.000  16.543   2.958  0.00  0.00    -0.301 OA
BRANCH   3   4
HETATM    4  C   UNK N   1      21.054  15.535   2.842  0.00  0.00     0.280 C 
BRANCH   4   5
HETATM    5  O   UNK N   1      21.400  14.414   3.582  0.00  0.00    -0.289 OA
BRANCH   5   6
HETATM    6  C   UNK N   1      22.394  13.553   3.230  0.00  0.00     0.260 C 
HETATM    7  O   UNK N   1      22.140  12.428   2.829  0.00  0.00    -0.265 OA
BRANCH   6   8
HETATM    8  C   UNK N   1      23.812  13.995   3.306  0.00  0.00     0.107 C 
HETATM    9  C   UNK N   1      24.366  13.667   4.679  0.00  0.00     0.015 C 
ENDBRANCH   6   8
ENDBRANCH   5   6
ENDBRANCH   4   5
BRANCH   4  10
HETATM   10  C   UNK N   1      20.685  15.308   1.375  0.00  0.00     0.034 C 
HETATM   11  C   UNK N   1      19.595  14.278   1.117  0.00  0.00     0.014 C 
HETATM   12  C   UNK N   1      20.266  16.636   0.813  0.00  0.00     0.014 C 
ENDBRANCH   4  10
ENDBRANCH   3   4
ENDBRANCH   1   3
BRANCH   1  13
HETATM   13  C   UNK N   1      22.313  17.757   5.453  0.00  0.00     0.204 C 
BRANCH  13  14
HETATM   14  C   UNK N   1      21.413  17.671   6.629  0.00  0.00     0.229 C 
HETATM   15  O   UNK N   1      20.888  18.708   7.027  0.00  0.00    -0.273 OA
HETATM   16  N   UNK N   1      21.212  16.503   7.314  0.00  0.00    -0.337 N 
HETATM   17  C   UNK N   1      21.865  15.261   6.957  0.00  0.00     0.132 C 
HETATM   18  C   UNK N   1      20.488  16.424   8.552  0.00  0.00     0.185 C 
HETATM   19  C   UNK N   1      21.694  14.413   8.218  0.00  0.00     0.010 C 
HETATM   20  C   UNK N   1      20.401  14.932   8.843  0.00  0.00     0.042 C 
BRANCH  19  21
HETATM   21  C   UNK N   1      21.785  12.905   7.954  0.00  0.00    -0.009 C 
HETATM   22  C   UNK N   1      23.236  12.411   7.978  0.00  0.00     0.005 C 
HETATM   23  C   UNK N   1      23.292  10.916   7.662  0.00  0.00     0.000 C 
HETATM   24  C   UNK N   1      22.713  10.655   6.276  0.00  0.00     0.000 C 
HETATM   25  C   UNK N   1      21.268  11.139   6.217  0.00  0.00     0.000 C 
HETATM   26  C   UNK N   1      21.190  12.623   6.569  0.00  0.00     0.005 C 
ENDBRANCH  19  21
BRANCH  18  27
HETATM   27  C   UNK N   1      19.151  17.111   8.545  0.00  0.00     0.163 C 
HETATM   28  O   UNK N   1      18.212  16.574   7.981  0.00  0.00    -0.648 OA
BRANCH  27  29
HETATM   29  O   UNK N   1      18.972  18.287   9.174  0.00  0.00    -0.775 OA
HETATM   30  H   UNK N   1      19.348  19.042   9.582  0.00  0.00     0.167 HD
ENDBRANCH  27  29
ENDBRANCH  18  27
ENDBRANCH  13  14
ENDBRANCH   1  13
BRANCH   1  31
HETATM   31  C   UNK N   1      21.152  19.627   3.693  0.00  0.00     0.102 C 
BRANCH  31  32
HETATM   32  C   UNK N   1      21.959  20.266   2.596  0.00  0.00     0.010 C 
BRANCH  32  33
HETATM   33  C   UNK N   1      23.281  20.739   3.203  0.00  0.00     0.005 C 
BRANCH  33  34
HETATM   34  C   UNK N   1      24.458  20.294   2.336  0.00  0.00     0.038 C 
BRANCH  34  35
HETATM   35  C   UNK N   1      25.533  19.657   3.151  0.00  0.00    -0.058 A 
HETATM   36  C   UNK N   1      26.629  20.408   3.586  0.00  0.00     0.007 A 
HETATM   37  C   UNK N   1      27.649  19.812   4.327  0.00  0.00     0.001 A 
HETATM   38  C   UNK N   1      27.577  18.454   4.639  0.00  0.00     0.000 A 
HETATM   39  C   UNK N   1      26.485  17.695   4.206  0.00  0.00     0.001 A 
HETATM   40  C   UNK N   1      25.464  18.294   3.459  0.00  0.00     0.007 A 
ENDBRANCH  34  35
ENDBRANCH  33  34
ENDBRANCH  32  33
ENDBRANCH  31  32
ENDBRANCH   1  31
TORSDOF 16
ENDMDL
MODEL 6
REMARK VINA RESULT:      -6.4     12.820     15.648
REMARK  16 active torsions:
REMARK  status: ('A' for Active; 'I' for Inactive)
REMARK    1  A    between atoms: P_1  and  O_5 
REMARK    2  A    between atoms: P_1  and  C_22 
REMARK    3  A    between atoms: P_1  and  C_23 
REMARK    4  A    between atoms: O_2  and  C_21 
REMARK    5  A    between atoms: O_5  and  C_25 
REMARK    6  A    between atoms: O_7  and  C_25 
REMARK    7  A    between atoms: O_7  and  C_32 
REMARK       I    between atoms: N_9  and  C_20 
REMARK    8  A    between atoms: C_10  and  C_11 
REMARK    9  A    between atoms: C_16  and  C_21 
REMARK   10  A    between atoms: C_20  and  C_22 
REMARK   11  A    between atoms: C_23  and  C_24 
REMARK   12  A    between atoms: C_24  and  C_26 
REMARK   13  A    between atoms: C_25  and  C_27 
REMARK   14  A    between atoms: C_26  and  C_28 
REMARK   15  A    between atoms: C_28  and  C_31 
REMARK   16  A    between atoms: C_32  and  C_35 
ROOT
HETATM    1  P   UNK N   1      21.932  14.844   5.806  0.00  0.00     0.208 P 
HETATM    2  O   UNK N   1      21.241  14.875   4.413  0.00  0.00    -0.291 OA
ENDROOT
BRANCH   1   3
HETATM    3  O   UNK N   1      20.802  14.105   6.916  0.00  0.00    -0.301 OA
BRANCH   3   4
HETATM    4  C   UNK N   1      21.560  13.769   8.028  0.00  0.00     0.280 C 
BRANCH   4   5
HETATM    5  O   UNK N   1      21.799  12.405   8.096  0.00  0.00    -0.289 OA
BRANCH   5   6
HETATM    6  C   UNK N   1      23.043  11.859   8.176  0.00  0.00     0.260 C 
HETATM    7  O   UNK N   1      23.637  11.491   7.174  0.00  0.00    -0.265 OA
BRANCH   6   8
HETATM    8  C   UNK N   1      23.706  11.730   9.502  0.00  0.00     0.107 C 
HETATM    9  C   UNK N   1      24.710  12.854   9.671  0.00  0.00     0.015 C 
ENDBRANCH   6   8
ENDBRANCH   5   6
ENDBRANCH   4   5
BRANCH   4  10
HETATM   10  C   UNK N   1      20.997  14.436   9.285  0.00  0.00     0.034 C 
HETATM   11  C   UNK N   1      19.880  15.444   9.056  0.00  0.00     0.014 C 
HETATM   12  C   UNK N   1      20.509  13.339  10.188  0.00  0.00     0.014 C 
ENDBRANCH   4  10
ENDBRANCH   3   4
ENDBRANCH   1   3
BRANCH   1  13
HETATM   13  C   UNK N   1      21.894  16.610   6.342  0.00  0.00     0.204 C 
BRANCH  13  14
HETATM   14  C   UNK N   1      21.518  17.417   5.155  0.00  0.00     0.229 C 
HETATM   15  O   UNK N   1      20.402  17.242   4.672  0.00  0.00    -0.273 OA
HETATM   16  N   UNK N   1      22.390  18.282   4.552  0.00  0.00    -0.337 N 
HETATM   17  C   UNK N   1      23.749  18.475   5.011  0.00  0.00     0.132 C 
HETATM   18  C   UNK N   1      22.116  18.945   3.307  0.00  0.00     0.185 C 
HETATM   19  C   UNK N   1      24.422  19.144   3.811  0.00  0.00     0.010 C 
HETATM   20  C   UNK N   1      23.288  19.900   3.122  0.00  0.00     0.042 C 
BRANCH  19  21
HETATM   21  C   UNK N   1      25.672  19.949   4.185  0.00  0.00    -0.009 C 
HETATM   22  C   UNK N   1      26.958  19.158   3.921  0.00  0.00     0.005 C 
HETATM   23  C   UNK N   1      28.179  19.972   4.351  0.00  0.00     0.000 C 
HETATM   24  C   UNK N   1      28.097  20.284   5.842  0.00  0.00     0.000 C 
HETATM   25  C   UNK N   1      26.825  21.069   6.139  0.00  0.00     0.000 C 
HETATM   26  C   UNK N   1      25.598  20.287   5.679  0.00  0.00     0.005 C 
ENDBRANCH  19  21
BRANCH  18  27
HETATM   27  C   UNK N   1      20.777  19.622   3.235  0.00  0.00     0.163 C 
HETATM   28  O   UNK N   1      20.052  19.403   2.279  0.00  0.00    -0.648 OA
BRANCH  27  29
HETATM   29  O   UNK N   1      20.358  20.438   4.220  0.00  0.00    -0.775 OA
HETATM   30  H   UNK N   1      20.469  20.763   5.092  0.00  0.00     0.167 HD
ENDBRANCH  27  29
ENDBRANCH  18  27
ENDBRANCH  13  14
ENDBRANCH   1  13
BRANCH   1  31
HETATM   31  C   UNK N   1      23.801  14.640   5.692  0.00  0.00     0.102 C 
BRANCH  31  32
HETATM   32  C   UNK N   1      24.681  15.239   6.754  0.00  0.00     0.010 C 
BRANCH  32  33
HETATM   33  C   UNK N   1      26.135  15.002   6.345  0.00  0.00     0.005 C 
BRANCH  33  34
HETATM   34  C   UNK N   1      26.737  16.272   5.744  0.00  0.00     0.038 C 
BRANCH  34  35
HETATM   35  C   UNK N   1      27.924  16.738   6.519  0.00  0.00    -0.058 A 
HETATM   36  C   UNK N   1      29.202  16.684   5.953  0.00  0.00     0.007 A 
HETATM   37  C   UNK N   1      30.319  17.095   6.680  0.00  0.00     0.001 A 
HETATM   38  C   UNK N   1      30.161  17.565   7.985  0.00  0.00     0.000 A 
HETATM   39  C   UNK N   1      28.887  17.620   8.559  0.00  0.00     0.001 A 
HETATM   40  C   UNK N   1      27.768  17.204   7.828  0.00  0.00     0.007 A 
ENDBRANCH  34  35
ENDBRANCH  33  34
ENDBRANCH  32  33
ENDBRANCH  31  32
ENDBRANCH   1  31
TORSDOF 16
ENDMDL
MODEL 7
REMARK VINA RESULT:      -6.3     15.157     18.759
REMARK  16 active torsions:
REMARK  status: ('A' for Active; 'I' for Inactive)
REMARK    1  A    between atoms: P_1  and  O_5 
REMARK    2  A    between atoms: P_1  and  C_22 
REMARK    3  A    between atoms: P_1  and  C_23 
REMARK    4  A    between atoms: O_2  and  C_21 
REMARK    5  A    between atoms: O_5  and  C_25 
REMARK    6  A    between atoms: O_7  and  C_25 
REMARK    7  A    between atoms: O_7  and  C_32 
REMARK       I    between atoms: N_9  and  C_20 
REMARK    8  A    between atoms: C_10  and  C_11 
REMARK    9  A    between atoms: C_16  and  C_21 
REMARK   10  A    between atoms: C_20  and  C_22 
REMARK   11  A    between atoms: C_23  and  C_24 
REMARK   12  A    between atoms: C_24  and  C_26 
REMARK   13  A    between atoms: C_25  and  C_27 
REMARK   14  A    between atoms: C_26  and  C_28 
REMARK   15  A    between atoms: C_28  and  C_31 
REMARK   16  A    between atoms: C_32  and  C_35 
ROOT
HETATM    1  P   UNK N   1      32.301  15.377   8.217  0.00  0.00     0.208 P 
HETATM    2  O   UNK N   1      32.298  13.937   8.805  0.00  0.00    -0.291 OA
ENDROOT
BRANCH   1   3
HETATM    3  O   UNK N   1      32.835  15.247   6.559  0.00  0.00    -0.301 OA
BRANCH   3   4
HETATM    4  C   UNK N   1      31.772  15.717   5.802  0.00  0.00     0.280 C 
BRANCH   4   5
HETATM    5  O   UNK N   1      31.366  14.792   4.852  0.00  0.00    -0.289 OA
BRANCH   5   6
HETATM    6  C   UNK N   1      31.826  13.512   4.799  0.00  0.00     0.260 C 
HETATM    7  O   UNK N   1      31.305  12.626   5.459  0.00  0.00    -0.265 OA
BRANCH   6   8
HETATM    8  C   UNK N   1      32.965  13.176   3.903  0.00  0.00     0.107 C 
HETATM    9  C   UNK N   1      32.962  14.116   2.714  0.00  0.00     0.015 C 
ENDBRANCH   6   8
ENDBRANCH   5   6
ENDBRANCH   4   5
BRANCH   4  10
HETATM   10  C   UNK N   1      32.049  17.139   5.308  0.00  0.00     0.034 C 
HETATM   11  C   UNK N   1      33.515  17.545   5.248  0.00  0.00     0.014 C 
HETATM   12  C   UNK N   1      31.435  17.262   3.943  0.00  0.00     0.014 C 
ENDBRANCH   4  10
ENDBRANCH   3   4
ENDBRANCH   1   3
BRANCH   1  13
HETATM   13  C   UNK N   1      33.760  16.168   9.027  0.00  0.00     0.204 C 
BRANCH  13  14
HETATM   14  C   UNK N   1      34.885  15.206   8.930  0.00  0.00     0.229 C 
HETATM   15  O   UNK N   1      35.408  15.044   7.829  0.00  0.00    -0.273 OA
HETATM   16  N   UNK N   1      35.302  14.456   9.996  0.00  0.00    -0.337 N 
HETATM   17  C   UNK N   1      34.678  14.528  11.300  0.00  0.00     0.132 C 
HETATM   18  C   UNK N   1      36.269  13.398   9.892  0.00  0.00     0.185 C 
HETATM   19  C   UNK N   1      35.162  13.247  11.981  0.00  0.00     0.010 C 
HETATM   20  C   UNK N   1      36.517  12.971  11.332  0.00  0.00     0.042 C 
BRANCH  19  21
HETATM   21  C   UNK N   1      35.123  13.320  13.512  0.00  0.00    -0.009 C 
HETATM   22  C   UNK N   1      36.509  13.604  14.103  0.00  0.00     0.005 C 
HETATM   23  C   UNK N   1      36.440  13.619  15.630  0.00  0.00     0.000 C 
HETATM   24  C   UNK N   1      35.961  12.266  16.143  0.00  0.00     0.000 C 
HETATM   25  C   UNK N   1      34.583  11.952  15.570  0.00  0.00     0.000 C 
HETATM   26  C   UNK N   1      34.625  11.971  14.045  0.00  0.00     0.005 C 
ENDBRANCH  19  21
BRANCH  18  27
HETATM   27  C   UNK N   1      37.525  13.763   9.152  0.00  0.00     0.163 C 
HETATM   28  O   UNK N   1      38.368  14.442   9.713  0.00  0.00    -0.648 OA
BRANCH  27  29
HETATM   29  O   UNK N   1      37.743  13.327   7.897  0.00  0.00    -0.775 OA
HETATM   30  H   UNK N   1      37.609  12.669   7.244  0.00  0.00     0.167 HD
ENDBRANCH  27  29
ENDBRANCH  18  27
ENDBRANCH  13  14
ENDBRANCH   1  13
BRANCH   1  31
HETATM   31  C   UNK N   1      30.959  16.471   8.958  0.00  0.00     0.102 C 
BRANCH  31  32
HETATM   32  C   UNK N   1      30.955  17.947   8.664  0.00  0.00     0.010 C 
BRANCH  32  33
HETATM   33  C   UNK N   1      29.502  18.380   8.469  0.00  0.00     0.005 C 
BRANCH  33  34
HETATM   34  C   UNK N   1      28.936  17.793   7.177  0.00  0.00     0.038 C 
BRANCH  34  35
HETATM   35  C   UNK N   1      28.222  18.824   6.370  0.00  0.00    -0.058 A 
HETATM   36  C   UNK N   1      28.160  18.713   4.977  0.00  0.00     0.007 A 
HETATM   37  C   UNK N   1      27.516  19.687   4.214  0.00  0.00     0.001 A 
HETATM   38  C   UNK N   1      26.926  20.783   4.846  0.00  0.00     0.000 A 
HETATM   39  C   UNK N   1      26.985  20.903   6.238  0.00  0.00     0.001 A 
HETATM   40  C   UNK N   1      27.635  19.926   7.001  0.00  0.00     0.007 A 
ENDBRANCH  34  35
ENDBRANCH  33  34
ENDBRANCH  32  33
ENDBRANCH  31  32
ENDBRANCH   1  31
TORSDOF 16
ENDMDL
MODEL 8
REMARK VINA RESULT:      -6.3     12.214     15.098
REMARK  16 active torsions:
REMARK  status: ('A' for Active; 'I' for Inactive)
REMARK    1  A    between atoms: P_1  and  O_5 
REMARK    2  A    between atoms: P_1  and  C_22 
REMARK    3  A    between atoms: P_1  and  C_23 
REMARK    4  A    between atoms: O_2  and  C_21 
REMARK    5  A    between atoms: O_5  and  C_25 
REMARK    6  A    between atoms: O_7  and  C_25 
REMARK    7  A    between atoms: O_7  and  C_32 
REMARK       I    between atoms: N_9  and  C_20 
REMARK    8  A    between atoms: C_10  and  C_11 
REMARK    9  A    between atoms: C_16  and  C_21 
REMARK   10  A    between atoms: C_20  and  C_22 
REMARK   11  A    between atoms: C_23  and  C_24 
REMARK   12  A    between atoms: C_24  and  C_26 
REMARK   13  A    between atoms: C_25  and  C_27 
REMARK   14  A    between atoms: C_26  and  C_28 
REMARK   15  A    between atoms: C_28  and  C_31 
REMARK   16  A    between atoms: C_32  and  C_35 
ROOT
HETATM    1  P   UNK N   1      21.784  15.974   5.284  0.00  0.00     0.208 P 
HETATM    2  O   UNK N   1      22.136  16.054   3.771  0.00  0.00    -0.291 OA
ENDROOT
BRANCH   1   3
HETATM    3  O   UNK N   1      20.190  15.266   5.396  0.00  0.00    -0.301 OA
BRANCH   3   4
HETATM    4  C   UNK N   1      20.231  14.468   6.530  0.00  0.00     0.280 C 
BRANCH   4   5
HETATM    5  O   UNK N   1      20.495  15.209   7.673  0.00  0.00    -0.289 OA
BRANCH   5   6
HETATM    6  C   UNK N   1      19.591  15.406   8.671  0.00  0.00     0.260 C 
HETATM    7  O   UNK N   1      19.449  14.585   9.564  0.00  0.00    -0.265 OA
BRANCH   6   8
HETATM    8  C   UNK N   1      18.781  16.653   8.694  0.00  0.00     0.107 C 
HETATM    9  C   UNK N   1      19.689  17.836   8.964  0.00  0.00     0.015 C 
ENDBRANCH   6   8
ENDBRANCH   5   6
ENDBRANCH   4   5
BRANCH   4  10
HETATM   10  C   UNK N   1      21.103  13.234   6.289  0.00  0.00     0.034 C 
HETATM   11  C   UNK N   1      21.627  12.539   7.537  0.00  0.00     0.014 C 
HETATM   12  C   UNK N   1      20.287  12.267   5.480  0.00  0.00     0.014 C 
ENDBRANCH   4  10
ENDBRANCH   3   4
ENDBRANCH   1   3
BRANCH   1  13
HETATM   13  C   UNK N   1      21.453  17.732   5.739  0.00  0.00     0.204 C 
BRANCH  13  14
HETATM   14  C   UNK N   1      21.409  18.509   4.476  0.00  0.00     0.229 C 
HETATM   15  O   UNK N   1      20.367  18.489   3.825  0.00  0.00    -0.273 OA
HETATM   16  N   UNK N   1      22.500  19.175   3.988  0.00  0.00    -0.337 N 
HETATM   17  C   UNK N   1      23.786  19.170   4.653  0.00  0.00     0.132 C 
HETATM   18  C   UNK N   1      22.540  19.788   2.689  0.00  0.00     0.185 C 
HETATM   19  C   UNK N   1      24.741  19.635   3.551  0.00  0.00     0.010 C 
HETATM   20  C   UNK N   1      23.875  20.520   2.658  0.00  0.00     0.042 C 
BRANCH  19  21
HETATM   21  C   UNK N   1      26.040  20.245   4.090  0.00  0.00    -0.009 C 
HETATM   22  C   UNK N   1      27.168  19.210   4.160  0.00  0.00     0.005 C 
HETATM   23  C   UNK N   1      28.431  19.841   4.748  0.00  0.00     0.000 C 
HETATM   24  C   UNK N   1      28.150  20.351   6.157  0.00  0.00     0.000 C 
HETATM   25  C   UNK N   1      27.028  21.383   6.122  0.00  0.00     0.000 C 
HETATM   26  C   UNK N   1      25.771  20.780   5.502  0.00  0.00     0.005 C 
ENDBRANCH  19  21
BRANCH  18  27
HETATM   27  C   UNK N   1      21.366  20.671   2.374  0.00  0.00     0.163 C 
HETATM   28  O   UNK N   1      20.997  20.778   1.216  0.00  0.00    -0.648 OA
BRANCH  27  29
HETATM   29  O   UNK N   1      20.702  21.319   3.349  0.00  0.00    -0.775 OA
HETATM   30  H   UNK N   1      20.503  22.126   3.782  0.00  0.00     0.167 HD
ENDBRANCH  27  29
ENDBRANCH  18  27
ENDBRANCH  13  14
ENDBRANCH   1  13
BRANCH   1  31
HETATM   31  C   UNK N   1      23.294  15.696   6.373  0.00  0.00     0.102 C 
BRANCH  31  32
HETATM   32  C   UNK N   1      24.531  15.074   5.785  0.00  0.00     0.010 C 
BRANCH  32  33
HETATM   33  C   UNK N   1      25.562  16.185   5.581  0.00  0.00     0.005 C 
BRANCH  33  34
HETATM   34  C   UNK N   1      26.961  15.595   5.413  0.00  0.00     0.038 C 
BRANCH  34  35
HETATM   35  C   UNK N   1      27.961  16.296   6.271  0.00  0.00    -0.058 A 
HETATM   36  C   UNK N   1      29.296  16.392   5.865  0.00  0.00     0.007 A 
HETATM   37  C   UNK N   1      30.241  17.024   6.674  0.00  0.00     0.001 A 
HETATM   38  C   UNK N   1      29.851  17.567   7.899  0.00  0.00     0.000 A 
HETATM   39  C   UNK N   1      28.518  17.475   8.312  0.00  0.00     0.001 A 
HETATM   40  C   UNK N   1      27.573  16.837   7.501  0.00  0.00     0.007 A 
ENDBRANCH  34  35
ENDBRANCH  33  34
ENDBRANCH  32  33
ENDBRANCH  31  32
ENDBRANCH   1  31
TORSDOF 16
ENDMDL
MODEL 9
REMARK VINA RESULT:      -6.2      1.877      2.877
REMARK  16 active torsions:
REMARK  status: ('A' for Active; 'I' for Inactive)
REMARK    1  A    between atoms: P_1  and  O_5 
REMARK    2  A    between atoms: P_1  and  C_22 
REMARK    3  A    between atoms: P_1  and  C_23 
REMARK    4  A    between atoms: O_2  and  C_21 
REMARK    5  A    between atoms: O_5  and  C_25 
REMARK    6  A    between atoms: O_7  and  C_25 
REMARK    7  A    between atoms: O_7  and  C_32 
REMARK       I    between atoms: N_9  and  C_20 
REMARK    8  A    between atoms: C_10  and  C_11 
REMARK    9  A    between atoms: C_16  and  C_21 
REMARK   10  A    between atoms: C_20  and  C_22 
REMARK   11  A    between atoms: C_23  and  C_24 
REMARK   12  A    between atoms: C_24  and  C_26 
REMARK   13  A    between atoms: C_25  and  C_27 
REMARK   14  A    between atoms: C_26  and  C_28 
REMARK   15  A    between atoms: C_28  and  C_31 
REMARK   16  A    between atoms: C_32  and  C_35 
ROOT
HETATM    1  P   UNK N   1      27.214  24.982  -3.727  0.00  0.00     0.208 P 
HETATM    2  O   UNK N   1      26.336  26.034  -2.991  0.00  0.00    -0.291 OA
ENDROOT
BRANCH   1   3
HETATM    3  O   UNK N   1      28.015  25.818  -5.037  0.00  0.00    -0.301 OA
BRANCH   3   4
HETATM    4  C   UNK N   1      28.817  26.767  -4.419  0.00  0.00     0.280 C 
BRANCH   4   5
HETATM    5  O   UNK N   1      28.233  28.025  -4.435  0.00  0.00    -0.289 OA
BRANCH   5   6
HETATM    6  C   UNK N   1      27.865  28.673  -5.573  0.00  0.00     0.260 C 
HETATM    7  O   UNK N   1      26.840  28.373  -6.167  0.00  0.00    -0.265 OA
BRANCH   6   8
HETATM    8  C   UNK N   1      28.706  29.784  -6.093  0.00  0.00     0.107 C 
HETATM    9  C   UNK N   1      29.096  29.487  -7.528  0.00  0.00     0.015 C 
ENDBRANCH   6   8
ENDBRANCH   5   6
ENDBRANCH   4   5
BRANCH   4  10
HETATM   10  C   UNK N   1      30.257  26.666  -4.924  0.00  0.00     0.034 C 
HETATM   11  C   UNK N   1      31.290  26.224  -3.897  0.00  0.00     0.014 C 
HETATM   12  C   UNK N   1      30.256  25.709  -6.081  0.00  0.00     0.014 C 
ENDBRANCH   4  10
ENDBRANCH   3   4
ENDBRANCH   1   3
BRANCH   1  13
HETATM   13  C   UNK N   1      25.979  23.951  -4.633  0.00  0.00     0.204 C 
BRANCH  13  14
HETATM   14  C   UNK N   1      25.936  24.450  -6.030  0.00  0.00     0.229 C 
HETATM   15  O   UNK N   1      25.203  25.406  -6.276  0.00  0.00    -0.273 OA
HETATM   16  N   UNK N   1      26.622  23.842  -7.046  0.00  0.00    -0.337 N 
HETATM   17  C   UNK N   1      27.434  22.660  -6.848  0.00  0.00     0.132 C 
HETATM   18  C   UNK N   1      26.465  24.193  -8.430  0.00  0.00     0.185 C 
HETATM   19  C   UNK N   1      27.605  22.123  -8.270  0.00  0.00     0.010 C 
HETATM   20  C   UNK N   1      27.523  23.368  -9.151  0.00  0.00     0.042 C 
BRANCH  19  21
HETATM   21  C   UNK N   1      28.839  21.228  -8.438  0.00  0.00    -0.009 C 
HETATM   22  C   UNK N   1      28.644  19.861  -7.774  0.00  0.00     0.005 C 
HETATM   23  C   UNK N   1      29.911  19.016  -7.918  0.00  0.00     0.000 C 
HETATM   24  C   UNK N   1      31.085  19.721  -7.247  0.00  0.00     0.000 C 
HETATM   25  C   UNK N   1      31.303  21.088  -7.885  0.00  0.00     0.000 C 
HETATM   26  C   UNK N   1      30.035  21.930  -7.784  0.00  0.00     0.005 C 
ENDBRANCH  19  21
BRANCH  18  27
HETATM   27  C   UNK N   1      26.556  25.665  -8.720  0.00  0.00     0.163 C 
HETATM   28  O   UNK N   1      25.730  26.176  -9.458  0.00  0.00    -0.648 OA
BRANCH  27  29
HETATM   29  O   UNK N   1      27.513  26.426  -8.157  0.00  0.00    -0.775 OA
HETATM   30  H   UNK N   1      28.202  27.052  -8.261  0.00  0.00     0.167 HD
ENDBRANCH  27  29
ENDBRANCH  18  27
ENDBRANCH  13  14
ENDBRANCH   1  13
BRANCH   1  31
HETATM   31  C   UNK N   1      27.880  23.650  -2.575  0.00  0.00     0.102 C 
BRANCH  31  32
HETATM   32  C   UNK N   1      29.347  23.318  -2.592  0.00  0.00     0.010 C 
BRANCH  32  33
HETATM   33  C   UNK N   1      29.690  22.787  -3.984  0.00  0.00     0.005 C 
BRANCH  33  34
HETATM   34  C   UNK N   1      30.459  21.471  -3.882  0.00  0.00     0.038 C 
BRANCH  34  35
HETATM   35  C   UNK N   1      31.903  21.649  -4.210  0.00  0.00    -0.058 A 
HETATM   36  C   UNK N   1      32.839  20.681  -3.831  0.00  0.00     0.007 A 
HETATM   37  C   UNK N   1      34.194  20.854  -4.113  0.00  0.00     0.001 A 
HETATM   38  C   UNK N   1      34.622  22.003  -4.780  0.00  0.00     0.000 A 
HETATM   39  C   UNK N   1      33.693  22.977  -5.161  0.00  0.00     0.001 A 
HETATM   40  C   UNK N   1      32.334  22.802  -4.874  0.00  0.00     0.007 A 
ENDBRANCH  34  35
ENDBRANCH  33  34
ENDBRANCH  32  33
ENDBRANCH  31  32
ENDBRANCH   1  31
TORSDOF 16
ENDMDL
