MODEL 1
REMARK VINA RESULT:      -6.3      0.000      0.000
REMARK  7 active torsions:
REMARK  status: ('A' for Active; 'I' for Inactive)
REMARK    1  A    between atoms: O_2  and  C_20 
REMARK    2  A    between atoms: O_3  and  C_21 
REMARK    3  A    between atoms: N_6  and  C_9 
REMARK    4  A    between atoms: N_6  and  C_10 
REMARK       I    between atoms: N_6  and  C_11 
REMARK    5  A    between atoms: N_7  and  C_19 
REMARK    6  A    between atoms: C_11  and  C_15 
REMARK    7  A    between atoms: C_14  and  C_16 
ROOT
HETATM    1  N   UNK N   1      23.863  16.685   5.282  0.00  0.00    -0.191 NA
HETATM    2  C   UNK N   1      21.404  16.874   6.144  0.00  0.00     0.113 C 
HETATM    3  C   UNK N   1      20.462  17.302   5.318  0.00  0.00     0.040 C 
HETATM    4  C   UNK N   1      22.785  16.754   5.702  0.00  0.00     0.105 C 
ENDROOT
BRANCH   2   5
HETATM    5  C   UNK N   1      20.966  16.402   7.457  0.00  0.00     0.264 C 
HETATM    6  O   UNK N   1      20.698  17.238   8.317  0.00  0.00    -0.267 OA
HETATM    7  N   UNK N   1      20.861  15.078   7.745  0.00  0.00    -0.348 N 
BRANCH   7   8
HETATM    8  C   UNK N   1      20.424  14.688   9.058  0.00  0.00     0.121 C 
HETATM    9  C   UNK N   1      21.494  13.834   9.701  0.00  0.00     0.026 C 
ENDBRANCH   7   8
BRANCH   7  10
HETATM   10  C   UNK N   1      21.405  14.058   6.866  0.00  0.00     0.121 C 
HETATM   11  C   UNK N   1      20.333  13.425   5.999  0.00  0.00     0.026 C 
ENDBRANCH   7  10
ENDBRANCH   2   5
BRANCH   3  12
HETATM   12  C   UNK N   1      20.711  17.646   3.948  0.00  0.00    -0.029 A 
HETATM   13  C   UNK N   1      20.847  18.970   3.702  0.00  0.00     0.050 A 
HETATM   14  C   UNK N   1      20.838  19.445   2.414  0.00  0.00     0.139 A 
HETATM   15  C   UNK N   1      20.592  18.548   1.335  0.00  0.00     0.132 A 
HETATM   16  C   UNK N   1      20.497  17.176   1.597  0.00  0.00     0.102 A 
HETATM   17  C   UNK N   1      20.585  16.739   2.894  0.00  0.00     0.051 A 
BRANCH  14  18
HETATM   18  N   UNK N   1      21.171  20.803   2.244  0.00  0.00    -0.113 N 
HETATM   19  O   UNK N   1      22.245  21.270   2.852  0.00  0.00    -0.532 OA
HETATM   20  O   UNK N   1      20.720  21.410   1.324  0.00  0.00    -0.532 OA
ENDBRANCH  14  18
BRANCH  15  21
HETATM   21  O   UNK N   1      20.477  18.986   0.073  0.00  0.00    -0.356 OA
HETATM   22  H   UNK N   1      21.118  18.764  -0.574  0.00  0.00     0.218 HD
ENDBRANCH  15  21
BRANCH  16  23
HETATM   23  O   UNK N   1      20.314  16.278   0.615  0.00  0.00    -0.358 OA
HETATM   24  H   UNK N   1      20.847  16.298  -0.155  0.00  0.00     0.217 HD
ENDBRANCH  16  23
ENDBRANCH   3  12
TORSDOF 7
ENDMDL
MODEL 2
REMARK VINA RESULT:      -6.3     12.917     15.414
REMARK  7 active torsions:
REMARK  status: ('A' for Active; 'I' for Inactive)
REMARK    1  A    between atoms: O_2  and  C_20 
REMARK    2  A    between atoms: O_3  and  C_21 
REMARK    3  A    between atoms: N_6  and  C_9 
REMARK    4  A    between atoms: N_6  and  C_10 
REMARK       I    between atoms: N_6  and  C_11 
REMARK    5  A    between atoms: N_7  and  C_19 
REMARK    6  A    between atoms: C_11  and  C_15 
REMARK    7  A    between atoms: C_14  and  C_16 
ROOT
HETATM    1  N   UNK N   1      35.196  18.966   8.310  0.00  0.00    -0.191 NA
HETATM    2  C   UNK N   1      33.276  17.195   8.363  0.00  0.00     0.113 C 
HETATM    3  C   UNK N   1      33.505  16.011   8.909  0.00  0.00     0.040 C 
HETATM    4  C   UNK N   1      34.318  18.209   8.315  0.00  0.00     0.105 C 
ENDROOT
BRANCH   2   5
HETATM    5  C   UNK N   1      31.901  17.475   7.948  0.00  0.00     0.264 C 
HETATM    6  O   UNK N   1      31.111  17.891   8.793  0.00  0.00    -0.267 OA
HETATM    7  N   UNK N   1      31.482  17.275   6.671  0.00  0.00    -0.348 N 
BRANCH   7   8
HETATM    8  C   UNK N   1      30.116  17.571   6.336  0.00  0.00     0.121 C 
HETATM    9  C   UNK N   1      29.370  16.274   6.113  0.00  0.00     0.026 C 
ENDBRANCH   7   8
BRANCH   7  10
HETATM   10  C   UNK N   1      32.289  16.549   5.706  0.00  0.00     0.121 C 
HETATM   11  C   UNK N   1      32.859  17.465   4.639  0.00  0.00     0.026 C 
ENDBRANCH   7  10
ENDBRANCH   2   5
BRANCH   3  12
HETATM   12  C   UNK N   1      34.757  15.648   9.507  0.00  0.00    -0.029 A 
HETATM   13  C   UNK N   1      35.575  14.905   8.726  0.00  0.00     0.050 A 
HETATM   14  C   UNK N   1      36.679  14.288   9.260  0.00  0.00     0.139 A 
HETATM   15  C   UNK N   1      36.914  14.356  10.664  0.00  0.00     0.132 A 
HETATM   16  C   UNK N   1      36.087  15.164  11.454  0.00  0.00     0.102 A 
HETATM   17  C   UNK N   1      35.038  15.821  10.864  0.00  0.00     0.051 A 
BRANCH  14  18
HETATM   18  N   UNK N   1      37.570  13.694   8.344  0.00  0.00    -0.113 N 
HETATM   19  O   UNK N   1      38.858  13.951   8.461  0.00  0.00    -0.532 OA
HETATM   20  O   UNK N   1      37.228  12.736   7.726  0.00  0.00    -0.532 OA
ENDBRANCH  14  18
BRANCH  15  21
HETATM   21  O   UNK N   1      37.924  13.687  11.238  0.00  0.00    -0.356 OA
HETATM   22  H   UNK N   1      38.815  13.937  11.085  0.00  0.00     0.218 HD
ENDBRANCH  15  21
BRANCH  16  23
HETATM   23  O   UNK N   1      36.289  15.305  12.775  0.00  0.00    -0.358 OA
HETATM   24  H   UNK N   1      37.132  15.546  13.106  0.00  0.00     0.217 HD
ENDBRANCH  16  23
ENDBRANCH   3  12
TORSDOF 7
ENDMDL
MODEL 3
REMARK VINA RESULT:      -6.3      9.858     12.550
REMARK  7 active torsions:
REMARK  status: ('A' for Active; 'I' for Inactive)
REMARK    1  A    between atoms: O_2  and  C_20 
REMARK    2  A    between atoms: O_3  and  C_21 
REMARK    3  A    between atoms: N_6  and  C_9 
REMARK    4  A    between atoms: N_6  and  C_10 
REMARK       I    between atoms: N_6  and  C_11 
REMARK    5  A    between atoms: N_7  and  C_19 
REMARK    6  A    between atoms: C_11  and  C_15 
REMARK    7  A    between atoms: C_14  and  C_16 
ROOT
HETATM    1  N   UNK N   1      29.975  18.346   9.567  0.00  0.00    -0.191 NA
HETATM    2  C   UNK N   1      29.998  17.195   7.222  0.00  0.00     0.113 C 
HETATM    3  C   UNK N   1      31.141  16.732   6.741  0.00  0.00     0.040 C 
HETATM    4  C   UNK N   1      29.943  17.841   8.525  0.00  0.00     0.105 C 
ENDROOT
BRANCH   2   5
HETATM    5  C   UNK N   1      28.790  16.899   6.451  0.00  0.00     0.264 C 
HETATM    6  O   UNK N   1      28.527  15.723   6.209  0.00  0.00    -0.267 OA
HETATM    7  N   UNK N   1      27.973  17.884   5.992  0.00  0.00    -0.348 N 
BRANCH   7   8
HETATM    8  C   UNK N   1      26.803  17.517   5.240  0.00  0.00     0.121 C 
HETATM    9  C   UNK N   1      26.960  18.004   3.817  0.00  0.00     0.026 C 
ENDBRANCH   7   8
BRANCH   7  10
HETATM   10  C   UNK N   1      28.366  19.281   6.023  0.00  0.00     0.121 C 
HETATM   11  C   UNK N   1      27.454  20.108   6.910  0.00  0.00     0.026 C 
ENDBRANCH   7  10
ENDBRANCH   2   5
BRANCH   3  12
HETATM   12  C   UNK N   1      32.382  16.801   7.457  0.00  0.00    -0.029 A 
HETATM   13  C   UNK N   1      32.569  15.830   8.381  0.00  0.00     0.050 A 
HETATM   14  C   UNK N   1      33.588  15.925   9.297  0.00  0.00     0.139 A 
HETATM   15  C   UNK N   1      34.396  17.099   9.331  0.00  0.00     0.132 A 
HETATM   16  C   UNK N   1      34.222  18.075   8.343  0.00  0.00     0.102 A 
HETATM   17  C   UNK N   1      33.238  17.903   7.404  0.00  0.00     0.051 A 
BRANCH  14  18
HETATM   18  N   UNK N   1      33.822  14.788  10.094  0.00  0.00    -0.113 N 
HETATM   19  O   UNK N   1      34.244  13.683   9.509  0.00  0.00    -0.532 OA
HETATM   20  O   UNK N   1      33.977  14.913  11.268  0.00  0.00    -0.532 OA
ENDBRANCH  14  18
BRANCH  15  21
HETATM   21  O   UNK N   1      35.336  17.273  10.272  0.00  0.00    -0.356 OA
HETATM   22  H   UNK N   1      35.358  16.730  11.036  0.00  0.00     0.218 HD
ENDBRANCH  15  21
BRANCH  16  23
HETATM   23  O   UNK N   1      34.986  19.179   8.297  0.00  0.00    -0.358 OA
HETATM   24  H   UNK N   1      35.075  19.665   7.501  0.00  0.00     0.217 HD
ENDBRANCH  16  23
ENDBRANCH   3  12
TORSDOF 7
ENDMDL
MODEL 4
REMARK VINA RESULT:      -6.2     14.188     17.360
REMARK  7 active torsions:
REMARK  status: ('A' for Active; 'I' for Inactive)
REMARK    1  A    between atoms: O_2  and  C_20 
REMARK    2  A    between atoms: O_3  and  C_21 
REMARK    3  A    between atoms: N_6  and  C_9 
REMARK    4  A    between atoms: N_6  and  C_10 
REMARK       I    between atoms: N_6  and  C_11 
REMARK    5  A    between atoms: N_7  and  C_19 
REMARK    6  A    between atoms: C_11  and  C_15 
REMARK    7  A    between atoms: C_14  and  C_16 
ROOT
HETATM    1  N   UNK N   1      37.624  14.194   9.682  0.00  0.00    -0.191 NA
HETATM    2  C   UNK N   1      35.515  15.566  10.385  0.00  0.00     0.113 C 
HETATM    3  C   UNK N   1      34.943  15.318  11.552  0.00  0.00     0.040 C 
HETATM    4  C   UNK N   1      36.692  14.825   9.958  0.00  0.00     0.105 C 
ENDROOT
BRANCH   2   5
HETATM    5  C   UNK N   1      34.996  16.703   9.625  0.00  0.00     0.264 C 
HETATM    6  O   UNK N   1      35.413  17.827   9.899  0.00  0.00    -0.267 OA
HETATM    7  N   UNK N   1      34.067  16.548   8.644  0.00  0.00    -0.348 N 
BRANCH   7   8
HETATM    8  C   UNK N   1      33.603  17.712   7.940  0.00  0.00     0.121 C 
HETATM    9  C   UNK N   1      33.872  17.535   6.462  0.00  0.00     0.026 C 
ENDBRANCH   7   8
BRANCH   7  10
HETATM   10  C   UNK N   1      33.357  15.296   8.456  0.00  0.00     0.121 C 
HETATM   11  C   UNK N   1      32.010  15.296   9.155  0.00  0.00     0.026 C 
ENDBRANCH   7  10
ENDBRANCH   2   5
BRANCH   3  12
HETATM   12  C   UNK N   1      35.438  14.344  12.481  0.00  0.00    -0.029 A 
HETATM   13  C   UNK N   1      34.732  13.190  12.536  0.00  0.00     0.050 A 
HETATM   14  C   UNK N   1      34.947  12.288  13.549  0.00  0.00     0.139 A 
HETATM   15  C   UNK N   1      35.855  12.612  14.599  0.00  0.00     0.132 A 
HETATM   16  C   UNK N   1      36.611  13.787  14.508  0.00  0.00     0.102 A 
HETATM   17  C   UNK N   1      36.415  14.623  13.439  0.00  0.00     0.051 A 
BRANCH  14  18
HETATM   18  N   UNK N   1      34.306  11.040  13.424  0.00  0.00    -0.113 N 
HETATM   19  O   UNK N   1      33.590  10.595  14.439  0.00  0.00    -0.532 OA
HETATM   20  O   UNK N   1      34.123  10.577  12.343  0.00  0.00    -0.532 OA
ENDBRANCH  14  18
BRANCH  15  21
HETATM   21  O   UNK N   1      36.019  11.803  15.656  0.00  0.00    -0.356 OA
HETATM   22  H   UNK N   1      36.134  12.155  16.517  0.00  0.00     0.218 HD
ENDBRANCH  15  21
BRANCH  16  23
HETATM   23  O   UNK N   1      37.516  14.121  15.442  0.00  0.00    -0.358 OA
HETATM   24  H   UNK N   1      37.814  13.488  16.066  0.00  0.00     0.217 HD
ENDBRANCH  16  23
ENDBRANCH   3  12
TORSDOF 7
ENDMDL
MODEL 5
REMARK VINA RESULT:      -6.2      2.071      2.696
REMARK  7 active torsions:
REMARK  status: ('A' for Active; 'I' for Inactive)
REMARK    1  A    between atoms: O_2  and  C_20 
REMARK    2  A    between atoms: O_3  and  C_21 
REMARK    3  A    between atoms: N_6  and  C_9 
REMARK    4  A    between atoms: N_6  and  C_10 
REMARK       I    between atoms: N_6  and  C_11 
REMARK    5  A    between atoms: N_7  and  C_19 
REMARK    6  A    between atoms: C_11  and  C_15 
REMARK    7  A    between atoms: C_14  and  C_16 
ROOT
HETATM    1  N   UNK N   1      21.011  18.671   7.083  0.00  0.00    -0.191 NA
HETATM    2  C   UNK N   1      22.112  16.545   6.038  0.00  0.00     0.113 C 
HETATM    3  C   UNK N   1      22.416  16.543   4.750  0.00  0.00     0.040 C 
HETATM    4  C   UNK N   1      21.499  17.710   6.658  0.00  0.00     0.105 C 
ENDROOT
BRANCH   2   5
HETATM    5  C   UNK N   1      22.548  15.388   6.820  0.00  0.00     0.264 C 
HETATM    6  O   UNK N   1      23.706  15.000   6.690  0.00  0.00    -0.267 OA
HETATM    7  N   UNK N   1      21.707  14.736   7.667  0.00  0.00    -0.348 N 
BRANCH   7   8
HETATM    8  C   UNK N   1      22.205  13.606   8.402  0.00  0.00     0.121 C 
HETATM    9  C   UNK N   1      21.651  12.337   7.793  0.00  0.00     0.026 C 
ENDBRANCH   7   8
BRANCH   7  10
HETATM   10  C   UNK N   1      20.277  14.985   7.666  0.00  0.00     0.121 C 
HETATM   11  C   UNK N   1      19.778  15.438   9.026  0.00  0.00     0.026 C 
ENDBRANCH   7  10
ENDBRANCH   2   5
BRANCH   3  12
HETATM   12  C   UNK N   1      22.200  17.668   3.887  0.00  0.00    -0.029 A 
HETATM   13  C   UNK N   1      23.210  18.568   3.850  0.00  0.00     0.050 A 
HETATM   14  C   UNK N   1      23.028  19.798   3.267  0.00  0.00     0.139 A 
HETATM   15  C   UNK N   1      21.739  20.162   2.780  0.00  0.00     0.132 A 
HETATM   16  C   UNK N   1      20.715  19.208   2.783  0.00  0.00     0.102 A 
HETATM   17  C   UNK N   1      20.964  17.966   3.310  0.00  0.00     0.051 A 
BRANCH  14  18
HETATM   18  N   UNK N   1      24.180  20.593   3.108  0.00  0.00    -0.113 N 
HETATM   19  O   UNK N   1      25.090  20.582   4.063  0.00  0.00    -0.532 OA
HETATM   20  O   UNK N   1      24.488  20.974   2.023  0.00  0.00    -0.532 OA
ENDBRANCH  14  18
BRANCH  15  21
HETATM   21  O   UNK N   1      21.496  21.388   2.294  0.00  0.00    -0.356 OA
HETATM   22  H   UNK N   1      20.930  21.981   2.747  0.00  0.00     0.218 HD
ENDBRANCH  15  21
BRANCH  16  23
HETATM   23  O   UNK N   1      19.494  19.478   2.293  0.00  0.00    -0.358 OA
HETATM   24  H   UNK N   1      18.756  18.952   2.532  0.00  0.00     0.217 HD
ENDBRANCH  16  23
ENDBRANCH   3  12
TORSDOF 7
ENDMDL
MODEL 6
REMARK VINA RESULT:      -6.2     13.129     14.135
REMARK  7 active torsions:
REMARK  status: ('A' for Active; 'I' for Inactive)
REMARK    1  A    between atoms: O_2  and  C_20 
REMARK    2  A    between atoms: O_3  and  C_21 
REMARK    3  A    between atoms: N_6  and  C_9 
REMARK    4  A    between atoms: N_6  and  C_10 
REMARK       I    between atoms: N_6  and  C_11 
REMARK    5  A    between atoms: N_7  and  C_19 
REMARK    6  A    between atoms: C_11  and  C_15 
REMARK    7  A    between atoms: C_14  and  C_16 
ROOT
HETATM    1  N   UNK N   1      30.113  26.421  -4.350  0.00  0.00    -0.191 NA
HETATM    2  C   UNK N   1      29.393  24.169  -3.239  0.00  0.00     0.113 C 
HETATM    3  C   UNK N   1      28.111  23.845  -3.208  0.00  0.00     0.040 C 
HETATM    4  C   UNK N   1      29.835  25.413  -3.850  0.00  0.00     0.105 C 
ENDROOT
BRANCH   2   5
HETATM    5  C   UNK N   1      30.339  23.159  -2.763  0.00  0.00     0.264 C 
HETATM    6  O   UNK N   1      30.595  23.122  -1.561  0.00  0.00    -0.267 OA
HETATM    7  N   UNK N   1      30.942  22.284  -3.610  0.00  0.00    -0.348 N 
BRANCH   7   8
HETATM    8  C   UNK N   1      31.861  21.320  -3.070  0.00  0.00     0.121 C 
HETATM    9  C   UNK N   1      33.178  21.428  -3.806  0.00  0.00     0.026 C 
ENDBRANCH   7   8
BRANCH   7  10
HETATM   10  C   UNK N   1      30.878  22.447  -5.051  0.00  0.00     0.121 C 
HETATM   11  C   UNK N   1      29.874  21.503  -5.687  0.00  0.00     0.026 C 
ENDBRANCH   7  10
ENDBRANCH   2   5
BRANCH   3  12
HETATM   12  C   UNK N   1      27.078  24.658  -3.784  0.00  0.00    -0.029 A 
HETATM   13  C   UNK N   1      26.777  24.379  -5.073  0.00  0.00     0.050 A 
HETATM   14  C   UNK N   1      25.996  25.236  -5.809  0.00  0.00     0.139 A 
HETATM   15  C   UNK N   1      25.577  26.473  -5.237  0.00  0.00     0.132 A 
HETATM   16  C   UNK N   1      25.857  26.730  -3.890  0.00  0.00     0.102 A 
HETATM   17  C   UNK N   1      26.579  25.810  -3.173  0.00  0.00     0.051 A 
BRANCH  14  18
HETATM   18  N   UNK N   1      25.582  24.777  -7.075  0.00  0.00    -0.113 N 
HETATM   19  O   UNK N   1      25.839  25.525  -8.131  0.00  0.00    -0.532 OA
HETATM   20  O   UNK N   1      25.336  23.623  -7.232  0.00  0.00    -0.532 OA
ENDBRANCH  14  18
BRANCH  15  21
HETATM   21  O   UNK N   1      24.898  27.380  -5.954  0.00  0.00    -0.356 OA
HETATM   22  H   UNK N   1      24.313  27.982  -5.537  0.00  0.00     0.218 HD
ENDBRANCH  15  21
BRANCH  16  23
HETATM   23  O   UNK N   1      25.446  27.856  -3.284  0.00  0.00    -0.358 OA
HETATM   24  H   UNK N   1      25.119  28.576  -3.786  0.00  0.00     0.217 HD
ENDBRANCH  16  23
ENDBRANCH   3  12
TORSDOF 7
ENDMDL
MODEL 7
REMARK VINA RESULT:      -6.2     13.809     15.549
REMARK  7 active torsions:
REMARK  status: ('A' for Active; 'I' for Inactive)
REMARK    1  A    between atoms: O_2  and  C_20 
REMARK    2  A    between atoms: O_3  and  C_21 
REMARK    3  A    between atoms: N_6  and  C_9 
REMARK    4  A    between atoms: N_6  and  C_10 
REMARK       I    between atoms: N_6  and  C_11 
REMARK    5  A    between atoms: N_7  and  C_19 
REMARK    6  A    between atoms: C_11  and  C_15 
REMARK    7  A    between atoms: C_14  and  C_16 
ROOT
HETATM    1  N   UNK N   1      37.470  13.199  10.311  0.00  0.00    -0.191 NA
HETATM    2  C   UNK N   1      36.080  14.370  12.187  0.00  0.00     0.113 C 
HETATM    3  C   UNK N   1      35.038  15.113  11.851  0.00  0.00     0.040 C 
HETATM    4  C   UNK N   1      36.879  13.700  11.172  0.00  0.00     0.105 C 
ENDROOT
BRANCH   2   5
HETATM    5  C   UNK N   1      36.296  14.146  13.617  0.00  0.00     0.264 C 
HETATM    6  O   UNK N   1      36.746  15.071  14.290  0.00  0.00    -0.267 OA
HETATM    7  N   UNK N   1      36.026  12.951  14.205  0.00  0.00    -0.348 N 
BRANCH   7   8
HETATM    8  C   UNK N   1      36.264  12.804  15.616  0.00  0.00     0.121 C 
HETATM    9  C   UNK N   1      34.981  13.090  16.365  0.00  0.00     0.026 C 
ENDBRANCH   7   8
BRANCH   7  10
HETATM   10  C   UNK N   1      35.743  11.760  13.424  0.00  0.00     0.121 C 
HETATM   11  C   UNK N   1      34.303  11.308  13.577  0.00  0.00     0.026 C 
ENDBRANCH   7  10
ENDBRANCH   2   5
BRANCH   3  12
HETATM   12  C   UNK N   1      34.603  15.292  10.496  0.00  0.00    -0.029 A 
HETATM   13  C   UNK N   1      34.809  16.527   9.983  0.00  0.00     0.050 A 
HETATM   14  C   UNK N   1      34.219  16.900   8.800  0.00  0.00     0.139 A 
HETATM   15  C   UNK N   1      33.312  16.010   8.156  0.00  0.00     0.132 A 
HETATM   16  C   UNK N   1      33.141  14.719   8.671  0.00  0.00     0.102 A 
HETATM   17  C   UNK N   1      33.808  14.366   9.816  0.00  0.00     0.051 A 
BRANCH  14  18
HETATM   18  N   UNK N   1      34.636  18.128   8.252  0.00  0.00    -0.113 N 
HETATM   19  O   UNK N   1      35.418  18.908   8.973  0.00  0.00    -0.532 OA
HETATM   20  O   UNK N   1      34.583  18.296   7.074  0.00  0.00    -0.532 OA
ENDBRANCH  14  18
BRANCH  15  21
HETATM   21  O   UNK N   1      32.641  16.373   7.053  0.00  0.00    -0.356 OA
HETATM   22  H   UNK N   1      32.895  17.131   6.563  0.00  0.00     0.218 HD
ENDBRANCH  15  21
BRANCH  16  23
HETATM   23  O   UNK N   1      32.336  13.821   8.079  0.00  0.00    -0.358 OA
HETATM   24  H   UNK N   1      32.035  13.956   7.202  0.00  0.00     0.217 HD
ENDBRANCH  16  23
ENDBRANCH   3  12
TORSDOF 7
ENDMDL
MODEL 8
REMARK VINA RESULT:      -6.2     10.302     12.877
REMARK  7 active torsions:
REMARK  status: ('A' for Active; 'I' for Inactive)
REMARK    1  A    between atoms: O_2  and  C_20 
REMARK    2  A    between atoms: O_3  and  C_21 
REMARK    3  A    between atoms: N_6  and  C_9 
REMARK    4  A    between atoms: N_6  and  C_10 
REMARK       I    between atoms: N_6  and  C_11 
REMARK    5  A    between atoms: N_7  and  C_19 
REMARK    6  A    between atoms: C_11  and  C_15 
REMARK    7  A    between atoms: C_14  and  C_16 
ROOT
HETATM    1  N   UNK N   1      33.247  16.245   4.231  0.00  0.00    -0.191 NA
HETATM    2  C   UNK N   1      31.146  16.830   5.669  0.00  0.00     0.113 C 
HETATM    3  C   UNK N   1      31.293  17.059   6.964  0.00  0.00     0.040 C 
HETATM    4  C   UNK N   1      32.291  16.503   4.834  0.00  0.00     0.105 C 
ENDROOT
BRANCH   2   5
HETATM    5  C   UNK N   1      29.816  17.061   5.106  0.00  0.00     0.264 C 
HETATM    6  O   UNK N   1      29.471  18.219   4.882  0.00  0.00    -0.267 OA
HETATM    7  N   UNK N   1      28.961  16.038   4.841  0.00  0.00    -0.348 N 
BRANCH   7   8
HETATM    8  C   UNK N   1      27.669  16.341   4.289  0.00  0.00     0.121 C 
HETATM    9  C   UNK N   1      26.617  16.150   5.359  0.00  0.00     0.026 C 
ENDBRANCH   7   8
BRANCH   7  10
HETATM   10  C   UNK N   1      29.209  14.690   5.320  0.00  0.00     0.121 C 
HETATM   11  C   UNK N   1      29.605  13.751   4.195  0.00  0.00     0.026 C 
ENDBRANCH   7  10
ENDBRANCH   2   5
BRANCH   3  12
HETATM   12  C   UNK N   1      32.564  17.032   7.630  0.00  0.00    -0.029 A 
HETATM   13  C   UNK N   1      32.732  16.015   8.507  0.00  0.00     0.050 A 
HETATM   14  C   UNK N   1      33.790  16.018   9.384  0.00  0.00     0.139 A 
HETATM   15  C   UNK N   1      34.662  17.144   9.430  0.00  0.00     0.132 A 
HETATM   16  C   UNK N   1      34.504  18.167   8.488  0.00  0.00     0.102 A 
HETATM   17  C   UNK N   1      33.477  18.087   7.584  0.00  0.00     0.051 A 
BRANCH  14  18
HETATM   18  N   UNK N   1      33.991  14.839  10.127  0.00  0.00    -0.113 N 
HETATM   19  O   UNK N   1      34.506  13.789   9.516  0.00  0.00    -0.532 OA
HETATM   20  O   UNK N   1      34.031  14.891  11.316  0.00  0.00    -0.532 OA
ENDBRANCH  14  18
BRANCH  15  21
HETATM   21  O   UNK N   1      35.646  17.229  10.337  0.00  0.00    -0.356 OA
HETATM   22  H   UNK N   1      35.664  16.660  11.082  0.00  0.00     0.218 HD
ENDBRANCH  15  21
BRANCH  16  23
HETATM   23  O   UNK N   1      35.326  19.229   8.453  0.00  0.00    -0.358 OA
HETATM   24  H   UNK N   1      36.246  19.117   8.317  0.00  0.00     0.217 HD
ENDBRANCH  16  23
ENDBRANCH   3  12
TORSDOF 7
ENDMDL
MODEL 9
REMARK VINA RESULT:      -6.1      9.421     11.722
REMARK  7 active torsions:
REMARK  status: ('A' for Active; 'I' for Inactive)
REMARK    1  A    between atoms: O_2  and  C_20 
REMARK    2  A    between atoms: O_3  and  C_21 
REMARK    3  A    between atoms: N_6  and  C_9 
REMARK    4  A    between atoms: N_6  and  C_10 
REMARK       I    between atoms: N_6  and  C_11 
REMARK    5  A    between atoms: N_7  and  C_19 
REMARK    6  A    between atoms: C_11  and  C_15 
REMARK    7  A    between atoms: C_14  and  C_16 
ROOT
HETATM    1  N   UNK N   1      29.038  17.183  10.196  0.00  0.00    -0.191 NA
HETATM    2  C   UNK N   1      29.332  17.935   7.711  0.00  0.00     0.113 C 
HETATM    3  C   UNK N   1      30.455  17.640   7.076  0.00  0.00     0.040 C 
HETATM    4  C   UNK N   1      29.129  17.533   9.095  0.00  0.00     0.105 C 
ENDROOT
BRANCH   2   5
HETATM    5  C   UNK N   1      28.268  18.550   6.917  0.00  0.00     0.264 C 
HETATM    6  O   UNK N   1      27.997  19.731   7.122  0.00  0.00    -0.267 OA
HETATM    7  N   UNK N   1      27.574  17.849   5.981  0.00  0.00    -0.348 N 
BRANCH   7   8
HETATM    8  C   UNK N   1      26.541  18.520   5.240  0.00  0.00     0.121 C 
HETATM    9  C   UNK N   1      27.136  19.095   3.973  0.00  0.00     0.026 C 
ENDBRANCH   7   8
BRANCH   7  10
HETATM   10  C   UNK N   1      27.672  16.404   5.880  0.00  0.00     0.121 C 
HETATM   11  C   UNK N   1      26.569  15.705   6.653  0.00  0.00     0.026 C 
ENDBRANCH   7  10
ENDBRANCH   2   5
BRANCH   3  12
HETATM   12  C   UNK N   1      31.525  16.894   7.673  0.00  0.00    -0.029 A 
HETATM   13  C   UNK N   1      32.620  17.620   8.001  0.00  0.00     0.050 A 
HETATM   14  C   UNK N   1      33.794  16.996   8.342  0.00  0.00     0.139 A 
HETATM   15  C   UNK N   1      33.886  15.577   8.263  0.00  0.00     0.132 A 
HETATM   16  C   UNK N   1      32.736  14.835   7.967  0.00  0.00     0.102 A 
HETATM   17  C   UNK N   1      31.566  15.499   7.703  0.00  0.00     0.051 A 
BRANCH  14  18
HETATM   18  N   UNK N   1      34.819  17.822   8.846  0.00  0.00    -0.113 N 
HETATM   19  O   UNK N   1      34.952  19.036   8.348  0.00  0.00    -0.532 OA
HETATM   20  O   UNK N   1      35.308  17.576   9.903  0.00  0.00    -0.532 OA
ENDBRANCH  14  18
BRANCH  15  21
HETATM   21  O   UNK N   1      35.042  14.937   8.493  0.00  0.00    -0.356 OA
HETATM   22  H   UNK N   1      35.189  14.074   8.157  0.00  0.00     0.218 HD
ENDBRANCH  15  21
BRANCH  16  23
HETATM   23  O   UNK N   1      32.751  13.492   7.925  0.00  0.00    -0.358 OA
HETATM   24  H   UNK N   1      32.849  12.992   8.711  0.00  0.00     0.217 HD
ENDBRANCH  16  23
ENDBRANCH   3  12
TORSDOF 7
ENDMDL
