MODEL 1
REMARK VINA RESULT:      -5.8      0.000      0.000
REMARK  6 active torsions:
REMARK  status: ('A' for Active; 'I' for Inactive)
REMARK    1  A    between atoms: O_2  and  C_16 
REMARK    2  A    between atoms: C_13  and  N_5 
REMARK    3  A    between atoms: N_6  and  N_9 
REMARK    4  A    between atoms: C_12  and  N_6 
REMARK    5  A    between atoms: N_9  and  N_10 
REMARK    6  A    between atoms: C_15  and  C_16 
ROOT
HETATM    1  O   UNK N   1      34.561  13.614  11.897  0.00  0.00    -0.357 OA
HETATM    2  C   UNK N   1      35.772  15.471  10.914  0.00  0.00     0.149 C 
HETATM    3  C   UNK N   1      35.877  13.655  12.394  0.00  0.00     0.234 C 
HETATM    4  C   UNK N   1      36.358  15.070  12.248  0.00  0.00     0.084 C 
HETATM    5  C   UNK N   1      34.767  14.331  10.695  0.00  0.00     0.172 C 
ENDROOT
BRANCH   3   6
HETATM    6  N   UNK N   1      36.164  12.958  13.677  0.00  0.00    -0.282 N 
HETATM    7  C   UNK N   1      35.554  13.447  14.794  0.00  0.00     0.110 A 
HETATM    8  C   UNK N   1      35.595  12.753  16.008  0.00  0.00     0.022 A 
HETATM    9  C   UNK N   1      36.264  11.530  16.065  0.00  0.00     0.256 A 
HETATM   10  C   UNK N   1      34.891  13.304  17.202  0.00  0.00     0.056 C 
HETATM   11  O   UNK N   1      36.279  10.872  17.093  0.00  0.00    -0.267 OA
HETATM   12  N   UNK N   1      36.899  11.062  14.952  0.00  0.00    -0.275 N 
HETATM   13  C   UNK N   1      36.864  11.751  13.767  0.00  0.00     0.331 A 
HETATM   14  H   UNK N   1      37.394  10.212  15.001  0.00  0.00     0.173 HD
HETATM   15  O   UNK N   1      37.414  11.264  12.796  0.00  0.00    -0.246 OA
ENDBRANCH   3   6
BRANCH   5  16
HETATM   16  C   UNK N   1      33.620  14.459   9.691  0.00  0.00     0.198 C 
BRANCH  16  17
HETATM   17  O   UNK N   1      32.855  15.596   9.977  0.00  0.00    -0.398 OA
HETATM   18  H   UNK N   1      33.228  16.489   9.900  0.00  0.00     0.209 HD
ENDBRANCH  16  17
ENDBRANCH   5  16
BRANCH   2  19
HETATM   19  N   UNK N   1      35.207  16.799  11.019  0.00  0.00    -0.245 N 
ATOM     20  HN  UNK N   1      34.941  17.178  11.928  1.00  0.00     0.197 HD
BRANCH  19  21
HETATM   21  N   UNK N   1      35.051  17.462  10.003  0.00  0.00    -0.248 NA
BRANCH  21  22
HETATM   22  N   UNK N   1      34.859  18.089   8.977  0.00  0.00    -0.261 N 
HETATM   23  H   UNK N   1      35.079  19.048   8.937  0.00  0.00     0.193 HD
ATOM     24  HN  UNK N   1      34.471  17.621   8.158  1.00  0.00     0.193 HD
ENDBRANCH  21  22
ENDBRANCH  19  21
ENDBRANCH   2  19
TORSDOF 6
ENDMDL
MODEL 2
REMARK VINA RESULT:      -5.7     22.027     24.122
REMARK  6 active torsions:
REMARK  status: ('A' for Active; 'I' for Inactive)
REMARK    1  A    between atoms: O_2  and  C_16 
REMARK    2  A    between atoms: C_13  and  N_5 
REMARK    3  A    between atoms: N_6  and  N_9 
REMARK    4  A    between atoms: C_12  and  N_6 
REMARK    5  A    between atoms: N_9  and  N_10 
REMARK    6  A    between atoms: C_15  and  C_16 
ROOT
HETATM    1  O   UNK N   1      25.304  23.541  -6.077  0.00  0.00    -0.357 OA
HETATM    2  C   UNK N   1      26.823  22.710  -7.776  0.00  0.00     0.149 C 
HETATM    3  C   UNK N   1      26.607  24.016  -5.840  0.00  0.00     0.234 C 
HETATM    4  C   UNK N   1      27.331  23.991  -7.157  0.00  0.00     0.084 C 
HETATM    5  C   UNK N   1      25.632  22.406  -6.855  0.00  0.00     0.172 C 
ENDROOT
BRANCH   3   6
HETATM    6  N   UNK N   1      26.768  25.225  -4.988  0.00  0.00    -0.282 N 
HETATM    7  C   UNK N   1      26.960  26.412  -5.632  0.00  0.00     0.110 A 
HETATM    8  C   UNK N   1      26.924  27.628  -4.941  0.00  0.00     0.022 A 
HETATM    9  C   UNK N   1      26.671  27.619  -3.570  0.00  0.00     0.256 A 
HETATM   10  C   UNK N   1      27.110  28.908  -5.683  0.00  0.00     0.056 C 
HETATM   11  O   UNK N   1      26.582  28.662  -2.942  0.00  0.00    -0.267 OA
HETATM   12  N   UNK N   1      26.511  26.427  -2.926  0.00  0.00    -0.275 N 
HETATM   13  C   UNK N   1      26.557  25.237  -3.606  0.00  0.00     0.331 A 
HETATM   14  H   UNK N   1      26.359  26.419  -1.953  0.00  0.00     0.173 HD
HETATM   15  O   UNK N   1      26.365  24.206  -2.987  0.00  0.00    -0.246 OA
ENDBRANCH   3   6
BRANCH   5  16
HETATM   16  C   UNK N   1      24.525  21.438  -7.276  0.00  0.00     0.198 C 
BRANCH  16  17
HETATM   17  O   UNK N   1      23.659  22.061  -8.183  0.00  0.00    -0.398 OA
HETATM   18  H   UNK N   1      22.971  21.561  -8.649  0.00  0.00     0.209 HD
ENDBRANCH  16  17
ENDBRANCH   5  16
BRANCH   2  19
HETATM   19  N   UNK N   1      26.502  22.945  -9.167  0.00  0.00    -0.245 N 
ATOM     20  HN  UNK N   1      26.952  22.397  -9.901  1.00  0.00     0.197 HD
BRANCH  19  21
HETATM   21  N   UNK N   1      25.686  23.810  -9.452  0.00  0.00    -0.248 NA
BRANCH  21  22
HETATM   22  N   UNK N   1      24.911  24.704  -9.741  0.00  0.00    -0.261 N 
HETATM   23  H   UNK N   1      25.255  25.597  -9.977  0.00  0.00     0.193 HD
ATOM     24  HN  UNK N   1      23.907  24.529  -9.738  1.00  0.00     0.193 HD
ENDBRANCH  21  22
ENDBRANCH  19  21
ENDBRANCH   2  19
TORSDOF 6
ENDMDL
MODEL 3
REMARK VINA RESULT:      -5.6     16.225     17.113
REMARK  6 active torsions:
REMARK  status: ('A' for Active; 'I' for Inactive)
REMARK    1  A    between atoms: O_2  and  C_16 
REMARK    2  A    between atoms: C_13  and  N_5 
REMARK    3  A    between atoms: N_6  and  N_9 
REMARK    4  A    between atoms: C_12  and  N_6 
REMARK    5  A    between atoms: N_9  and  N_10 
REMARK    6  A    between atoms: C_15  and  C_16 
ROOT
HETATM    1  O   UNK N   1      22.804  18.322   4.501  0.00  0.00    -0.357 OA
HETATM    2  C   UNK N   1      21.596  19.876   3.083  0.00  0.00     0.149 C 
HETATM    3  C   UNK N   1      21.492  18.499   4.979  0.00  0.00     0.234 C 
HETATM    4  C   UNK N   1      20.656  18.945   3.813  0.00  0.00     0.084 C 
HETATM    5  C   UNK N   1      22.925  19.527   3.768  0.00  0.00     0.172 C 
ENDROOT
BRANCH   3   6
HETATM    6  N   UNK N   1      20.926  17.454   5.874  0.00  0.00    -0.282 N 
HETATM    7  C   UNK N   1      20.856  16.186   5.376  0.00  0.00     0.110 A 
HETATM    8  C   UNK N   1      20.530  15.100   6.194  0.00  0.00     0.022 A 
HETATM    9  C   UNK N   1      20.286  15.324   7.549  0.00  0.00     0.256 A 
HETATM   10  C   UNK N   1      20.492  13.725   5.621  0.00  0.00     0.056 C 
HETATM   11  O   UNK N   1      20.047  14.396   8.304  0.00  0.00    -0.267 OA
HETATM   12  N   UNK N   1      20.326  16.598   8.035  0.00  0.00    -0.275 N 
HETATM   13  C   UNK N   1      20.637  17.661   7.226  0.00  0.00     0.331 A 
HETATM   14  H   UNK N   1      20.127  16.759   8.986  0.00  0.00     0.173 HD
HETATM   15  O   UNK N   1      20.699  18.771   7.723  0.00  0.00    -0.246 OA
ENDBRANCH   3   6
BRANCH   5  16
HETATM   16  C   UNK N   1      24.269  19.887   3.134  0.00  0.00     0.198 C 
BRANCH  16  17
HETATM   17  O   UNK N   1      24.098  20.905   2.188  0.00  0.00    -0.398 OA
HETATM   18  H   UNK N   1      24.416  20.807   1.277  0.00  0.00     0.209 HD
ENDBRANCH  16  17
ENDBRANCH   5  16
BRANCH   2  19
HETATM   19  N   UNK N   1      21.528  19.608   1.663  0.00  0.00    -0.245 N 
ATOM     20  HN  UNK N   1      21.875  18.726   1.286  1.00  0.00     0.197 HD
BRANCH  19  21
HETATM   21  N   UNK N   1      21.051  20.453   0.919  0.00  0.00    -0.248 NA
BRANCH  21  22
HETATM   22  N   UNK N   1      20.559  21.321   0.219  0.00  0.00    -0.261 N 
HETATM   23  H   UNK N   1      20.204  22.142   0.630  0.00  0.00     0.193 HD
ATOM     24  HN  UNK N   1      20.514  21.195  -0.792  1.00  0.00     0.193 HD
ENDBRANCH  21  22
ENDBRANCH  19  21
ENDBRANCH   2  19
TORSDOF 6
ENDMDL
MODEL 4
REMARK VINA RESULT:      -5.6     12.545     16.126
REMARK  6 active torsions:
REMARK  status: ('A' for Active; 'I' for Inactive)
REMARK    1  A    between atoms: O_2  and  C_16 
REMARK    2  A    between atoms: C_13  and  N_5 
REMARK    3  A    between atoms: N_6  and  N_9 
REMARK    4  A    between atoms: C_12  and  N_6 
REMARK    5  A    between atoms: N_9  and  N_10 
REMARK    6  A    between atoms: C_15  and  C_16 
ROOT
HETATM    1  O   UNK N   1      25.009  19.640   5.314  0.00  0.00    -0.357 OA
HETATM    2  C   UNK N   1      26.908  20.211   3.917  0.00  0.00     0.149 C 
HETATM    3  C   UNK N   1      24.583  19.917   4.002  0.00  0.00     0.234 C 
HETATM    4  C   UNK N   1      25.758  19.675   3.097  0.00  0.00     0.084 C 
HETATM    5  C   UNK N   1      26.235  20.346   5.291  0.00  0.00     0.172 C 
ENDROOT
BRANCH   3   6
HETATM    6  N   UNK N   1      23.260  19.392   3.569  0.00  0.00    -0.282 N 
HETATM    7  C   UNK N   1      22.967  18.104   3.908  0.00  0.00     0.110 A 
HETATM    8  C   UNK N   1      21.683  17.579   3.727  0.00  0.00     0.022 A 
HETATM    9  C   UNK N   1      20.684  18.399   3.204  0.00  0.00     0.256 A 
HETATM   10  C   UNK N   1      21.392  16.174   4.135  0.00  0.00     0.056 C 
HETATM   11  O   UNK N   1      19.541  17.992   3.078  0.00  0.00    -0.267 OA
HETATM   12  N   UNK N   1      20.991  19.677   2.838  0.00  0.00    -0.275 N 
HETATM   13  C   UNK N   1      22.254  20.184   3.008  0.00  0.00     0.331 A 
HETATM   14  H   UNK N   1      20.292  20.248   2.443  0.00  0.00     0.173 HD
HETATM   15  O   UNK N   1      22.460  21.345   2.702  0.00  0.00    -0.246 OA
ENDBRANCH   3   6
BRANCH   5  16
HETATM   16  C   UNK N   1      27.059  20.464   6.574  0.00  0.00     0.198 C 
BRANCH  16  17
HETATM   17  O   UNK N   1      27.451  19.194   7.014  0.00  0.00    -0.398 OA
HETATM   18  H   UNK N   1      26.834  18.446   7.012  0.00  0.00     0.209 HD
ENDBRANCH  16  17
ENDBRANCH   5  16
BRANCH   2  19
HETATM   19  N   UNK N   1      28.019  19.286   3.846  0.00  0.00    -0.245 N 
ATOM     20  HN  UNK N   1      28.923  19.590   3.484  1.00  0.00     0.197 HD
BRANCH  19  21
HETATM   21  N   UNK N   1      27.860  18.134   4.223  0.00  0.00    -0.248 NA
BRANCH  21  22
HETATM   22  N   UNK N   1      27.698  17.003   4.648  0.00  0.00    -0.261 N 
HETATM   23  H   UNK N   1      27.769  16.825   5.613  0.00  0.00     0.193 HD
ATOM     24  HN  UNK N   1      27.489  16.242   4.002  1.00  0.00     0.193 HD
ENDBRANCH  21  22
ENDBRANCH  19  21
ENDBRANCH   2  19
TORSDOF 6
ENDMDL
MODEL 5
REMARK VINA RESULT:      -5.6     18.616     21.206
REMARK  6 active torsions:
REMARK  status: ('A' for Active; 'I' for Inactive)
REMARK    1  A    between atoms: O_2  and  C_16 
REMARK    2  A    between atoms: C_13  and  N_5 
REMARK    3  A    between atoms: N_6  and  N_9 
REMARK    4  A    between atoms: C_12  and  N_6 
REMARK    5  A    between atoms: N_9  and  N_10 
REMARK    6  A    between atoms: C_15  and  C_16 
ROOT
HETATM    1  O   UNK N   1      28.906  24.966  -4.882  0.00  0.00    -0.357 OA
HETATM    2  C   UNK N   1      26.879  25.403  -3.623  0.00  0.00     0.149 C 
HETATM    3  C   UNK N   1      28.821  24.098  -3.777  0.00  0.00     0.234 C 
HETATM    4  C   UNK N   1      27.367  23.989  -3.414  0.00  0.00     0.084 C 
HETATM    5  C   UNK N   1      28.061  25.996  -4.405  0.00  0.00     0.172 C 
ENDROOT
BRANCH   3   6
HETATM    6  N   UNK N   1      29.619  22.843  -3.810  0.00  0.00    -0.282 N 
HETATM    7  C   UNK N   1      29.626  22.146  -4.983  0.00  0.00     0.110 A 
HETATM    8  C   UNK N   1      30.496  21.070  -5.184  0.00  0.00     0.022 A 
HETATM    9  C   UNK N   1      31.381  20.716  -4.165  0.00  0.00     0.256 A 
HETATM   10  C   UNK N   1      30.496  20.350  -6.489  0.00  0.00     0.056 C 
HETATM   11  O   UNK N   1      32.188  19.814  -4.322  0.00  0.00    -0.267 OA
HETATM   12  N   UNK N   1      31.347  21.395  -2.983  0.00  0.00    -0.275 N 
HETATM   13  C   UNK N   1      30.486  22.445  -2.787  0.00  0.00     0.331 A 
HETATM   14  H   UNK N   1      31.953  21.128  -2.254  0.00  0.00     0.173 HD
HETATM   15  O   UNK N   1      30.529  23.042  -1.727  0.00  0.00    -0.246 OA
ENDBRANCH   3   6
BRANCH   5  16
HETATM   16  C   UNK N   1      27.915  27.284  -5.217  0.00  0.00     0.198 C 
BRANCH  16  17
HETATM   17  O   UNK N   1      27.104  27.059  -6.336  0.00  0.00    -0.398 OA
HETATM   18  H   UNK N   1      26.155  27.257  -6.320  0.00  0.00     0.209 HD
ENDBRANCH  16  17
ENDBRANCH   5  16
BRANCH   2  19
HETATM   19  N   UNK N   1      25.611  25.374  -4.320  0.00  0.00    -0.245 N 
ATOM     20  HN  UNK N   1      24.790  25.828  -3.919  1.00  0.00     0.197 HD
BRANCH  19  21
HETATM   21  N   UNK N   1      25.536  24.797  -5.395  0.00  0.00    -0.248 NA
BRANCH  21  22
HETATM   22  N   UNK N   1      25.504  24.244  -6.480  0.00  0.00    -0.261 N 
HETATM   23  H   UNK N   1      25.829  23.319  -6.571  0.00  0.00     0.193 HD
ATOM     24  HN  UNK N   1      25.143  24.740  -7.295  1.00  0.00     0.193 HD
ENDBRANCH  21  22
ENDBRANCH  19  21
ENDBRANCH   2  19
TORSDOF 6
ENDMDL
MODEL 6
REMARK VINA RESULT:      -5.6      2.200      6.828
REMARK  6 active torsions:
REMARK  status: ('A' for Active; 'I' for Inactive)
REMARK    1  A    between atoms: O_2  and  C_16 
REMARK    2  A    between atoms: C_13  and  N_5 
REMARK    3  A    between atoms: N_6  and  N_9 
REMARK    4  A    between atoms: C_12  and  N_6 
REMARK    5  A    between atoms: N_9  and  N_10 
REMARK    6  A    between atoms: C_15  and  C_16 
ROOT
HETATM    1  O   UNK N   1      34.691  14.458  12.253  0.00  0.00    -0.357 OA
HETATM    2  C   UNK N   1      36.451  12.807  12.005  0.00  0.00     0.149 C 
HETATM    3  C   UNK N   1      35.426  14.702  11.078  0.00  0.00     0.234 C 
HETATM    4  C   UNK N   1      36.053  13.398  10.673  0.00  0.00     0.084 C 
HETATM    5  C   UNK N   1      35.667  13.717  12.961  0.00  0.00     0.172 C 
ENDROOT
BRANCH   3   6
HETATM    6  N   UNK N   1      34.791  15.523  10.012  0.00  0.00    -0.282 N 
HETATM    7  C   UNK N   1      33.822  14.920   9.265  0.00  0.00     0.110 A 
HETATM    8  C   UNK N   1      33.027  15.653   8.378  0.00  0.00     0.022 A 
HETATM    9  C   UNK N   1      33.226  17.029   8.271  0.00  0.00     0.256 A 
HETATM   10  C   UNK N   1      31.958  14.965   7.599  0.00  0.00     0.056 C 
HETATM   11  O   UNK N   1      32.519  17.709   7.545  0.00  0.00    -0.267 OA
HETATM   12  N   UNK N   1      34.218  17.621   8.997  0.00  0.00    -0.275 N 
HETATM   13  C   UNK N   1      35.000  16.896   9.858  0.00  0.00     0.331 A 
HETATM   14  H   UNK N   1      34.376  18.588   8.901  0.00  0.00     0.173 HD
HETATM   15  O   UNK N   1      35.843  17.484  10.512  0.00  0.00    -0.246 OA
ENDBRANCH   3   6
BRANCH   5  16
HETATM   16  C   UNK N   1      35.393  13.306  14.409  0.00  0.00     0.198 C 
BRANCH  16  17
HETATM   17  O   UNK N   1      34.278  12.461  14.467  0.00  0.00    -0.398 OA
HETATM   18  H   UNK N   1      33.421  12.777  14.793  0.00  0.00     0.209 HD
ENDBRANCH  16  17
ENDBRANCH   5  16
BRANCH   2  19
HETATM   19  N   UNK N   1      36.095  11.405  12.032  0.00  0.00    -0.245 N 
ATOM     20  HN  UNK N   1      36.813  10.691  12.152  1.00  0.00     0.197 HD
BRANCH  19  21
HETATM   21  N   UNK N   1      34.921  11.086  11.907  0.00  0.00    -0.248 NA
BRANCH  21  22
HETATM   22  N   UNK N   1      33.760  10.728  11.813  0.00  0.00    -0.261 N 
HETATM   23  H   UNK N   1      33.289  10.808  10.952  0.00  0.00     0.193 HD
ATOM     24  HN  UNK N   1      33.277  10.347  12.626  1.00  0.00     0.193 HD
ENDBRANCH  21  22
ENDBRANCH  19  21
ENDBRANCH   2  19
TORSDOF 6
ENDMDL
MODEL 7
REMARK VINA RESULT:      -5.5      4.854      7.654
REMARK  6 active torsions:
REMARK  status: ('A' for Active; 'I' for Inactive)
REMARK    1  A    between atoms: O_2  and  C_16 
REMARK    2  A    between atoms: C_13  and  N_5 
REMARK    3  A    between atoms: N_6  and  N_9 
REMARK    4  A    between atoms: C_12  and  N_6 
REMARK    5  A    between atoms: N_9  and  N_10 
REMARK    6  A    between atoms: C_15  and  C_16 
ROOT
HETATM    1  O   UNK N   1      33.649  16.512   5.667  0.00  0.00    -0.357 OA
HETATM    2  C   UNK N   1      31.408  17.320   5.210  0.00  0.00     0.149 C 
HETATM    3  C   UNK N   1      33.164  17.251   6.763  0.00  0.00     0.234 C 
HETATM    4  C   UNK N   1      31.664  17.205   6.694  0.00  0.00     0.084 C 
HETATM    5  C   UNK N   1      32.818  17.059   4.661  0.00  0.00     0.172 C 
ENDROOT
BRANCH   3   6
HETATM    6  N   UNK N   1      33.801  17.035   8.090  0.00  0.00    -0.282 N 
HETATM    7  C   UNK N   1      33.706  15.784   8.624  0.00  0.00     0.110 A 
HETATM    8  C   UNK N   1      34.433  15.422   9.763  0.00  0.00     0.022 A 
HETATM    9  C   UNK N   1      35.281  16.361  10.350  0.00  0.00     0.256 A 
HETATM   10  C   UNK N   1      34.326  14.036  10.301  0.00  0.00     0.056 C 
HETATM   11  O   UNK N   1      35.968  16.067  11.314  0.00  0.00    -0.267 OA
HETATM   12  N   UNK N   1      35.347  17.620   9.830  0.00  0.00    -0.275 N 
HETATM   13  C   UNK N   1      34.626  17.973   8.719  0.00  0.00     0.331 A 
HETATM   14  H   UNK N   1      35.926  18.291  10.261  0.00  0.00     0.173 HD
HETATM   15  O   UNK N   1      34.756  19.099   8.274  0.00  0.00    -0.246 OA
ENDBRANCH   3   6
BRANCH   5  16
HETATM   16  C   UNK N   1      33.045  16.661   3.202  0.00  0.00     0.198 C 
BRANCH  16  17
HETATM   17  O   UNK N   1      32.028  17.184   2.395  0.00  0.00    -0.398 OA
HETATM   18  H   UNK N   1      32.216  17.837   1.703  0.00  0.00     0.209 HD
ENDBRANCH  16  17
ENDBRANCH   5  16
BRANCH   2  19
HETATM   19  N   UNK N   1      30.393  16.364   4.824  0.00  0.00    -0.245 N 
ATOM     20  HN  UNK N   1      30.335  15.456   5.285  1.00  0.00     0.197 HD
BRANCH  19  21
HETATM   21  N   UNK N   1      29.606  16.657   3.935  0.00  0.00    -0.248 NA
BRANCH  21  22
HETATM   22  N   UNK N   1      28.861  16.962   3.021  0.00  0.00    -0.261 N 
HETATM   23  H   UNK N   1      28.447  17.855   2.999  0.00  0.00     0.193 HD
ATOM     24  HN  UNK N   1      28.666  16.292   2.277  1.00  0.00     0.193 HD
ENDBRANCH  21  22
ENDBRANCH  19  21
ENDBRANCH   2  19
TORSDOF 6
ENDMDL
MODEL 8
REMARK VINA RESULT:      -5.4      1.897      2.199
REMARK  6 active torsions:
REMARK  status: ('A' for Active; 'I' for Inactive)
REMARK    1  A    between atoms: O_2  and  C_16 
REMARK    2  A    between atoms: C_13  and  N_5 
REMARK    3  A    between atoms: N_6  and  N_9 
REMARK    4  A    between atoms: C_12  and  N_6 
REMARK    5  A    between atoms: N_9  and  N_10 
REMARK    6  A    between atoms: C_15  and  C_16 
ROOT
HETATM    1  O   UNK N   1      34.443  13.694  12.179  0.00  0.00    -0.357 OA
HETATM    2  C   UNK N   1      36.300  13.916  10.634  0.00  0.00     0.149 C 
HETATM    3  C   UNK N   1      35.654  13.373  12.822  0.00  0.00     0.234 C 
HETATM    4  C   UNK N   1      36.750  14.070  12.068  0.00  0.00     0.084 C 
HETATM    5  C   UNK N   1      34.847  13.463  10.843  0.00  0.00     0.172 C 
ENDROOT
BRANCH   3   6
HETATM    6  N   UNK N   1      35.695  13.431  14.308  0.00  0.00    -0.282 N 
HETATM    7  C   UNK N   1      36.549  14.335  14.867  0.00  0.00     0.110 A 
HETATM    8  C   UNK N   1      36.522  14.610  16.238  0.00  0.00     0.022 A 
HETATM    9  C   UNK N   1      35.590  13.953  17.041  0.00  0.00     0.256 A 
HETATM   10  C   UNK N   1      37.451  15.626  16.809  0.00  0.00     0.056 C 
HETATM   11  O   UNK N   1      35.503  14.202  18.232  0.00  0.00    -0.267 OA
HETATM   12  N   UNK N   1      34.760  13.026  16.481  0.00  0.00    -0.275 N 
HETATM   13  C   UNK N   1      34.796  12.753  15.138  0.00  0.00     0.331 A 
HETATM   14  H   UNK N   1      34.120  12.542  17.053  0.00  0.00     0.173 HD
HETATM   15  O   UNK N   1      34.003  11.947  14.687  0.00  0.00    -0.246 OA
ENDBRANCH   3   6
BRANCH   5  16
HETATM   16  C   UNK N   1      33.813  13.555   9.720  0.00  0.00     0.198 C 
BRANCH  16  17
HETATM   17  O   UNK N   1      33.367  14.875   9.582  0.00  0.00    -0.398 OA
HETATM   18  H   UNK N   1      33.686  15.580  10.166  0.00  0.00     0.209 HD
ENDBRANCH  16  17
ENDBRANCH   5  16
BRANCH   2  19
HETATM   19  N   UNK N   1      36.476  15.173   9.939  0.00  0.00    -0.245 N 
ATOM     20  HN  UNK N   1      37.119  15.242   9.150  1.00  0.00     0.197 HD
BRANCH  19  21
HETATM   21  N   UNK N   1      35.845  16.152  10.310  0.00  0.00    -0.248 NA
BRANCH  21  22
HETATM   22  N   UNK N   1      35.240  17.125  10.724  0.00  0.00    -0.261 N 
HETATM   23  H   UNK N   1      34.862  17.777  10.091  0.00  0.00     0.193 HD
ATOM     24  HN  UNK N   1      35.126  17.265  11.728  1.00  0.00     0.193 HD
ENDBRANCH  21  22
ENDBRANCH  19  21
ENDBRANCH   2  19
TORSDOF 6
ENDMDL
MODEL 9
REMARK VINA RESULT:      -5.4      4.663      8.730
REMARK  6 active torsions:
REMARK  status: ('A' for Active; 'I' for Inactive)
REMARK    1  A    between atoms: O_2  and  C_16 
REMARK    2  A    between atoms: C_13  and  N_5 
REMARK    3  A    between atoms: N_6  and  N_9 
REMARK    4  A    between atoms: C_12  and  N_6 
REMARK    5  A    between atoms: N_9  and  N_10 
REMARK    6  A    between atoms: C_15  and  C_16 
ROOT
HETATM    1  O   UNK N   1      33.542  17.197   8.889  0.00  0.00    -0.357 OA
HETATM    2  C   UNK N   1      34.072  15.011   9.798  0.00  0.00     0.149 C 
HETATM    3  C   UNK N   1      33.010  16.185   8.068  0.00  0.00     0.234 C 
HETATM    4  C   UNK N   1      32.837  14.966   8.928  0.00  0.00     0.084 C 
HETATM    5  C   UNK N   1      34.558  16.441   9.521  0.00  0.00     0.172 C 
ENDROOT
BRANCH   3   6
HETATM    6  N   UNK N   1      31.897  16.543   7.147  0.00  0.00    -0.282 N 
HETATM    7  C   UNK N   1      30.684  16.800   7.717  0.00  0.00     0.110 A 
HETATM    8  C   UNK N   1      29.630  17.335   6.971  0.00  0.00     0.022 A 
HETATM    9  C   UNK N   1      29.834  17.624   5.621  0.00  0.00     0.256 A 
HETATM   10  C   UNK N   1      28.327  17.629   7.633  0.00  0.00     0.056 C 
HETATM   11  O   UNK N   1      28.954  18.137   4.951  0.00  0.00    -0.267 OA
HETATM   12  N   UNK N   1      31.039  17.335   5.050  0.00  0.00    -0.275 N 
HETATM   13  C   UNK N   1      32.067  16.802   5.784  0.00  0.00     0.331 A 
HETATM   14  H   UNK N   1      31.174  17.514   4.091  0.00  0.00     0.173 HD
HETATM   15  O   UNK N   1      33.134  16.604   5.231  0.00  0.00    -0.246 OA
ENDBRANCH   3   6
BRANCH   5  16
HETATM   16  C   UNK N   1      35.545  17.143  10.456  0.00  0.00     0.198 C 
BRANCH  16  17
HETATM   17  O   UNK N   1      36.552  16.254  10.849  0.00  0.00    -0.398 OA
HETATM   18  H   UNK N   1      36.432  15.655  11.602  0.00  0.00     0.209 HD
ENDBRANCH  16  17
ENDBRANCH   5  16
BRANCH   2  19
HETATM   19  N   UNK N   1      33.703  14.722  11.167  0.00  0.00    -0.245 N 
ATOM     20  HN  UNK N   1      32.743  14.856  11.483  1.00  0.00     0.197 HD
BRANCH  19  21
HETATM   21  N   UNK N   1      34.559  14.318  11.942  0.00  0.00    -0.248 NA
BRANCH  21  22
HETATM   22  N   UNK N   1      35.416  13.963  12.731  0.00  0.00    -0.261 N 
HETATM   23  H   UNK N   1      35.380  14.266  13.667  0.00  0.00     0.193 HD
ATOM     24  HN  UNK N   1      36.172  13.351  12.422  1.00  0.00     0.193 HD
ENDBRANCH  21  22
ENDBRANCH  19  21
ENDBRANCH   2  19
TORSDOF 6
ENDMDL
