REMARK  7 active torsions:
REMARK  status: ('A' for Active; 'I' for Inactive)
REMARK    1  A    between atoms: N_3  and  C_10 
REMARK       I    between atoms: N_4  and  C_13 
REMARK    2  A    between atoms: C_5  and  C_6 
REMARK    3  A    between atoms: C_6  and  C_11 
REMARK    4  A    between atoms: C_6  and  C_12 
REMARK    5  A    between atoms: C_6  and  C_13 
REMARK    6  A    between atoms: C_10  and  C_14 
REMARK    7  A    between atoms: C_14  and  C_19 
ROOT
HETATM    1  C   UNK N   1       3.339   0.632  -0.078  0.00  0.00     0.100 C 
ENDROOT
BRANCH   1   2
HETATM    2  C   UNK N   1       4.833   1.059   0.101  0.00  0.00     0.042 C 
HETATM    3  C   UNK N   1       5.427   1.605   1.371  0.00  0.00     0.038 C 
HETATM    4  C   UNK N   1       6.827   2.027   0.908  0.00  0.00     0.273 C 
HETATM    5  N   UNK N   1       6.888   1.951  -0.567  0.00  0.00     0.089 N 
HETATM    6  C   UNK N   1       5.530   1.795  -1.024  0.00  0.00     0.279 C 
BRANCH   5   7
HETATM    7  C   UNK N   1       7.601   0.768  -1.060  0.00  0.00     0.277 C 
BRANCH   7   8
HETATM    8  C   UNK N   1       7.501  -0.463  -0.144  0.00  0.00     0.068 C 
BRANCH   8   9
HETATM    9  C   UNK N   1       8.870  -0.956   0.143  0.00  0.00    -0.056 A 
HETATM   10  C   UNK N   1       9.942  -0.046   0.167  0.00  0.00     0.017 A 
HETATM   11  C   UNK N   1      11.221  -0.534   0.317  0.00  0.00    -0.022 A 
HETATM   12  C   UNK N   1      11.461  -1.854   0.454  0.00  0.00     0.075 A 
HETATM   13  C   UNK N   1      12.482   0.225   0.310  0.00  0.00     0.068 A 
HETATM   14  O   UNK N   1      12.760  -2.107   0.549  0.00  0.00    -0.350 OA
HETATM   15  C   UNK N   1      10.429  -2.796   0.468  0.00  0.00     0.038 A 
HETATM   16  C   UNK N   1      13.505  -0.937   0.461  0.00  0.00     0.180 A 
HETATM   17  C   UNK N   1       9.111  -2.335   0.299  0.00  0.00     0.010 A 
ENDBRANCH   8   9
ENDBRANCH   7   8
ENDBRANCH   5   7
ENDBRANCH   1   2
BRANCH   1  18
HETATM   18  C   UNK N   1       1.896   0.119  -0.126  0.00  0.00    -0.035 A 
HETATM   19  C   UNK N   1       1.013   0.328   0.947  0.00  0.00     0.009 A 
HETATM   20  C   UNK N   1      -0.313  -0.105   0.855  0.00  0.00     0.001 A 
HETATM   21  C   UNK N   1      -0.769  -0.744  -0.302  0.00  0.00     0.000 A 
HETATM   22  C   UNK N   1       0.097  -0.954  -1.376  0.00  0.00     0.001 A 
HETATM   23  C   UNK N   1       1.417  -0.521  -1.294  0.00  0.00     0.009 A 
ENDBRANCH   1  18
BRANCH   1  24
HETATM   24  C   UNK N   1       3.912  -0.816  -0.075  0.00  0.00    -0.035 A 
HETATM   25  C   UNK N   1       3.766  -1.611   1.088  0.00  0.00     0.009 A 
HETATM   26  C   UNK N   1       4.252  -2.919   1.131  0.00  0.00     0.001 A 
HETATM   27  C   UNK N   1       4.896  -3.460   0.018  0.00  0.00     0.000 A 
HETATM   28  C   UNK N   1       5.050  -2.697  -1.143  0.00  0.00     0.001 A 
HETATM   29  C   UNK N   1       4.559  -1.386  -1.199  0.00  0.00     0.009 A 
ENDBRANCH   1  24
BRANCH   1  30
HETATM   30  C   UNK N   1       2.899   2.094  -0.348  0.00  0.00     0.233 C 
HETATM   31  O   UNK N   1       3.005   2.945   0.529  0.00  0.00    -0.272 OA
HETATM   32  N   UNK N   1       2.363   2.448  -1.538  0.00  0.00    -0.369 N 
HETATM   33  H   UNK N   1       2.391   2.915  -2.404  0.00  0.00     0.159 HD
HETATM   34  H   UNK N   1       1.482   2.008  -1.538  0.00  0.00     0.159 HD
ENDBRANCH   1  30
TORSDOF 7
