MODEL 1
REMARK VINA RESULT:      -7.2      0.000      0.000
REMARK  7 active torsions:
REMARK  status: ('A' for Active; 'I' for Inactive)
REMARK    1  A    between atoms: N_3  and  C_10 
REMARK       I    between atoms: N_4  and  C_13 
REMARK    2  A    between atoms: C_5  and  C_6 
REMARK    3  A    between atoms: C_6  and  C_11 
REMARK    4  A    between atoms: C_6  and  C_12 
REMARK    5  A    between atoms: C_6  and  C_13 
REMARK    6  A    between atoms: C_10  and  C_14 
REMARK    7  A    between atoms: C_14  and  C_19 
ROOT
HETATM    1  C   UNK N   1      28.970  22.414  -6.530  0.00  0.00     0.100 C 
ENDROOT
BRANCH   1   2
HETATM    2  C   UNK N   1      27.615  22.864  -7.168  0.00  0.00     0.042 C 
HETATM    3  C   UNK N   1      26.468  21.945  -7.493  0.00  0.00     0.038 C 
HETATM    4  C   UNK N   1      25.526  22.878  -8.264  0.00  0.00     0.273 C 
HETATM    5  N   UNK N   1      26.235  24.142  -8.557  0.00  0.00     0.089 N 
HETATM    6  C   UNK N   1      27.627  23.905  -8.268  0.00  0.00     0.279 C 
BRANCH   5   7
HETATM    7  C   UNK N   1      25.840  25.248  -7.679  0.00  0.00     0.277 C 
BRANCH   7   8
HETATM    8  C   UNK N   1      26.753  26.483  -7.761  0.00  0.00     0.068 C 
BRANCH   8   9
HETATM    9  C   UNK N   1      26.493  27.347  -6.584  0.00  0.00    -0.056 A 
HETATM   10  C   UNK N   1      27.369  28.409  -6.299  0.00  0.00     0.017 A 
HETATM   11  C   UNK N   1      27.183  29.127  -5.139  0.00  0.00    -0.022 A 
HETATM   12  C   UNK N   1      26.177  28.843  -4.287  0.00  0.00     0.075 A 
HETATM   13  C   UNK N   1      28.008  30.229  -4.618  0.00  0.00     0.068 A 
HETATM   14  O   UNK N   1      26.202  29.632  -3.220  0.00  0.00    -0.350 OA
HETATM   15  C   UNK N   1      25.261  27.818  -4.539  0.00  0.00     0.038 A 
HETATM   16  C   UNK N   1      27.273  30.515  -3.278  0.00  0.00     0.180 A 
HETATM   17  C   UNK N   1      25.431  27.052  -5.706  0.00  0.00     0.010 A 
ENDBRANCH   8   9
ENDBRANCH   7   8
ENDBRANCH   5   7
ENDBRANCH   1   2
BRANCH   1  18
HETATM   18  C   UNK N   1      30.222  21.977  -5.762  0.00  0.00    -0.035 A 
HETATM   19  C   UNK N   1      31.509  22.219  -6.271  0.00  0.00     0.009 A 
HETATM   20  C   UNK N   1      32.635  21.856  -5.526  0.00  0.00     0.001 A 
HETATM   21  C   UNK N   1      32.488  21.254  -4.273  0.00  0.00     0.000 A 
HETATM   22  C   UNK N   1      31.215  21.011  -3.755  0.00  0.00     0.001 A 
HETATM   23  C   UNK N   1      30.090  21.375  -4.488  0.00  0.00     0.009 A 
ENDBRANCH   1  18
BRANCH   1  24
HETATM   24  C   UNK N   1      28.768  23.651  -5.605  0.00  0.00    -0.035 A 
HETATM   25  C   UNK N   1      27.669  23.672  -4.713  0.00  0.00     0.009 A 
HETATM   26  C   UNK N   1      27.457  24.753  -3.856  0.00  0.00     0.001 A 
HETATM   27  C   UNK N   1      28.334  25.838  -3.874  0.00  0.00     0.000 A 
HETATM   28  C   UNK N   1      29.429  25.841  -4.743  0.00  0.00     0.001 A 
HETATM   29  C   UNK N   1      29.654  24.757  -5.601  0.00  0.00     0.009 A 
ENDBRANCH   1  24
BRANCH   1  30
HETATM   30  C   UNK N   1      29.222  21.386  -7.662  0.00  0.00     0.233 C 
HETATM   31  O   UNK N   1      29.608  21.760  -8.764  0.00  0.00    -0.272 OA
HETATM   32  N   UNK N   1      28.991  20.068  -7.465  0.00  0.00    -0.369 N 
HETATM   33  H   UNK N   1      29.289  19.137  -7.351  0.00  0.00     0.159 HD
HETATM   34  H   UNK N   1      28.010  20.009  -7.404  0.00  0.00     0.159 HD
ENDBRANCH   1  30
TORSDOF 7
ENDMDL
MODEL 2
REMARK VINA RESULT:      -7.1     11.350     13.313
REMARK  7 active torsions:
REMARK  status: ('A' for Active; 'I' for Inactive)
REMARK    1  A    between atoms: N_3  and  C_10 
REMARK       I    between atoms: N_4  and  C_13 
REMARK    2  A    between atoms: C_5  and  C_6 
REMARK    3  A    between atoms: C_6  and  C_11 
REMARK    4  A    between atoms: C_6  and  C_12 
REMARK    5  A    between atoms: C_6  and  C_13 
REMARK    6  A    between atoms: C_10  and  C_14 
REMARK    7  A    between atoms: C_14  and  C_19 
ROOT
HETATM    1  C   UNK N   1      29.690  16.299   5.362  0.00  0.00     0.100 C 
ENDROOT
BRANCH   1   2
HETATM    2  C   UNK N   1      28.279  15.804   4.902  0.00  0.00     0.042 C 
HETATM    3  C   UNK N   1      27.441  14.790   5.632  0.00  0.00     0.038 C 
HETATM    4  C   UNK N   1      26.296  14.555   4.640  0.00  0.00     0.273 C 
HETATM    5  N   UNK N   1      26.632  15.205   3.355  0.00  0.00     0.089 N 
HETATM    6  C   UNK N   1      28.028  15.557   3.429  0.00  0.00     0.279 C 
BRANCH   5   7
HETATM    7  C   UNK N   1      25.925  16.471   3.140  0.00  0.00     0.277 C 
BRANCH   7   8
HETATM    8  C   UNK N   1      25.105  16.955   4.347  0.00  0.00     0.068 C 
BRANCH   8   9
HETATM    9  C   UNK N   1      24.356  18.174   3.957  0.00  0.00    -0.056 A 
HETATM   10  C   UNK N   1      22.950  18.166   3.997  0.00  0.00     0.017 A 
HETATM   11  C   UNK N   1      22.268  19.262   3.520  0.00  0.00    -0.022 A 
HETATM   12  C   UNK N   1      22.916  20.340   3.033  0.00  0.00     0.075 A 
HETATM   13  C   UNK N   1      20.811  19.441   3.412  0.00  0.00     0.068 A 
HETATM   14  O   UNK N   1      22.069  21.263   2.596  0.00  0.00    -0.350 OA
HETATM   15  C   UNK N   1      24.311  20.411   2.999  0.00  0.00     0.038 A 
HETATM   16  C   UNK N   1      20.752  20.846   2.749  0.00  0.00     0.180 A 
HETATM   17  C   UNK N   1      25.041  19.301   3.462  0.00  0.00     0.010 A 
ENDBRANCH   8   9
ENDBRANCH   7   8
ENDBRANCH   5   7
ENDBRANCH   1   2
BRANCH   1  18
HETATM   18  C   UNK N   1      31.001  16.835   5.946  0.00  0.00    -0.035 A 
HETATM   19  C   UNK N   1      31.206  16.902   7.335  0.00  0.00     0.009 A 
HETATM   20  C   UNK N   1      32.431  17.346   7.840  0.00  0.00     0.001 A 
HETATM   21  C   UNK N   1      33.459  17.722   6.970  0.00  0.00     0.000 A 
HETATM   22  C   UNK N   1      33.270  17.656   5.589  0.00  0.00     0.001 A 
HETATM   23  C   UNK N   1      32.055  17.210   5.079  0.00  0.00     0.009 A 
ENDBRANCH   1  18
BRANCH   1  24
HETATM   24  C   UNK N   1      28.975  17.666   5.569  0.00  0.00    -0.035 A 
HETATM   25  C   UNK N   1      28.468  17.990   6.851  0.00  0.00     0.009 A 
HETATM   26  C   UNK N   1      27.832  19.211   7.086  0.00  0.00     0.001 A 
HETATM   27  C   UNK N   1      27.684  20.131   6.048  0.00  0.00     0.000 A 
HETATM   28  C   UNK N   1      28.178  19.836   4.774  0.00  0.00     0.001 A 
HETATM   29  C   UNK N   1      28.825  18.617   4.530  0.00  0.00     0.009 A 
ENDBRANCH   1  24
BRANCH   1  30
HETATM   30  C   UNK N   1      30.366  14.995   4.866  0.00  0.00     0.233 C 
HETATM   31  O   UNK N   1      30.608  14.836   3.673  0.00  0.00    -0.272 OA
HETATM   32  N   UNK N   1      30.671  14.000   5.730  0.00  0.00    -0.369 N 
HETATM   33  H   UNK N   1      31.310  13.446   6.233  0.00  0.00     0.159 HD
HETATM   34  H   UNK N   1      29.793  13.640   5.992  0.00  0.00     0.159 HD
ENDBRANCH   1  30
TORSDOF 7
ENDMDL
MODEL 3
REMARK VINA RESULT:      -6.9     11.234     15.337
REMARK  7 active torsions:
REMARK  status: ('A' for Active; 'I' for Inactive)
REMARK    1  A    between atoms: N_3  and  C_10 
REMARK       I    between atoms: N_4  and  C_13 
REMARK    2  A    between atoms: C_5  and  C_6 
REMARK    3  A    between atoms: C_6  and  C_11 
REMARK    4  A    between atoms: C_6  and  C_12 
REMARK    5  A    between atoms: C_6  and  C_13 
REMARK    6  A    between atoms: C_10  and  C_14 
REMARK    7  A    between atoms: C_14  and  C_19 
ROOT
HETATM    1  C   UNK N   1      27.449  18.999   6.206  0.00  0.00     0.100 C 
ENDROOT
BRANCH   1   2
HETATM    2  C   UNK N   1      28.289  18.411   7.387  0.00  0.00     0.042 C 
HETATM    3  C   UNK N   1      27.736  18.038   8.736  0.00  0.00     0.038 C 
HETATM    4  C   UNK N   1      29.014  17.724   9.524  0.00  0.00     0.273 C 
HETATM    5  N   UNK N   1      30.185  18.150   8.729  0.00  0.00     0.089 N 
HETATM    6  C   UNK N   1      29.675  18.961   7.653  0.00  0.00     0.279 C 
BRANCH   5   7
HETATM    7  C   UNK N   1      30.882  17.035   8.078  0.00  0.00     0.277 C 
BRANCH   7   8
HETATM    8  C   UNK N   1      32.209  17.422   7.403  0.00  0.00     0.068 C 
BRANCH   8   9
HETATM    9  C   UNK N   1      32.254  16.808   6.054  0.00  0.00    -0.056 A 
HETATM   10  C   UNK N   1      31.955  15.442   5.906  0.00  0.00     0.017 A 
HETATM   11  C   UNK N   1      32.115  14.859   4.669  0.00  0.00    -0.022 A 
HETATM   12  C   UNK N   1      32.537  15.571   3.603  0.00  0.00     0.075 A 
HETATM   13  C   UNK N   1      31.920  13.447   4.305  0.00  0.00     0.068 A 
HETATM   14  O   UNK N   1      32.656  14.810   2.523  0.00  0.00    -0.350 OA
HETATM   15  C   UNK N   1      32.817  16.937   3.691  0.00  0.00     0.038 A 
HETATM   16  C   UNK N   1      32.329  13.489   2.804  0.00  0.00     0.180 A 
HETATM   17  C   UNK N   1      32.681  17.561   4.944  0.00  0.00     0.010 A 
ENDBRANCH   8   9
ENDBRANCH   7   8
ENDBRANCH   5   7
ENDBRANCH   1   2
BRANCH   1  18
HETATM   18  C   UNK N   1      26.546  19.436   5.048  0.00  0.00    -0.035 A 
HETATM   19  C   UNK N   1      27.022  20.285   4.034  0.00  0.00     0.009 A 
HETATM   20  C   UNK N   1      26.193  20.627   2.962  0.00  0.00     0.001 A 
HETATM   21  C   UNK N   1      24.890  20.125   2.889  0.00  0.00     0.000 A 
HETATM   22  C   UNK N   1      24.407  19.277   3.887  0.00  0.00     0.001 A 
HETATM   23  C   UNK N   1      25.228  18.929   4.955  0.00  0.00     0.009 A 
ENDBRANCH   1  18
BRANCH   1  24
HETATM   24  C   UNK N   1      27.858  17.691   5.466  0.00  0.00    -0.035 A 
HETATM   25  C   UNK N   1      27.372  16.450   5.944  0.00  0.00     0.009 A 
HETATM   26  C   UNK N   1      27.702  15.254   5.304  0.00  0.00     0.001 A 
HETATM   27  C   UNK N   1      28.525  15.270   4.177  0.00  0.00     0.000 A 
HETATM   28  C   UNK N   1      29.015  16.482   3.684  0.00  0.00     0.001 A 
HETATM   29  C   UNK N   1      28.684  17.689   4.315  0.00  0.00     0.009 A 
ENDBRANCH   1  24
BRANCH   1  30
HETATM   30  C   UNK N   1      27.328  20.376   6.909  0.00  0.00     0.233 C 
HETATM   31  O   UNK N   1      28.098  21.287   6.623  0.00  0.00    -0.272 OA
HETATM   32  N   UNK N   1      26.397  20.585   7.867  0.00  0.00    -0.369 N 
HETATM   33  H   UNK N   1      25.570  20.997   8.205  0.00  0.00     0.159 HD
HETATM   34  H   UNK N   1      26.714  20.041   8.624  0.00  0.00     0.159 HD
ENDBRANCH   1  30
TORSDOF 7
ENDMDL
MODEL 4
REMARK VINA RESULT:      -6.6     11.819     14.496
REMARK  7 active torsions:
REMARK  status: ('A' for Active; 'I' for Inactive)
REMARK    1  A    between atoms: N_3  and  C_10 
REMARK       I    between atoms: N_4  and  C_13 
REMARK    2  A    between atoms: C_5  and  C_6 
REMARK    3  A    between atoms: C_6  and  C_11 
REMARK    4  A    between atoms: C_6  and  C_12 
REMARK    5  A    between atoms: C_6  and  C_13 
REMARK    6  A    between atoms: C_10  and  C_14 
REMARK    7  A    between atoms: C_14  and  C_19 
ROOT
HETATM    1  C   UNK N   1      30.378  17.364   7.648  0.00  0.00     0.100 C 
ENDROOT
BRANCH   1   2
HETATM    2  C   UNK N   1      29.087  17.901   6.948  0.00  0.00     0.042 C 
HETATM    3  C   UNK N   1      28.492  19.266   7.167  0.00  0.00     0.038 C 
HETATM    4  C   UNK N   1      27.167  19.158   6.402  0.00  0.00     0.273 C 
HETATM    5  N   UNK N   1      26.948  17.748   6.018  0.00  0.00     0.089 N 
HETATM    6  C   UNK N   1      27.909  16.969   6.758  0.00  0.00     0.279 C 
BRANCH   5   7
HETATM    7  C   UNK N   1      27.236  17.478   4.605  0.00  0.00     0.277 C 
BRANCH   7   8
HETATM    8  C   UNK N   1      26.014  17.044   3.778  0.00  0.00     0.068 C 
BRANCH   8   9
HETATM    9  C   UNK N   1      25.123  18.215   3.593  0.00  0.00    -0.056 A 
HETATM   10  C   UNK N   1      23.744  18.079   3.829  0.00  0.00     0.017 A 
HETATM   11  C   UNK N   1      22.915  19.140   3.539  0.00  0.00    -0.022 A 
HETATM   12  C   UNK N   1      23.399  20.300   3.052  0.00  0.00     0.075 A 
HETATM   13  C   UNK N   1      21.448  19.195   3.651  0.00  0.00     0.068 A 
HETATM   14  O   UNK N   1      22.428  21.172   2.812  0.00  0.00    -0.350 OA
HETATM   15  C   UNK N   1      24.764  20.497   2.830  0.00  0.00     0.038 A 
HETATM   16  C   UNK N   1      21.184  20.631   3.114  0.00  0.00     0.180 A 
HETATM   17  C   UNK N   1      25.638  19.429   3.097  0.00  0.00     0.010 A 
ENDBRANCH   8   9
ENDBRANCH   7   8
ENDBRANCH   5   7
ENDBRANCH   1   2
BRANCH   1  18
HETATM   18  C   UNK N   1      31.727  16.911   8.218  0.00  0.00    -0.035 A 
HETATM   19  C   UNK N   1      32.871  17.720   8.111  0.00  0.00     0.009 A 
HETATM   20  C   UNK N   1      34.076  17.305   8.686  0.00  0.00     0.001 A 
HETATM   21  C   UNK N   1      34.150  16.088   9.371  0.00  0.00     0.000 A 
HETATM   22  C   UNK N   1      33.019  15.278   9.488  0.00  0.00     0.001 A 
HETATM   23  C   UNK N   1      31.815  15.687   8.923  0.00  0.00     0.009 A 
ENDBRANCH   1  18
BRANCH   1  24
HETATM   24  C   UNK N   1      30.719  16.791   6.241  0.00  0.00    -0.035 A 
HETATM   25  C   UNK N   1      30.692  15.389   6.044  0.00  0.00     0.009 A 
HETATM   26  C   UNK N   1      30.977  14.832   4.796  0.00  0.00     0.001 A 
HETATM   27  C   UNK N   1      31.297  15.660   3.720  0.00  0.00     0.000 A 
HETATM   28  C   UNK N   1      31.326  17.047   3.887  0.00  0.00     0.001 A 
HETATM   29  C   UNK N   1      31.035  17.617   5.134  0.00  0.00     0.009 A 
ENDBRANCH   1  24
BRANCH   1  30
HETATM   30  C   UNK N   1      29.830  17.724   9.053  0.00  0.00     0.233 C 
HETATM   31  O   UNK N   1      29.012  16.994   9.604  0.00  0.00    -0.272 OA
HETATM   32  N   UNK N   1      30.216  18.859   9.678  0.00  0.00    -0.369 N 
HETATM   33  H   UNK N   1      30.697  19.346  10.386  0.00  0.00     0.159 HD
HETATM   34  H   UNK N   1      29.793  19.573   9.148  0.00  0.00     0.159 HD
ENDBRANCH   1  30
TORSDOF 7
ENDMDL
MODEL 5
REMARK VINA RESULT:      -6.6      2.665      4.403
REMARK  7 active torsions:
REMARK  status: ('A' for Active; 'I' for Inactive)
REMARK    1  A    between atoms: N_3  and  C_10 
REMARK       I    between atoms: N_4  and  C_13 
REMARK    2  A    between atoms: C_5  and  C_6 
REMARK    3  A    between atoms: C_6  and  C_11 
REMARK    4  A    between atoms: C_6  and  C_12 
REMARK    5  A    between atoms: C_6  and  C_13 
REMARK    6  A    between atoms: C_10  and  C_14 
REMARK    7  A    between atoms: C_14  and  C_19 
ROOT
HETATM    1  C   UNK N   1      29.565  23.514  -4.325  0.00  0.00     0.100 C 
ENDROOT
BRANCH   1   2
HETATM    2  C   UNK N   1      28.474  24.634  -4.279  0.00  0.00     0.042 C 
HETATM    3  C   UNK N   1      28.723  26.065  -3.887  0.00  0.00     0.038 C 
HETATM    4  C   UNK N   1      27.298  26.628  -3.827  0.00  0.00     0.273 C 
HETATM    5  N   UNK N   1      26.335  25.510  -3.927  0.00  0.00     0.089 N 
HETATM    6  C   UNK N   1      27.096  24.300  -3.746  0.00  0.00     0.279 C 
BRANCH   5   7
HETATM    7  C   UNK N   1      25.721  25.388  -5.253  0.00  0.00     0.277 C 
BRANCH   7   8
HETATM    8  C   UNK N   1      25.509  26.725  -5.982  0.00  0.00     0.068 C 
BRANCH   8   9
HETATM    9  C   UNK N   1      26.287  26.709  -7.244  0.00  0.00    -0.056 A 
HETATM   10  C   UNK N   1      27.460  27.477  -7.344  0.00  0.00     0.017 A 
HETATM   11  C   UNK N   1      28.106  27.545  -8.558  0.00  0.00    -0.022 A 
HETATM   12  C   UNK N   1      27.647  26.883  -9.639  0.00  0.00     0.075 A 
HETATM   13  C   UNK N   1      29.303  28.330  -8.900  0.00  0.00     0.068 A 
HETATM   14  O   UNK N   1      28.397  27.114 -10.709  0.00  0.00    -0.350 OA
HETATM   15  C   UNK N   1      26.503  26.081  -9.585  0.00  0.00     0.038 A 
HETATM   16  C   UNK N   1      29.434  27.990 -10.412  0.00  0.00     0.180 A 
HETATM   17  C   UNK N   1      25.808  26.003  -8.365  0.00  0.00     0.010 A 
ENDBRANCH   8   9
ENDBRANCH   7   8
ENDBRANCH   5   7
ENDBRANCH   1   2
BRANCH   1  18
HETATM   18  C   UNK N   1      30.703  22.501  -4.489  0.00  0.00    -0.035 A 
HETATM   19  C   UNK N   1      30.467  21.119  -4.388  0.00  0.00     0.009 A 
HETATM   20  C   UNK N   1      31.513  20.215  -4.594  0.00  0.00     0.001 A 
HETATM   21  C   UNK N   1      32.796  20.678  -4.902  0.00  0.00     0.000 A 
HETATM   22  C   UNK N   1      33.042  22.047  -5.009  0.00  0.00     0.001 A 
HETATM   23  C   UNK N   1      32.004  22.953  -4.811  0.00  0.00     0.009 A 
ENDBRANCH   1  18
BRANCH   1  24
HETATM   24  C   UNK N   1      29.212  23.445  -5.840  0.00  0.00    -0.035 A 
HETATM   25  C   UNK N   1      29.890  24.299  -6.744  0.00  0.00     0.009 A 
HETATM   26  C   UNK N   1      29.616  24.262  -8.112  0.00  0.00     0.001 A 
HETATM   27  C   UNK N   1      28.658  23.377  -8.607  0.00  0.00     0.000 A 
HETATM   28  C   UNK N   1      27.976  22.522  -7.736  0.00  0.00     0.001 A 
HETATM   29  C   UNK N   1      28.250  22.546  -6.362  0.00  0.00     0.009 A 
ENDBRANCH   1  24
BRANCH   1  30
HETATM   30  C   UNK N   1      29.649  23.459  -2.778  0.00  0.00     0.233 C 
HETATM   31  O   UNK N   1      30.635  23.896  -2.195  0.00  0.00    -0.272 OA
HETATM   32  N   UNK N   1      28.655  22.901  -2.050  0.00  0.00    -0.369 N 
HETATM   33  H   UNK N   1      27.898  22.951  -1.422  0.00  0.00     0.159 HD
HETATM   34  H   UNK N   1      28.727  21.940  -2.253  0.00  0.00     0.159 HD
ENDBRANCH   1  30
TORSDOF 7
ENDMDL
MODEL 6
REMARK VINA RESULT:      -6.4     12.883     15.026
REMARK  7 active torsions:
REMARK  status: ('A' for Active; 'I' for Inactive)
REMARK    1  A    between atoms: N_3  and  C_10 
REMARK       I    between atoms: N_4  and  C_13 
REMARK    2  A    between atoms: C_5  and  C_6 
REMARK    3  A    between atoms: C_6  and  C_11 
REMARK    4  A    between atoms: C_6  and  C_12 
REMARK    5  A    between atoms: C_6  and  C_13 
REMARK    6  A    between atoms: C_10  and  C_14 
REMARK    7  A    between atoms: C_14  and  C_19 
ROOT
HETATM    1  C   UNK N   1      25.831  15.801   4.021  0.00  0.00     0.100 C 
ENDROOT
BRANCH   1   2
HETATM    2  C   UNK N   1      27.122  15.239   3.340  0.00  0.00     0.042 C 
HETATM    3  C   UNK N   1      27.262  14.942   1.871  0.00  0.00     0.038 C 
HETATM    4  C   UNK N   1      28.626  14.243   1.820  0.00  0.00     0.273 C 
HETATM    5  N   UNK N   1      29.069  13.952   3.200  0.00  0.00     0.089 N 
HETATM    6  C   UNK N   1      27.925  14.169   4.050  0.00  0.00     0.279 C 
BRANCH   5   7
HETATM    7  C   UNK N   1      30.096  14.879   3.689  0.00  0.00     0.277 C 
BRANCH   7   8
HETATM    8  C   UNK N   1      30.153  15.015   5.220  0.00  0.00     0.068 C 
BRANCH   8   9
HETATM    9  C   UNK N   1      31.342  15.825   5.582  0.00  0.00    -0.056 A 
HETATM   10  C   UNK N   1      31.703  15.957   6.935  0.00  0.00     0.017 A 
HETATM   11  C   UNK N   1      32.736  16.806   7.264  0.00  0.00    -0.022 A 
HETATM   12  C   UNK N   1      33.410  17.495   6.321  0.00  0.00     0.075 A 
HETATM   13  C   UNK N   1      33.235  17.139   8.608  0.00  0.00     0.068 A 
HETATM   14  O   UNK N   1      34.338  18.277   6.858  0.00  0.00    -0.350 OA
HETATM   15  C   UNK N   1      33.112  17.375   4.961  0.00  0.00     0.038 A 
HETATM   16  C   UNK N   1      34.336  18.176   8.244  0.00  0.00     0.180 A 
HETATM   17  C   UNK N   1      32.051  16.530   4.590  0.00  0.00     0.010 A 
ENDBRANCH   8   9
ENDBRANCH   7   8
ENDBRANCH   5   7
ENDBRANCH   1   2
BRANCH   1  18
HETATM   18  C   UNK N   1      24.620  16.497   4.649  0.00  0.00    -0.035 A 
HETATM   19  C   UNK N   1      24.211  17.772   4.223  0.00  0.00     0.009 A 
HETATM   20  C   UNK N   1      23.071  18.361   4.777  0.00  0.00     0.001 A 
HETATM   21  C   UNK N   1      22.330  17.688   5.753  0.00  0.00     0.000 A 
HETATM   22  C   UNK N   1      22.724  16.420   6.182  0.00  0.00     0.001 A 
HETATM   23  C   UNK N   1      23.855  15.824   5.632  0.00  0.00     0.009 A 
ENDBRANCH   1  18
BRANCH   1  24
HETATM   24  C   UNK N   1      26.827  16.680   4.834  0.00  0.00    -0.035 A 
HETATM   25  C   UNK N   1      27.606  17.646   4.151  0.00  0.00     0.009 A 
HETATM   26  C   UNK N   1      28.502  18.465   4.841  0.00  0.00     0.001 A 
HETATM   27  C   UNK N   1      28.642  18.336   6.223  0.00  0.00     0.000 A 
HETATM   28  C   UNK N   1      27.882  17.392   6.920  0.00  0.00     0.001 A 
HETATM   29  C   UNK N   1      26.975  16.570   6.238  0.00  0.00     0.009 A 
ENDBRANCH   1  24
BRANCH   1  30
HETATM   30  C   UNK N   1      24.949  14.701   3.375  0.00  0.00     0.233 C 
HETATM   31  O   UNK N   1      24.948  13.562   3.828  0.00  0.00    -0.272 OA
HETATM   32  N   UNK N   1      24.193  14.970   2.286  0.00  0.00    -0.369 N 
HETATM   33  H   UNK N   1      23.329  15.106   1.835  0.00  0.00     0.159 HD
HETATM   34  H   UNK N   1      24.855  15.094   1.567  0.00  0.00     0.159 HD
ENDBRANCH   1  30
TORSDOF 7
ENDMDL
MODEL 7
REMARK VINA RESULT:      -6.4     14.295     18.090
REMARK  7 active torsions:
REMARK  status: ('A' for Active; 'I' for Inactive)
REMARK    1  A    between atoms: N_3  and  C_10 
REMARK       I    between atoms: N_4  and  C_13 
REMARK    2  A    between atoms: C_5  and  C_6 
REMARK    3  A    between atoms: C_6  and  C_11 
REMARK    4  A    between atoms: C_6  and  C_12 
REMARK    5  A    between atoms: C_6  and  C_13 
REMARK    6  A    between atoms: C_10  and  C_14 
REMARK    7  A    between atoms: C_14  and  C_19 
ROOT
HETATM    1  C   UNK N   1      34.878  15.010   9.203  0.00  0.00     0.100 C 
ENDROOT
BRANCH   1   2
HETATM    2  C   UNK N   1      33.856  16.047   8.632  0.00  0.00     0.042 C 
HETATM    3  C   UNK N   1      34.184  17.469   8.264  0.00  0.00     0.038 C 
HETATM    4  C   UNK N   1      32.794  18.046   7.968  0.00  0.00     0.273 C 
HETATM    5  N   UNK N   1      31.768  17.074   8.400  0.00  0.00     0.089 N 
HETATM    6  C   UNK N   1      32.451  16.087   9.197  0.00  0.00     0.279 C 
BRANCH   5   7
HETATM    7  C   UNK N   1      31.171  16.327   7.288  0.00  0.00     0.277 C 
BRANCH   7   8
HETATM    8  C   UNK N   1      30.953  17.154   6.010  0.00  0.00     0.068 C 
BRANCH   8   9
HETATM    9  C   UNK N   1      31.606  16.458   4.875  0.00  0.00    -0.056 A 
HETATM   10  C   UNK N   1      31.109  15.214   4.447  0.00  0.00     0.017 A 
HETATM   11  C   UNK N   1      31.796  14.527   3.472  0.00  0.00    -0.022 A 
HETATM   12  C   UNK N   1      32.919  15.025   2.915  0.00  0.00     0.075 A 
HETATM   13  C   UNK N   1      31.492  13.195   2.923  0.00  0.00     0.068 A 
HETATM   14  O   UNK N   1      33.438  14.187   2.027  0.00  0.00    -0.350 OA
HETATM   15  C   UNK N   1      33.437  16.270   3.283  0.00  0.00     0.038 A 
HETATM   16  C   UNK N   1      32.683  13.024   1.937  0.00  0.00     0.180 A 
HETATM   17  C   UNK N   1      32.771  16.992   4.289  0.00  0.00     0.010 A 
ENDBRANCH   8   9
ENDBRANCH   7   8
ENDBRANCH   5   7
ENDBRANCH   1   2
BRANCH   1  18
HETATM   18  C   UNK N   1      35.970  14.024   9.632  0.00  0.00    -0.035 A 
HETATM   19  C   UNK N   1      35.693  12.656   9.791  0.00  0.00     0.009 A 
HETATM   20  C   UNK N   1      36.719  11.770  10.133  0.00  0.00     0.001 A 
HETATM   21  C   UNK N   1      38.024  12.238  10.316  0.00  0.00     0.000 A 
HETATM   22  C   UNK N   1      38.312  13.594  10.158  0.00  0.00     0.001 A 
HETATM   23  C   UNK N   1      37.297  14.481   9.813  0.00  0.00     0.009 A 
ENDBRANCH   1  18
BRANCH   1  24
HETATM   24  C   UNK N   1      34.744  14.338   7.805  0.00  0.00    -0.035 A 
HETATM   25  C   UNK N   1      35.725  14.600   6.818  0.00  0.00     0.009 A 
HETATM   26  C   UNK N   1      35.652  14.008   5.555  0.00  0.00     0.001 A 
HETATM   27  C   UNK N   1      34.598  13.146   5.250  0.00  0.00     0.000 A 
HETATM   28  C   UNK N   1      33.619  12.868   6.208  0.00  0.00     0.001 A 
HETATM   29  C   UNK N   1      33.687  13.451   7.480  0.00  0.00     0.009 A 
ENDBRANCH   1  24
BRANCH   1  30
HETATM   30  C   UNK N   1      34.735  15.581  10.637  0.00  0.00     0.233 C 
HETATM   31  O   UNK N   1      34.187  14.921  11.515  0.00  0.00    -0.272 OA
HETATM   32  N   UNK N   1      35.180  16.822  10.937  0.00  0.00    -0.369 N 
HETATM   33  H   UNK N   1      35.800  17.444  11.383  0.00  0.00     0.159 HD
HETATM   34  H   UNK N   1      34.555  17.416  10.461  0.00  0.00     0.159 HD
ENDBRANCH   1  30
TORSDOF 7
ENDMDL
MODEL 8
REMARK VINA RESULT:      -6.3     12.352     16.001
REMARK  7 active torsions:
REMARK  status: ('A' for Active; 'I' for Inactive)
REMARK    1  A    between atoms: N_3  and  C_10 
REMARK       I    between atoms: N_4  and  C_13 
REMARK    2  A    between atoms: C_5  and  C_6 
REMARK    3  A    between atoms: C_6  and  C_11 
REMARK    4  A    between atoms: C_6  and  C_12 
REMARK    5  A    between atoms: C_6  and  C_13 
REMARK    6  A    between atoms: C_10  and  C_14 
REMARK    7  A    between atoms: C_14  and  C_19 
ROOT
HETATM    1  C   UNK N   1      28.835  16.885   4.884  0.00  0.00     0.100 C 
ENDROOT
BRANCH   1   2
HETATM    2  C   UNK N   1      29.440  15.593   4.241  0.00  0.00     0.042 C 
HETATM    3  C   UNK N   1      29.667  15.390   2.768  0.00  0.00     0.038 C 
HETATM    4  C   UNK N   1      30.071  13.911   2.712  0.00  0.00     0.273 C 
HETATM    5  N   UNK N   1      29.826  13.297   4.035  0.00  0.00     0.089 N 
HETATM    6  C   UNK N   1      29.031  14.239   4.781  0.00  0.00     0.279 C 
BRANCH   5   7
HETATM    7  C   UNK N   1      31.048  13.110   4.824  0.00  0.00     0.277 C 
BRANCH   7   8
HETATM    8  C   UNK N   1      32.312  13.719   4.196  0.00  0.00     0.068 C 
BRANCH   8   9
HETATM    9  C   UNK N   1      33.297  13.990   5.271  0.00  0.00    -0.056 A 
HETATM   10  C   UNK N   1      32.934  13.769   6.612  0.00  0.00     0.017 A 
HETATM   11  C   UNK N   1      33.815  14.136   7.605  0.00  0.00    -0.022 A 
HETATM   12  C   UNK N   1      35.014  14.684   7.317  0.00  0.00     0.075 A 
HETATM   13  C   UNK N   1      33.619  14.053   9.061  0.00  0.00     0.068 A 
HETATM   14  O   UNK N   1      35.686  14.993   8.419  0.00  0.00    -0.350 OA
HETATM   15  C   UNK N   1      35.434  14.895   6.002  0.00  0.00     0.038 A 
HETATM   16  C   UNK N   1      34.953  14.679   9.557  0.00  0.00     0.180 A 
HETATM   17  C   UNK N   1      34.552  14.549   4.962  0.00  0.00     0.010 A 
ENDBRANCH   8   9
ENDBRANCH   7   8
ENDBRANCH   5   7
ENDBRANCH   1   2
BRANCH   1  18
HETATM   18  C   UNK N   1      28.361  18.230   5.443  0.00  0.00    -0.035 A 
HETATM   19  C   UNK N   1      28.194  18.427   6.825  0.00  0.00     0.009 A 
HETATM   20  C   UNK N   1      27.811  19.680   7.311  0.00  0.00     0.001 A 
HETATM   21  C   UNK N   1      27.595  20.744   6.429  0.00  0.00     0.000 A 
HETATM   22  C   UNK N   1      27.761  20.563   5.055  0.00  0.00     0.001 A 
HETATM   23  C   UNK N   1      28.148  19.319   4.565  0.00  0.00     0.009 A 
ENDBRANCH   1  18
BRANCH   1  24
HETATM   24  C   UNK N   1      30.278  17.104   5.429  0.00  0.00    -0.035 A 
HETATM   25  C   UNK N   1      31.304  17.476   4.527  0.00  0.00     0.009 A 
HETATM   26  C   UNK N   1      32.609  17.696   4.972  0.00  0.00     0.001 A 
HETATM   27  C   UNK N   1      32.917  17.547   6.324  0.00  0.00     0.000 A 
HETATM   28  C   UNK N   1      31.922  17.184   7.236  0.00  0.00     0.001 A 
HETATM   29  C   UNK N   1      30.608  16.968   6.800  0.00  0.00     0.009 A 
ENDBRANCH   1  24
BRANCH   1  30
HETATM   30  C   UNK N   1      27.390  16.443   4.539  0.00  0.00     0.233 C 
HETATM   31  O   UNK N   1      26.984  16.498   3.383  0.00  0.00    -0.272 OA
HETATM   32  N   UNK N   1      26.544  16.021   5.507  0.00  0.00    -0.369 N 
HETATM   33  H   UNK N   1      26.021  15.326   5.968  0.00  0.00     0.159 HD
HETATM   34  H   UNK N   1      26.349  16.839   6.019  0.00  0.00     0.159 HD
ENDBRANCH   1  30
TORSDOF 7
ENDMDL
MODEL 9
REMARK VINA RESULT:      -6.3      2.150      7.067
REMARK  7 active torsions:
REMARK  status: ('A' for Active; 'I' for Inactive)
REMARK    1  A    between atoms: N_3  and  C_10 
REMARK       I    between atoms: N_4  and  C_13 
REMARK    2  A    between atoms: C_5  and  C_6 
REMARK    3  A    between atoms: C_6  and  C_11 
REMARK    4  A    between atoms: C_6  and  C_12 
REMARK    5  A    between atoms: C_6  and  C_13 
REMARK    6  A    between atoms: C_10  and  C_14 
REMARK    7  A    between atoms: C_14  and  C_19 
ROOT
HETATM    1  C   UNK N   1      27.477  25.488  -6.196  0.00  0.00     0.100 C 
ENDROOT
BRANCH   1   2
HETATM    2  C   UNK N   1      28.035  24.286  -7.026  0.00  0.00     0.042 C 
HETATM    3  C   UNK N   1      28.100  24.232  -8.528  0.00  0.00     0.038 C 
HETATM    4  C   UNK N   1      28.529  22.780  -8.773  0.00  0.00     0.273 C 
HETATM    5  N   UNK N   1      28.447  22.034  -7.500  0.00  0.00     0.089 N 
HETATM    6  C   UNK N   1      27.719  22.873  -6.581  0.00  0.00     0.279 C 
BRANCH   5   7
HETATM    7  C   UNK N   1      29.753  21.812  -6.870  0.00  0.00     0.277 C 
BRANCH   7   8
HETATM    8  C   UNK N   1      29.701  21.628  -5.344  0.00  0.00     0.068 C 
BRANCH   8   9
HETATM    9  C   UNK N   1      31.088  21.578  -4.823  0.00  0.00    -0.056 A 
HETATM   10  C   UNK N   1      32.168  21.606  -5.724  0.00  0.00     0.017 A 
HETATM   11  C   UNK N   1      33.444  21.439  -5.233  0.00  0.00    -0.022 A 
HETATM   12  C   UNK N   1      33.676  21.266  -3.916  0.00  0.00     0.075 A 
HETATM   13  C   UNK N   1      34.701  21.375  -5.995  0.00  0.00     0.068 A 
HETATM   14  O   UNK N   1      34.968  21.091  -3.667  0.00  0.00    -0.350 OA
HETATM   15  C   UNK N   1      32.642  21.262  -2.977  0.00  0.00     0.038 A 
HETATM   16  C   UNK N   1      35.711  21.117  -4.841  0.00  0.00     0.180 A 
HETATM   17  C   UNK N   1      31.324  21.411  -3.444  0.00  0.00     0.010 A 
ENDBRANCH   8   9
ENDBRANCH   7   8
ENDBRANCH   5   7
ENDBRANCH   1   2
BRANCH   1  18
HETATM   18  C   UNK N   1      27.069  26.741  -5.413  0.00  0.00    -0.035 A 
HETATM   19  C   UNK N   1      27.549  28.012  -5.772  0.00  0.00     0.009 A 
HETATM   20  C   UNK N   1      27.120  29.144  -5.074  0.00  0.00     0.001 A 
HETATM   21  C   UNK N   1      26.211  29.020  -4.018  0.00  0.00     0.000 A 
HETATM   22  C   UNK N   1      25.724  27.764  -3.654  0.00  0.00     0.001 A 
HETATM   23  C   UNK N   1      26.143  26.633  -4.349  0.00  0.00     0.009 A 
ENDBRANCH   1  18
BRANCH   1  24
HETATM   24  C   UNK N   1      28.807  25.356  -5.397  0.00  0.00    -0.035 A 
HETATM   25  C   UNK N   1      30.033  25.633  -6.051  0.00  0.00     0.009 A 
HETATM   26  C   UNK N   1      31.248  25.540  -5.370  0.00  0.00     0.001 A 
HETATM   27  C   UNK N   1      31.268  25.166  -4.027  0.00  0.00     0.000 A 
HETATM   28  C   UNK N   1      30.072  24.890  -3.358  0.00  0.00     0.001 A 
HETATM   29  C   UNK N   1      28.846  24.988  -4.029  0.00  0.00     0.009 A 
ENDBRANCH   1  24
BRANCH   1  30
HETATM   30  C   UNK N   1      26.080  25.365  -6.857  0.00  0.00     0.233 C 
HETATM   31  O   UNK N   1      25.286  24.512  -6.473  0.00  0.00    -0.272 OA
HETATM   32  N   UNK N   1      25.726  26.169  -7.884  0.00  0.00    -0.369 N 
HETATM   33  H   UNK N   1      25.201  26.902  -8.279  0.00  0.00     0.159 HD
HETATM   34  H   UNK N   1      26.289  25.858  -8.630  0.00  0.00     0.159 HD
ENDBRANCH   1  30
TORSDOF 7
ENDMDL
