MODEL 1
REMARK VINA RESULT:      -6.5      0.000      0.000
REMARK  2 active torsions:
REMARK  status: ('A' for Active; 'I' for Inactive)
REMARK    1  A    between atoms: C_7  and  O_2 
REMARK    2  A    between atoms: O_4  and  C_21 
ROOT
HETATM    1  O   UNK N   1      29.788  16.126   6.097  0.00  0.00    -0.334 OA
HETATM    2  O   UNK N   1      28.538  17.527   8.263  0.00  0.00    -0.295 OA
HETATM    3  N   UNK N   1      34.546  15.171   7.781  0.00  0.00     0.092 N 
HETATM    4  C   UNK N   1      31.761  15.975   7.348  0.00  0.00     0.058 C 
HETATM    5  C   UNK N   1      32.624  16.725   8.363  0.00  0.00     0.104 C 
HETATM    6  C   UNK N   1      34.112  16.588   7.848  0.00  0.00     0.262 C 
HETATM    7  C   UNK N   1      30.204  16.069   7.436  0.00  0.00     0.214 C 
HETATM    8  C   UNK N   1      32.186  14.494   7.308  0.00  0.00     0.051 C 
HETATM    9  C   UNK N   1      31.957  16.538   6.004  0.00  0.00    -0.001 A 
HETATM   10  C   UNK N   1      32.166  18.181   8.423  0.00  0.00     0.049 C 
HETATM   11  C   UNK N   1      34.322  17.211   6.425  0.00  0.00     0.078 C 
HETATM   12  C   UNK N   1      33.670  14.323   6.961  0.00  0.00     0.273 C 
HETATM   13  C   UNK N   1      33.142  17.037   5.495  0.00  0.00    -0.046 A 
HETATM   14  C   UNK N   1      30.686  18.310   8.812  0.00  0.00     0.084 C 
HETATM   15  C   UNK N   1      29.736  17.324   8.159  0.00  0.00     0.157 C 
HETATM   16  C   UNK N   1      30.806  16.501   5.313  0.00  0.00     0.111 A 
HETATM   17  C   UNK N   1      34.723  14.568   9.097  0.00  0.00     0.310 C 
HETATM   18  C   UNK N   1      33.152  17.461   4.156  0.00  0.00     0.011 A 
HETATM   19  C   UNK N   1      30.770  16.871   3.964  0.00  0.00     0.102 A 
HETATM   20  C   UNK N   1      31.974  17.343   3.377  0.00  0.00     0.040 A 
ENDROOT
BRANCH   5  21
HETATM   21  O   UNK N   1      32.482  16.162   9.637  0.00  0.00    -0.386 OA
HETATM   22  H   UNK N   1      33.188  15.689  10.103  0.00  0.00     0.210 HD
ENDBRANCH   5  21
BRANCH  19  23
HETATM   23  O   UNK N   1      29.616  16.769   3.265  0.00  0.00    -0.353 OA
HETATM   24  C   UNK N   1      29.235  15.616   2.618  0.00  0.00     0.210 C 
ENDBRANCH  19  23
TORSDOF 2
ENDMDL
MODEL 2
REMARK VINA RESULT:      -6.5      2.355      4.999
REMARK  2 active torsions:
REMARK  status: ('A' for Active; 'I' for Inactive)
REMARK    1  A    between atoms: C_7  and  O_2 
REMARK    2  A    between atoms: O_4  and  C_21 
ROOT
HETATM    1  O   UNK N   1      31.711  16.817   7.390  0.00  0.00    -0.334 OA
HETATM    2  O   UNK N   1      34.279  17.716   6.487  0.00  0.00    -0.295 OA
HETATM    3  N   UNK N   1      29.771  14.272   3.372  0.00  0.00     0.092 N 
HETATM    4  C   UNK N   1      31.343  15.812   5.307  0.00  0.00     0.058 C 
HETATM    5  C   UNK N   1      31.604  15.973   3.810  0.00  0.00     0.104 C 
HETATM    6  C   UNK N   1      30.231  15.655   3.096  0.00  0.00     0.262 C 
HETATM    7  C   UNK N   1      32.437  16.242   6.336  0.00  0.00     0.214 C 
HETATM    8  C   UNK N   1      30.903  14.363   5.599  0.00  0.00     0.051 C 
HETATM    9  C   UNK N   1      30.256  16.708   5.730  0.00  0.00    -0.001 A 
HETATM   10  C   UNK N   1      32.079  17.400   3.541  0.00  0.00     0.049 C 
HETATM   11  C   UNK N   1      29.082  16.628   3.530  0.00  0.00     0.078 C 
HETATM   12  C   UNK N   1      29.655  13.962   4.803  0.00  0.00     0.273 C 
HETATM   13  C   UNK N   1      29.142  17.044   4.983  0.00  0.00    -0.046 A 
HETATM   14  C   UNK N   1      33.351  17.748   4.325  0.00  0.00     0.084 C 
HETATM   15  C   UNK N   1      33.397  17.276   5.766  0.00  0.00     0.157 C 
HETATM   16  C   UNK N   1      30.489  17.167   6.970  0.00  0.00     0.111 A 
HETATM   17  C   UNK N   1      30.589  13.260   2.713  0.00  0.00     0.310 C 
HETATM   18  C   UNK N   1      28.168  17.855   5.590  0.00  0.00     0.011 A 
HETATM   19  C   UNK N   1      29.533  17.942   7.636  0.00  0.00     0.102 A 
HETATM   20  C   UNK N   1      28.346  18.274   6.932  0.00  0.00     0.040 A 
ENDROOT
BRANCH   5  21
HETATM   21  O   UNK N   1      32.604  15.087   3.389  0.00  0.00    -0.386 OA
HETATM   22  H   UNK N   1      33.436  15.365   2.978  0.00  0.00     0.210 HD
ENDBRANCH   5  21
BRANCH  19  23
HETATM   23  O   UNK N   1      29.756  18.345   8.908  0.00  0.00    -0.353 OA
HETATM   24  C   UNK N   1      29.209  17.709   9.999  0.00  0.00     0.210 C 
ENDBRANCH  19  23
TORSDOF 2
ENDMDL
MODEL 3
REMARK VINA RESULT:      -6.5     12.886     15.814
REMARK  2 active torsions:
REMARK  status: ('A' for Active; 'I' for Inactive)
REMARK    1  A    between atoms: C_7  and  O_2 
REMARK    2  A    between atoms: O_4  and  C_21 
ROOT
HETATM    1  O   UNK N   1      27.006  24.087  -3.723  0.00  0.00    -0.334 OA
HETATM    2  O   UNK N   1      25.345  23.441  -5.969  0.00  0.00    -0.295 OA
HETATM    3  N   UNK N   1      27.494  29.196  -3.932  0.00  0.00     0.092 N 
HETATM    4  C   UNK N   1      26.884  26.353  -4.299  0.00  0.00     0.058 C 
HETATM    5  C   UNK N   1      26.818  27.309  -5.490  0.00  0.00     0.104 C 
HETATM    6  C   UNK N   1      27.847  28.464  -5.173  0.00  0.00     0.262 C 
HETATM    7  C   UNK N   1      26.135  24.983  -4.361  0.00  0.00     0.214 C 
HETATM    8  C   UNK N   1      26.478  27.103  -3.015  0.00  0.00     0.051 C 
HETATM    9  C   UNK N   1      28.259  25.863  -4.121  0.00  0.00    -0.001 A 
HETATM   10  C   UNK N   1      27.181  26.543  -6.761  0.00  0.00     0.049 C 
HETATM   11  C   UNK N   1      29.315  27.941  -5.009  0.00  0.00     0.078 C 
HETATM   12  C   UNK N   1      27.362  28.330  -2.753  0.00  0.00     0.273 C 
HETATM   13  C   UNK N   1      29.417  26.586  -4.345  0.00  0.00    -0.046 A 
HETATM   14  C   UNK N   1      26.249  25.348  -7.007  0.00  0.00     0.084 C 
HETATM   15  C   UNK N   1      25.894  24.516  -5.790  0.00  0.00     0.157 C 
HETATM   16  C   UNK N   1      28.247  24.589  -3.696  0.00  0.00     0.111 A 
HETATM   17  C   UNK N   1      26.297  30.016  -4.078  0.00  0.00     0.310 C 
HETATM   18  C   UNK N   1      30.642  25.970  -4.041  0.00  0.00     0.011 A 
HETATM   19  C   UNK N   1      29.435  23.943  -3.339  0.00  0.00     0.102 A 
HETATM   20  C   UNK N   1      30.650  24.660  -3.502  0.00  0.00     0.040 A 
ENDROOT
BRANCH   5  21
HETATM   21  O   UNK N   1      25.521  27.819  -5.636  0.00  0.00    -0.386 OA
HETATM   22  H   UNK N   1      25.220  28.319  -6.409  0.00  0.00     0.210 HD
ENDBRANCH   5  21
BRANCH  19  23
HETATM   23  O   UNK N   1      29.399  22.680  -2.855  0.00  0.00    -0.353 OA
HETATM   24  C   UNK N   1      30.293  21.708  -3.243  0.00  0.00     0.210 C 
ENDBRANCH  19  23
TORSDOF 2
ENDMDL
MODEL 4
REMARK VINA RESULT:      -6.4      8.940     10.846
REMARK  2 active torsions:
REMARK  status: ('A' for Active; 'I' for Inactive)
REMARK    1  A    between atoms: C_7  and  O_2 
REMARK    2  A    between atoms: O_4  and  C_21 
ROOT
HETATM    1  O   UNK N   1      20.459  13.304   9.368  0.00  0.00    -0.334 OA
HETATM    2  O   UNK N   1      21.995  12.264  11.553  0.00  0.00    -0.295 OA
HETATM    3  N   UNK N   1      23.384  12.443   5.235  0.00  0.00     0.092 N 
HETATM    4  C   UNK N   1      22.162  12.679   7.888  0.00  0.00     0.058 C 
HETATM    5  C   UNK N   1      23.680  12.556   7.754  0.00  0.00     0.104 C 
HETATM    6  C   UNK N   1      24.040  13.176   6.346  0.00  0.00     0.262 C 
HETATM    7  C   UNK N   1      21.473  12.342   9.249  0.00  0.00     0.214 C 
HETATM    8  C   UNK N   1      21.480  11.885   6.756  0.00  0.00     0.051 C 
HETATM    9  C   UNK N   1      21.756  14.087   7.759  0.00  0.00    -0.001 A 
HETATM   10  C   UNK N   1      24.341  13.312   8.904  0.00  0.00     0.049 C 
HETATM   11  C   UNK N   1      23.628  14.682   6.222  0.00  0.00     0.078 C 
HETATM   12  C   UNK N   1      21.924  12.355   5.365  0.00  0.00     0.273 C 
HETATM   13  C   UNK N   1      22.340  15.031   6.935  0.00  0.00    -0.046 A 
HETATM   14  C   UNK N   1      23.902  12.785  10.277  0.00  0.00     0.084 C 
HETATM   15  C   UNK N   1      22.426  12.470  10.430  0.00  0.00     0.157 C 
HETATM   16  C   UNK N   1      20.713  14.345   8.565  0.00  0.00     0.111 A 
HETATM   17  C   UNK N   1      23.941  11.111   5.027  0.00  0.00     0.310 C 
HETATM   18  C   UNK N   1      21.760  16.310   6.889  0.00  0.00     0.011 A 
HETATM   19  C   UNK N   1      20.071  15.587   8.528  0.00  0.00     0.102 A 
HETATM   20  C   UNK N   1      20.601  16.577   7.659  0.00  0.00     0.040 A 
ENDROOT
BRANCH   5  21
HETATM   21  O   UNK N   1      24.070  11.213   7.825  0.00  0.00    -0.386 OA
HETATM   22  H   UNK N   1      23.687  10.508   7.281  0.00  0.00     0.210 HD
ENDBRANCH   5  21
BRANCH  19  23
HETATM   23  O   UNK N   1      18.984  15.810   9.302  0.00  0.00    -0.353 OA
HETATM   24  C   UNK N   1      18.178  16.916   9.153  0.00  0.00     0.210 C 
ENDBRANCH  19  23
TORSDOF 2
ENDMDL
MODEL 5
REMARK VINA RESULT:      -6.4      2.109      4.053
REMARK  2 active torsions:
REMARK  status: ('A' for Active; 'I' for Inactive)
REMARK    1  A    between atoms: C_7  and  O_2 
REMARK    2  A    between atoms: O_4  and  C_21 
ROOT
HETATM    1  O   UNK N   1      31.073  16.066   8.062  0.00  0.00    -0.334 OA
HETATM    2  O   UNK N   1      33.594  16.865   9.170  0.00  0.00    -0.295 OA
HETATM    3  N   UNK N   1      32.169  14.782   3.211  0.00  0.00     0.092 N 
HETATM    4  C   UNK N   1      32.124  15.633   6.015  0.00  0.00     0.058 C 
HETATM    5  C   UNK N   1      33.238  16.117   5.087  0.00  0.00     0.104 C 
HETATM    6  C   UNK N   1      32.615  16.132   3.635  0.00  0.00     0.262 C 
HETATM    7  C   UNK N   1      32.327  15.682   7.563  0.00  0.00     0.214 C 
HETATM    8  C   UNK N   1      31.688  14.214   5.597  0.00  0.00     0.051 C 
HETATM    9  C   UNK N   1      30.953  16.516   5.902  0.00  0.00    -0.001 A 
HETATM   10  C   UNK N   1      33.689  17.505   5.537  0.00  0.00     0.049 C 
HETATM   11  C   UNK N   1      31.384  17.093   3.513  0.00  0.00     0.078 C 
HETATM   12  C   UNK N   1      31.219  14.154   4.139  0.00  0.00     0.273 C 
HETATM   13  C   UNK N   1      30.514  17.142   4.750  0.00  0.00    -0.046 A 
HETATM   14  C   UNK N   1      34.188  17.514   6.988  0.00  0.00     0.084 C 
HETATM   15  C   UNK N   1      33.369  16.710   7.980  0.00  0.00     0.157 C 
HETATM   16  C   UNK N   1      30.347  16.638   7.094  0.00  0.00     0.111 A 
HETATM   17  C   UNK N   1      33.280  13.872   2.953  0.00  0.00     0.310 C 
HETATM   18  C   UNK N   1      29.325  17.887   4.822  0.00  0.00     0.011 A 
HETATM   19  C   UNK N   1      29.139  17.332   7.213  0.00  0.00     0.102 A 
HETATM   20  C   UNK N   1      28.616  17.951   6.047  0.00  0.00     0.040 A 
ENDROOT
BRANCH   5  21
HETATM   21  O   UNK N   1      34.338  15.252   5.151  0.00  0.00    -0.386 OA
HETATM   22  H   UNK N   1      34.681  14.871   5.973  0.00  0.00     0.210 HD
ENDBRANCH   5  21
BRANCH  19  23
HETATM   23  O   UNK N   1      28.509  17.394   8.410  0.00  0.00    -0.353 OA
HETATM   24  C   UNK N   1      28.742  18.396   9.324  0.00  0.00     0.210 C 
ENDBRANCH  19  23
TORSDOF 2
ENDMDL
MODEL 6
REMARK VINA RESULT:      -6.4      1.662      4.857
REMARK  2 active torsions:
REMARK  status: ('A' for Active; 'I' for Inactive)
REMARK    1  A    between atoms: C_7  and  O_2 
REMARK    2  A    between atoms: O_4  and  C_21 
ROOT
HETATM    1  O   UNK N   1      32.909  17.359   8.983  0.00  0.00    -0.334 OA
HETATM    2  O   UNK N   1      30.435  18.751   9.381  0.00  0.00    -0.295 OA
HETATM    3  N   UNK N   1      32.712  15.791   4.096  0.00  0.00     0.092 N 
HETATM    4  C   UNK N   1      32.291  16.916   6.769  0.00  0.00     0.058 C 
HETATM    5  C   UNK N   1      31.092  16.597   5.876  0.00  0.00     0.104 C 
HETATM    6  C   UNK N   1      31.554  15.411   4.941  0.00  0.00     0.262 C 
HETATM    7  C   UNK N   1      32.128  17.915   7.959  0.00  0.00     0.214 C 
HETATM    8  C   UNK N   1      33.483  17.349   5.893  0.00  0.00     0.051 C 
HETATM    9  C   UNK N   1      32.695  15.717   7.520  0.00  0.00    -0.001 A 
HETATM   10  C   UNK N   1      29.907  16.210   6.758  0.00  0.00     0.049 C 
HETATM   11  C   UNK N   1      31.959  14.128   5.744  0.00  0.00     0.078 C 
HETATM   12  C   UNK N   1      33.866  16.281   4.861  0.00  0.00     0.273 C 
HETATM   13  C   UNK N   1      32.649  14.414   7.059  0.00  0.00    -0.046 A 
HETATM   14  C   UNK N   1      29.530  17.320   7.749  0.00  0.00     0.084 C 
HETATM   15  C   UNK N   1      30.686  18.025   8.433  0.00  0.00     0.157 C 
HETATM   16  C   UNK N   1      33.129  16.061   8.743  0.00  0.00     0.111 A 
HETATM   17  C   UNK N   1      32.365  16.754   3.057  0.00  0.00     0.310 C 
HETATM   18  C   UNK N   1      33.154  13.406   7.896  0.00  0.00     0.011 A 
HETATM   19  C   UNK N   1      33.681  15.103   9.600  0.00  0.00     0.102 A 
HETATM   20  C   UNK N   1      33.705  13.755   9.154  0.00  0.00     0.040 A 
ENDROOT
BRANCH   5  21
HETATM   21  O   UNK N   1      30.732  17.720   5.120  0.00  0.00    -0.386 OA
HETATM   22  H   UNK N   1      31.363  18.382   4.799  0.00  0.00     0.210 HD
ENDBRANCH   5  21
BRANCH  19  23
HETATM   23  O   UNK N   1      34.170  15.475  10.806  0.00  0.00    -0.353 OA
HETATM   24  C   UNK N   1      35.394  16.086  10.957  0.00  0.00     0.210 C 
ENDBRANCH  19  23
TORSDOF 2
ENDMDL
MODEL 7
REMARK VINA RESULT:      -6.3      9.239     11.672
REMARK  2 active torsions:
REMARK  status: ('A' for Active; 'I' for Inactive)
REMARK    1  A    between atoms: C_7  and  O_2 
REMARK    2  A    between atoms: O_4  and  C_21 
ROOT
HETATM    1  O   UNK N   1      21.435  18.763   6.603  0.00  0.00    -0.334 OA
HETATM    2  O   UNK N   1      20.734  20.023   4.125  0.00  0.00    -0.295 OA
HETATM    3  N   UNK N   1      22.700  13.965   5.276  0.00  0.00     0.092 N 
HETATM    4  C   UNK N   1      21.880  16.773   5.453  0.00  0.00     0.058 C 
HETATM    5  C   UNK N   1      21.424  15.917   4.272  0.00  0.00     0.104 C 
HETATM    6  C   UNK N   1      21.371  14.433   4.811  0.00  0.00     0.262 C 
HETATM    7  C   UNK N   1      21.856  18.331   5.336  0.00  0.00     0.214 C 
HETATM    8  C   UNK N   1      23.279  16.313   5.911  0.00  0.00     0.051 C 
HETATM    9  C   UNK N   1      20.957  16.606   6.585  0.00  0.00    -0.001 A 
HETATM   10  C   UNK N   1      20.057  16.410   3.802  0.00  0.00     0.049 C 
HETATM   11  C   UNK N   1      20.368  14.254   6.000  0.00  0.00     0.078 C 
HETATM   12  C   UNK N   1      23.306  14.829   6.297  0.00  0.00     0.273 C 
HETATM   13  C   UNK N   1      20.303  15.439   6.938  0.00  0.00    -0.046 A 
HETATM   14  C   UNK N   1      20.081  17.887   3.387  0.00  0.00     0.084 C 
HETATM   15  C   UNK N   1      20.868  18.820   4.287  0.00  0.00     0.157 C 
HETATM   16  C   UNK N   1      20.828  17.763   7.254  0.00  0.00     0.111 A 
HETATM   17  C   UNK N   1      23.644  13.759   4.183  0.00  0.00     0.310 C 
HETATM   18  C   UNK N   1      19.520  15.454   8.103  0.00  0.00     0.011 A 
HETATM   19  C   UNK N   1      20.095  17.824   8.444  0.00  0.00     0.102 A 
HETATM   20  C   UNK N   1      19.445  16.638   8.879  0.00  0.00     0.040 A 
ENDROOT
BRANCH   5  21
HETATM   21  O   UNK N   1      22.326  16.031   3.206  0.00  0.00    -0.386 OA
HETATM   22  H   UNK N   1      23.255  15.759   3.251  0.00  0.00     0.210 HD
ENDBRANCH   5  21
BRANCH  19  23
HETATM   23  O   UNK N   1      20.026  18.983   9.138  0.00  0.00    -0.353 OA
HETATM   24  C   UNK N   1      19.199  19.152  10.226  0.00  0.00     0.210 C 
ENDBRANCH  19  23
TORSDOF 2
ENDMDL
MODEL 8
REMARK VINA RESULT:      -6.2      9.251     11.077
REMARK  2 active torsions:
REMARK  status: ('A' for Active; 'I' for Inactive)
REMARK    1  A    between atoms: C_7  and  O_2 
REMARK    2  A    between atoms: O_4  and  C_21 
ROOT
HETATM    1  O   UNK N   1      20.342  17.996   2.534  0.00  0.00    -0.334 OA
HETATM    2  O   UNK N   1      21.826  20.405   2.996  0.00  0.00    -0.295 OA
HETATM    3  N   UNK N   1      21.440  15.032   6.583  0.00  0.00     0.092 N 
HETATM    4  C   UNK N   1      21.175  17.113   4.536  0.00  0.00     0.058 C 
HETATM    5  C   UNK N   1      22.410  17.079   5.436  0.00  0.00     0.104 C 
HETATM    6  C   UNK N   1      22.608  15.564   5.840  0.00  0.00     0.262 C 
HETATM    7  C   UNK N   1      20.795  18.431   3.789  0.00  0.00     0.214 C 
HETATM    8  C   UNK N   1      19.952  16.597   5.322  0.00  0.00     0.051 C 
HETATM    9  C   UNK N   1      21.371  16.231   3.376  0.00  0.00    -0.001 A 
HETATM   10  C   UNK N   1      23.603  17.631   4.660  0.00  0.00     0.049 C 
HETATM   11  C   UNK N   1      22.841  14.632   4.602  0.00  0.00     0.078 C 
HETATM   12  C   UNK N   1      20.166  15.179   5.866  0.00  0.00     0.273 C 
HETATM   13  C   UNK N   1      22.053  15.028   3.373  0.00  0.00    -0.046 A 
HETATM   14  C   UNK N   1      23.365  19.065   4.167  0.00  0.00     0.084 C 
HETATM   15  C   UNK N   1      21.990  19.355   3.597  0.00  0.00     0.157 C 
HETATM   16  C   UNK N   1      20.782  16.756   2.289  0.00  0.00     0.111 A 
HETATM   17  C   UNK N   1      21.317  15.592   7.924  0.00  0.00     0.310 C 
HETATM   18  C   UNK N   1      22.066  14.285   2.181  0.00  0.00     0.011 A 
HETATM   19  C   UNK N   1      20.729  16.040   1.089  0.00  0.00     0.102 A 
HETATM   20  C   UNK N   1      21.371  14.774   1.047  0.00  0.00     0.040 A 
ENDROOT
BRANCH   5  21
HETATM   21  O   UNK N   1      22.211  17.877   6.570  0.00  0.00    -0.386 OA
HETATM   22  H   UNK N   1      22.700  18.694   6.750  0.00  0.00     0.210 HD
ENDBRANCH   5  21
BRANCH  19  23
HETATM   23  O   UNK N   1      20.079  16.557   0.020  0.00  0.00    -0.353 OA
HETATM   24  C   UNK N   1      18.793  16.201  -0.314  0.00  0.00     0.210 C 
ENDBRANCH  19  23
TORSDOF 2
ENDMDL
MODEL 9
REMARK VINA RESULT:      -6.2      2.273      4.487
REMARK  2 active torsions:
REMARK  status: ('A' for Active; 'I' for Inactive)
REMARK    1  A    between atoms: C_7  and  O_2 
REMARK    2  A    between atoms: O_4  and  C_21 
ROOT
HETATM    1  O   UNK N   1      28.648  17.877   4.183  0.00  0.00    -0.334 OA
HETATM    2  O   UNK N   1      27.522  15.699   2.699  0.00  0.00    -0.295 OA
HETATM    3  N   UNK N   1      33.220  16.125   5.737  0.00  0.00     0.092 N 
HETATM    4  C   UNK N   1      30.559  16.590   4.600  0.00  0.00     0.058 C 
HETATM    5  C   UNK N   1      31.035  15.163   4.872  0.00  0.00     0.104 C 
HETATM    6  C   UNK N   1      32.055  15.271   6.074  0.00  0.00     0.262 C 
HETATM    7  C   UNK N   1      29.387  16.839   3.597  0.00  0.00     0.214 C 
HETATM    8  C   UNK N   1      31.765  17.469   4.211  0.00  0.00     0.051 C 
HETATM    9  C   UNK N   1      29.957  17.162   5.814  0.00  0.00    -0.001 A 
HETATM   10  C   UNK N   1      29.826  14.295   5.216  0.00  0.00     0.049 C 
HETATM   11  C   UNK N   1      31.402  15.858   7.373  0.00  0.00     0.078 C 
HETATM   12  C   UNK N   1      32.853  17.476   5.291  0.00  0.00     0.273 C 
HETATM   13  C   UNK N   1      30.367  16.930   7.113  0.00  0.00    -0.046 A 
HETATM   14  C   UNK N   1      28.780  14.282   4.093  0.00  0.00     0.084 C 
HETATM   15  C   UNK N   1      28.493  15.618   3.433  0.00  0.00     0.157 C 
HETATM   16  C   UNK N   1      28.930  17.965   5.488  0.00  0.00     0.111 A 
HETATM   17  C   UNK N   1      34.111  15.510   4.761  0.00  0.00     0.310 C 
HETATM   18  C   UNK N   1      29.716  17.631   8.141  0.00  0.00     0.011 A 
HETATM   19  C   UNK N   1      28.275  18.719   6.467  0.00  0.00     0.102 A 
HETATM   20  C   UNK N   1      28.693  18.556   7.815  0.00  0.00     0.040 A 
ENDROOT
BRANCH   5  21
HETATM   21  O   UNK N   1      31.655  14.629   3.736  0.00  0.00    -0.386 OA
HETATM   22  H   UNK N   1      31.442  14.892   2.828  0.00  0.00     0.210 HD
ENDBRANCH   5  21
BRANCH  19  23
HETATM   23  O   UNK N   1      27.283  19.570   6.115  0.00  0.00    -0.353 OA
HETATM   24  C   UNK N   1      27.467  20.930   6.017  0.00  0.00     0.210 C 
ENDBRANCH  19  23
TORSDOF 2
ENDMDL
