MODEL 1
REMARK VINA RESULT:      -6.5      0.000      0.000
REMARK  1 active torsions:
REMARK  status: ('A' for Active; 'I' for Inactive)
REMARK    1  A    between atoms: C_3  and  C_8 
ROOT
HETATM    1  O   UNK N   1      29.990  26.089  -5.637  0.00  0.00    -0.291 OA
HETATM    2  O   UNK N   1      26.683  24.278  -2.833  0.00  0.00    -0.291 OA
HETATM    3  C   UNK N   1      28.639  24.669  -4.210  0.00  0.00     0.168 A 
HETATM    4  C   UNK N   1      28.996  25.924  -4.950  0.00  0.00     0.176 A 
HETATM    5  C   UNK N   1      27.340  25.017  -3.546  0.00  0.00     0.176 A 
HETATM    6  C   UNK N   1      27.957  26.920  -4.715  0.00  0.00     0.025 A 
HETATM    7  C   UNK N   1      26.987  26.389  -3.893  0.00  0.00     0.025 A 
HETATM    8  C   UNK N   1      27.869  28.223  -5.198  0.00  0.00     0.016 A 
HETATM    9  C   UNK N   1      25.874  27.131  -3.507  0.00  0.00     0.016 A 
HETATM   10  C   UNK N   1      26.755  28.992  -4.823  0.00  0.00     0.001 A 
HETATM   11  C   UNK N   1      25.762  28.449  -3.981  0.00  0.00     0.001 A 
ENDROOT
BRANCH   3  12
HETATM   12  C   UNK N   1      29.394  23.384  -4.150  0.00  0.00    -0.039 A 
HETATM   13  C   UNK N   1      29.418  22.531  -5.259  0.00  0.00     0.008 A 
HETATM   14  C   UNK N   1      30.126  21.327  -5.203  0.00  0.00     0.001 A 
HETATM   15  C   UNK N   1      30.810  20.974  -4.036  0.00  0.00     0.000 A 
HETATM   16  C   UNK N   1      30.787  21.824  -2.926  0.00  0.00     0.001 A 
HETATM   17  C   UNK N   1      30.080  23.027  -2.983  0.00  0.00     0.008 A 
ENDBRANCH   3  12
TORSDOF 1
ENDMDL
MODEL 2
REMARK VINA RESULT:      -6.3      1.336      6.037
REMARK  1 active torsions:
REMARK  status: ('A' for Active; 'I' for Inactive)
REMARK    1  A    between atoms: C_3  and  C_8 
ROOT
HETATM    1  O   UNK N   1      27.220  23.735  -2.476  0.00  0.00    -0.291 OA
HETATM    2  O   UNK N   1      29.781  25.875  -5.782  0.00  0.00    -0.291 OA
HETATM    3  C   UNK N   1      28.041  25.166  -4.251  0.00  0.00     0.168 A 
HETATM    4  C   UNK N   1      28.116  24.068  -3.233  0.00  0.00     0.176 A 
HETATM    5  C   UNK N   1      29.398  25.140  -4.888  0.00  0.00     0.176 A 
HETATM    6  C   UNK N   1      29.440  23.459  -3.294  0.00  0.00     0.025 A 
HETATM    7  C   UNK N   1      30.191  24.087  -4.264  0.00  0.00     0.025 A 
HETATM    8  C   UNK N   1      29.957  22.410  -2.538  0.00  0.00     0.016 A 
HETATM    9  C   UNK N   1      31.502  23.701  -4.533  0.00  0.00     0.016 A 
HETATM   10  C   UNK N   1      31.278  22.003  -2.791  0.00  0.00     0.001 A 
HETATM   11  C   UNK N   1      32.046  22.645  -3.784  0.00  0.00     0.001 A 
ENDROOT
BRANCH   3  12
HETATM   12  C   UNK N   1      26.892  26.067  -4.557  0.00  0.00    -0.039 A 
HETATM   13  C   UNK N   1      26.618  27.161  -3.728  0.00  0.00     0.008 A 
HETATM   14  C   UNK N   1      25.542  28.005  -4.014  0.00  0.00     0.001 A 
HETATM   15  C   UNK N   1      24.738  27.758  -5.130  0.00  0.00     0.000 A 
HETATM   16  C   UNK N   1      25.009  26.666  -5.961  0.00  0.00     0.001 A 
HETATM   17  C   UNK N   1      26.085  25.822  -5.674  0.00  0.00     0.008 A 
ENDBRANCH   3  12
TORSDOF 1
ENDMDL
MODEL 3
REMARK VINA RESULT:      -6.3     21.193     24.278
REMARK  1 active torsions:
REMARK  status: ('A' for Active; 'I' for Inactive)
REMARK    1  A    between atoms: C_3  and  C_8 
ROOT
HETATM    1  O   UNK N   1      33.893  11.005  14.548  0.00  0.00    -0.291 OA
HETATM    2  O   UNK N   1      37.014  14.468  15.129  0.00  0.00    -0.291 OA
HETATM    3  C   UNK N   1      35.443  12.647  15.429  0.00  0.00     0.168 A 
HETATM    4  C   UNK N   1      34.678  11.920  14.364  0.00  0.00     0.176 A 
HETATM    5  C   UNK N   1      36.241  13.654  14.655  0.00  0.00     0.176 A 
HETATM    6  C   UNK N   1      35.025  12.485  13.065  0.00  0.00     0.025 A 
HETATM    7  C   UNK N   1      35.941  13.501  13.235  0.00  0.00     0.025 A 
HETATM    8  C   UNK N   1      34.562  12.127  11.802  0.00  0.00     0.016 A 
HETATM    9  C   UNK N   1      36.445  14.216  12.152  0.00  0.00     0.016 A 
HETATM   10  C   UNK N   1      35.056  12.834  10.693  0.00  0.00     0.001 A 
HETATM   11  C   UNK N   1      35.993  13.873  10.867  0.00  0.00     0.001 A 
ENDROOT
BRANCH   3  12
HETATM   12  C   UNK N   1      35.418  12.423  16.904  0.00  0.00    -0.039 A 
HETATM   13  C   UNK N   1      35.720  11.161  17.427  0.00  0.00     0.008 A 
HETATM   14  C   UNK N   1      35.696  10.951  18.808  0.00  0.00     0.001 A 
HETATM   15  C   UNK N   1      35.370  12.003  19.668  0.00  0.00     0.000 A 
HETATM   16  C   UNK N   1      35.067  13.265  19.149  0.00  0.00     0.001 A 
HETATM   17  C   UNK N   1      35.091  13.475  17.768  0.00  0.00     0.008 A 
ENDBRANCH   3  12
TORSDOF 1
ENDMDL
MODEL 4
REMARK VINA RESULT:      -6.3     22.971     25.321
REMARK  1 active torsions:
REMARK  status: ('A' for Active; 'I' for Inactive)
REMARK    1  A    between atoms: C_3  and  C_8 
ROOT
HETATM    1  O   UNK N   1      34.825  13.074  14.541  0.00  0.00    -0.291 OA
HETATM    2  O   UNK N   1      35.067   8.926  16.734  0.00  0.00    -0.291 OA
HETATM    3  C   UNK N   1      34.897  10.720  15.113  0.00  0.00     0.168 A 
HETATM    4  C   UNK N   1      34.913  12.195  15.382  0.00  0.00     0.176 A 
HETATM    5  C   UNK N   1      35.034  10.118  16.479  0.00  0.00     0.176 A 
HETATM    6  C   UNK N   1      35.050  12.410  16.818  0.00  0.00     0.025 A 
HETATM    7  C   UNK N   1      35.121  11.194  17.461  0.00  0.00     0.025 A 
HETATM    8  C   UNK N   1      35.109  13.610  17.522  0.00  0.00     0.016 A 
HETATM    9  C   UNK N   1      35.255  11.108  18.844  0.00  0.00     0.016 A 
HETATM   10  C   UNK N   1      35.244  13.550  18.919  0.00  0.00     0.001 A 
HETATM   11  C   UNK N   1      35.317  12.305  19.577  0.00  0.00     0.001 A 
ENDROOT
BRANCH   3  12
HETATM   12  C   UNK N   1      34.776  10.020  13.801  0.00  0.00    -0.039 A 
HETATM   13  C   UNK N   1      35.723   9.058  13.428  0.00  0.00     0.008 A 
HETATM   14  C   UNK N   1      35.609   8.403  12.200  0.00  0.00     0.001 A 
HETATM   15  C   UNK N   1      34.548   8.707  11.342  0.00  0.00     0.000 A 
HETATM   16  C   UNK N   1      33.601   9.666  11.711  0.00  0.00     0.001 A 
HETATM   17  C   UNK N   1      33.715  10.322  12.939  0.00  0.00     0.008 A 
ENDBRANCH   3  12
TORSDOF 1
ENDMDL
MODEL 5
REMARK VINA RESULT:      -6.3     10.289     11.642
REMARK  1 active torsions:
REMARK  status: ('A' for Active; 'I' for Inactive)
REMARK    1  A    between atoms: C_3  and  C_8 
ROOT
HETATM    1  O   UNK N   1      23.549  17.060   4.829  0.00  0.00    -0.291 OA
HETATM    2  O   UNK N   1      23.384  21.270   2.749  0.00  0.00    -0.291 OA
HETATM    3  C   UNK N   1      24.043  19.252   3.919  0.00  0.00     0.168 A 
HETATM    4  C   UNK N   1      23.186  18.063   4.237  0.00  0.00     0.176 A 
HETATM    5  C   UNK N   1      23.104  20.170   3.196  0.00  0.00     0.176 A 
HETATM    6  C   UNK N   1      21.843  18.299   3.721  0.00  0.00     0.025 A 
HETATM    7  C   UNK N   1      21.794  19.534   3.111  0.00  0.00     0.025 A 
HETATM    8  C   UNK N   1      20.723  17.474   3.784  0.00  0.00     0.016 A 
HETATM    9  C   UNK N   1      20.623  20.013   2.530  0.00  0.00     0.016 A 
HETATM   10  C   UNK N   1      19.529  17.936   3.205  0.00  0.00     0.001 A 
HETATM   11  C   UNK N   1      19.480  19.199   2.581  0.00  0.00     0.001 A 
ENDROOT
BRANCH   3  12
HETATM   12  C   UNK N   1      25.482  19.469   4.245  0.00  0.00    -0.039 A 
HETATM   13  C   UNK N   1      26.454  18.593   3.749  0.00  0.00     0.008 A 
HETATM   14  C   UNK N   1      27.802  18.796   4.054  0.00  0.00     0.001 A 
HETATM   15  C   UNK N   1      28.181  19.876   4.856  0.00  0.00     0.000 A 
HETATM   16  C   UNK N   1      27.213  20.753   5.353  0.00  0.00     0.001 A 
HETATM   17  C   UNK N   1      25.865  20.550   5.048  0.00  0.00     0.008 A 
ENDBRANCH   3  12
TORSDOF 1
ENDMDL
MODEL 6
REMARK VINA RESULT:      -6.3     20.953     23.980
REMARK  1 active torsions:
REMARK  status: ('A' for Active; 'I' for Inactive)
REMARK    1  A    between atoms: C_3  and  C_8 
ROOT
HETATM    1  O   UNK N   1      36.891  14.651  14.911  0.00  0.00    -0.291 OA
HETATM    2  O   UNK N   1      34.022  10.984  14.281  0.00  0.00    -0.291 OA
HETATM    3  C   UNK N   1      35.446  12.724  15.186  0.00  0.00     0.168 A 
HETATM    4  C   UNK N   1      36.181  13.787  14.425  0.00  0.00     0.176 A 
HETATM    5  C   UNK N   1      34.744  11.952  14.109  0.00  0.00     0.176 A 
HETATM    6  C   UNK N   1      35.907  13.622  13.002  0.00  0.00     0.025 A 
HETATM    7  C   UNK N   1      35.066  12.547  12.817  0.00  0.00     0.025 A 
HETATM    8  C   UNK N   1      36.373  14.376  11.927  0.00  0.00     0.016 A 
HETATM    9  C   UNK N   1      34.642  12.164  11.547  0.00  0.00     0.016 A 
HETATM   10  C   UNK N   1      35.959  14.009  10.636  0.00  0.00     0.001 A 
HETATM   11  C   UNK N   1      35.098  12.909  10.446  0.00  0.00     0.001 A 
ENDROOT
BRANCH   3  12
HETATM   12  C   UNK N   1      35.420  12.491  16.659  0.00  0.00    -0.039 A 
HETATM   13  C   UNK N   1      35.693  11.218  17.173  0.00  0.00     0.008 A 
HETATM   14  C   UNK N   1      35.669  11.000  18.553  0.00  0.00     0.001 A 
HETATM   15  C   UNK N   1      35.371  12.054  19.421  0.00  0.00     0.000 A 
HETATM   16  C   UNK N   1      35.098  13.327  18.911  0.00  0.00     0.001 A 
HETATM   17  C   UNK N   1      35.123  13.545  17.531  0.00  0.00     0.008 A 
ENDBRANCH   3  12
TORSDOF 1
ENDMDL
MODEL 7
REMARK VINA RESULT:      -6.2     10.229     12.969
REMARK  1 active torsions:
REMARK  status: ('A' for Active; 'I' for Inactive)
REMARK    1  A    between atoms: C_3  and  C_8 
ROOT
HETATM    1  O   UNK N   1      28.714  17.238   4.243  0.00  0.00    -0.291 OA
HETATM    2  O   UNK N   1      27.154  20.166   7.569  0.00  0.00    -0.291 OA
HETATM    3  C   UNK N   1      27.517  18.906   5.531  0.00  0.00     0.168 A 
HETATM    4  C   UNK N   1      28.557  17.856   5.283  0.00  0.00     0.176 A 
HETATM    5  C   UNK N   1      27.776  19.322   6.948  0.00  0.00     0.176 A 
HETATM    6  C   UNK N   1      29.357  17.690   6.491  0.00  0.00     0.025 A 
HETATM    7  C   UNK N   1      28.900  18.549   7.467  0.00  0.00     0.025 A 
HETATM    8  C   UNK N   1      30.429  16.832   6.721  0.00  0.00     0.016 A 
HETATM    9  C   UNK N   1      29.488  18.598   8.728  0.00  0.00     0.016 A 
HETATM   10  C   UNK N   1      31.040  16.863   7.986  0.00  0.00     0.001 A 
HETATM   11  C   UNK N   1      30.571  17.741   8.985  0.00  0.00     0.001 A 
ENDROOT
BRANCH   3  12
HETATM   12  C   UNK N   1      26.473  19.415   4.594  0.00  0.00    -0.039 A 
HETATM   13  C   UNK N   1      25.139  19.018   4.746  0.00  0.00     0.008 A 
HETATM   14  C   UNK N   1      24.162  19.495   3.868  0.00  0.00     0.001 A 
HETATM   15  C   UNK N   1      24.517  20.369   2.837  0.00  0.00     0.000 A 
HETATM   16  C   UNK N   1      25.848  20.767   2.682  0.00  0.00     0.001 A 
HETATM   17  C   UNK N   1      26.825  20.290   3.560  0.00  0.00     0.008 A 
ENDBRANCH   3  12
TORSDOF 1
ENDMDL
MODEL 8
REMARK VINA RESULT:      -6.1     13.411     16.884
REMARK  1 active torsions:
REMARK  status: ('A' for Active; 'I' for Inactive)
REMARK    1  A    between atoms: C_3  and  C_8 
ROOT
HETATM    1  O   UNK N   1      32.700  14.090   8.106  0.00  0.00    -0.291 OA
HETATM    2  O   UNK N   1      34.652  18.335   8.589  0.00  0.00    -0.291 OA
HETATM    3  C   UNK N   1      33.407  16.393   7.846  0.00  0.00     0.168 A 
HETATM    4  C   UNK N   1      33.337  15.049   8.507  0.00  0.00     0.176 A 
HETATM    5  C   UNK N   1      34.314  17.175   8.749  0.00  0.00     0.176 A 
HETATM    6  C   UNK N   1      34.157  15.074   9.713  0.00  0.00     0.025 A 
HETATM    7  C   UNK N   1      34.729  16.319   9.855  0.00  0.00     0.025 A 
HETATM    8  C   UNK N   1      34.387  14.057  10.636  0.00  0.00     0.016 A 
HETATM    9  C   UNK N   1      35.565  16.618  10.927  0.00  0.00     0.016 A 
HETATM   10  C   UNK N   1      35.227  14.335  11.728  0.00  0.00     0.001 A 
HETATM   11  C   UNK N   1      35.813  15.609  11.872  0.00  0.00     0.001 A 
ENDROOT
BRANCH   3  12
HETATM   12  C   UNK N   1      32.737  16.844   6.591  0.00  0.00    -0.039 A 
HETATM   13  C   UNK N   1      33.503  17.188   5.471  0.00  0.00     0.008 A 
HETATM   14  C   UNK N   1      32.875  17.610   4.296  0.00  0.00     0.001 A 
HETATM   15  C   UNK N   1      31.481  17.689   4.239  0.00  0.00     0.000 A 
HETATM   16  C   UNK N   1      30.714  17.346   5.356  0.00  0.00     0.001 A 
HETATM   17  C   UNK N   1      31.341  16.923   6.531  0.00  0.00     0.008 A 
ENDBRANCH   3  12
TORSDOF 1
ENDMDL
MODEL 9
REMARK VINA RESULT:      -6.1     22.577     25.630
REMARK  1 active torsions:
REMARK  status: ('A' for Active; 'I' for Inactive)
REMARK    1  A    between atoms: C_3  and  C_8 
ROOT
HETATM    1  O   UNK N   1      37.455  10.001  15.664  0.00  0.00    -0.291 OA
HETATM    2  O   UNK N   1      34.084  13.261  15.942  0.00  0.00    -0.291 OA
HETATM    3  C   UNK N   1      35.609  11.419  16.338  0.00  0.00     0.168 A 
HETATM    4  C   UNK N   1      36.703  10.933  15.435  0.00  0.00     0.176 A 
HETATM    5  C   UNK N   1      35.016  12.565  15.574  0.00  0.00     0.176 A 
HETATM    6  C   UNK N   1      36.723  11.758  14.233  0.00  0.00     0.025 A 
HETATM    7  C   UNK N   1      35.735  12.714  14.314  0.00  0.00     0.025 A 
HETATM    8  C   UNK N   1      37.565  11.673  13.126  0.00  0.00     0.016 A 
HETATM    9  C   UNK N   1      35.531  13.640  13.294  0.00  0.00     0.016 A 
HETATM   10  C   UNK N   1      37.380  12.596  12.084  0.00  0.00     0.001 A 
HETATM   11  C   UNK N   1      36.368  13.575  12.167  0.00  0.00     0.001 A 
ENDROOT
BRANCH   3  12
HETATM   12  C   UNK N   1      35.208  10.891  17.674  0.00  0.00    -0.039 A 
HETATM   13  C   UNK N   1      34.600   9.635  17.779  0.00  0.00     0.008 A 
HETATM   14  C   UNK N   1      34.224   9.140  19.030  0.00  0.00     0.001 A 
HETATM   15  C   UNK N   1      34.456   9.900  20.179  0.00  0.00     0.000 A 
HETATM   16  C   UNK N   1      35.064  11.155  20.079  0.00  0.00     0.001 A 
HETATM   17  C   UNK N   1      35.439  11.650  18.827  0.00  0.00     0.008 A 
ENDBRANCH   3  12
TORSDOF 1
ENDMDL
