MODEL 1
REMARK VINA RESULT:      -5.9      0.000      0.000
REMARK  4 active torsions:
REMARK  status: ('A' for Active; 'I' for Inactive)
REMARK    1  A    between atoms: N_7  and  C_10 
REMARK       I    between atoms: N_7  and  C_11 
REMARK    2  A    between atoms: N_8  and  C_16 
REMARK    3  A    between atoms: C_9  and  C_11 
REMARK    4  A    between atoms: C_12  and  C_19 
ROOT
HETATM    1  C   UNK N   1      28.575  17.810   5.750  0.00  0.00     0.035 A 
HETATM    2  C   UNK N   1      29.495  17.734   8.013  0.00  0.00     0.083 A 
HETATM    3  C   UNK N   1      28.438  17.979   7.125  0.00  0.00     0.048 A 
HETATM    4  C   UNK N   1      30.749  17.285   7.487  0.00  0.00     0.118 A 
HETATM    5  C   UNK N   1      29.804  17.388   5.235  0.00  0.00     0.032 A 
HETATM    6  C   UNK N   1      30.872  17.128   6.093  0.00  0.00     0.039 A 
ENDROOT
BRANCH   1   7
HETATM    7  N   UNK N   1      27.435  18.034   4.928  0.00  0.00    -0.327 N 
HETATM    8  C   UNK N   1      27.075  19.202   4.333  0.00  0.00     0.225 C 
HETATM    9  O   UNK N   1      27.727  20.223   4.504  0.00  0.00    -0.273 OA
HETATM   10  H   UNK N   1      26.846  17.260   4.774  0.00  0.00     0.169 HD
BRANCH   8  11
HETATM   11  C   UNK N   1      25.847  19.216   3.456  0.00  0.00     0.070 C 
HETATM   12  C   UNK N   1      24.603  18.888   4.259  0.00  0.00     0.019 C 
HETATM   13  C   UNK N   1      25.645  20.547   2.749  0.00  0.00     0.019 C 
ENDBRANCH   8  11
ENDBRANCH   1   7
BRANCH   2  14
HETATM   14  C   UNK N   1      29.223  17.946   9.487  0.00  0.00     0.419 C 
HETATM   15  F   UNK N   1      30.009  18.975   9.973  0.00  0.00    -0.166 F 
HETATM   16  F   UNK N   1      29.524  16.806  10.216  0.00  0.00    -0.166 F 
HETATM   17  F   UNK N   1      27.884  18.232   9.688  0.00  0.00    -0.166 F 
ENDBRANCH   2  14
BRANCH   4  18
HETATM   18  N   UNK N   1      31.888  16.972   8.298  0.00  0.00    -0.115 N 
HETATM   19  O   UNK N   1      32.059  15.745   8.739  0.00  0.00    -0.532 OA
HETATM   20  O   UNK N   1      32.683  17.809   8.605  0.00  0.00    -0.532 OA
ENDBRANCH   4  18
TORSDOF 4
ENDMDL
MODEL 2
REMARK VINA RESULT:      -5.9      2.051      2.478
REMARK  4 active torsions:
REMARK  status: ('A' for Active; 'I' for Inactive)
REMARK    1  A    between atoms: N_7  and  C_10 
REMARK       I    between atoms: N_7  and  C_11 
REMARK    2  A    between atoms: N_8  and  C_16 
REMARK    3  A    between atoms: C_9  and  C_11 
REMARK    4  A    between atoms: C_12  and  C_19 
ROOT
HETATM    1  C   UNK N   1      30.125  17.401   4.949  0.00  0.00     0.035 A 
HETATM    2  C   UNK N   1      31.636  17.144   6.853  0.00  0.00     0.083 A 
HETATM    3  C   UNK N   1      30.345  17.191   6.307  0.00  0.00     0.048 A 
HETATM    4  C   UNK N   1      32.760  17.306   5.980  0.00  0.00     0.118 A 
HETATM    5  C   UNK N   1      31.221  17.576   4.100  0.00  0.00     0.032 A 
HETATM    6  C   UNK N   1      32.518  17.526   4.611  0.00  0.00     0.039 A 
ENDROOT
BRANCH   1   7
HETATM    7  N   UNK N   1      28.783  17.384   4.475  0.00  0.00    -0.327 N 
HETATM    8  C   UNK N   1      27.946  18.449   4.356  0.00  0.00     0.225 C 
HETATM    9  O   UNK N   1      28.296  19.568   4.706  0.00  0.00    -0.273 OA
HETATM   10  H   UNK N   1      28.423  16.508   4.206  0.00  0.00     0.169 HD
BRANCH   8  11
HETATM   11  C   UNK N   1      26.569  18.224   3.781  0.00  0.00     0.070 C 
HETATM   12  C   UNK N   1      25.724  17.380   4.717  0.00  0.00     0.019 C 
HETATM   13  C   UNK N   1      25.836  19.523   3.485  0.00  0.00     0.019 C 
ENDBRANCH   8  11
ENDBRANCH   1   7
BRANCH   2  14
HETATM   14  C   UNK N   1      31.749  16.902   8.342  0.00  0.00     0.419 C 
HETATM   15  F   UNK N   1      32.319  18.000   8.961  0.00  0.00    -0.166 F 
HETATM   16  F   UNK N   1      32.553  15.804   8.608  0.00  0.00    -0.166 F 
HETATM   17  F   UNK N   1      30.500  16.648   8.880  0.00  0.00    -0.166 F 
ENDBRANCH   2  14
BRANCH   4  18
HETATM   18  N   UNK N   1      34.124  17.244   6.417  0.00  0.00    -0.115 N 
HETATM   19  O   UNK N   1      34.649  18.261   7.065  0.00  0.00    -0.532 OA
HETATM   20  O   UNK N   1      34.808  16.294   6.187  0.00  0.00    -0.532 OA
ENDBRANCH   4  18
TORSDOF 4
ENDMDL
MODEL 3
REMARK VINA RESULT:      -5.8      2.794      3.405
REMARK  4 active torsions:
REMARK  status: ('A' for Active; 'I' for Inactive)
REMARK    1  A    between atoms: N_7  and  C_10 
REMARK       I    between atoms: N_7  and  C_11 
REMARK    2  A    between atoms: N_8  and  C_16 
REMARK    3  A    between atoms: C_9  and  C_11 
REMARK    4  A    between atoms: C_12  and  C_19 
ROOT
HETATM    1  C   UNK N   1      30.519  17.236   4.469  0.00  0.00     0.035 A 
HETATM    2  C   UNK N   1      31.684  17.185   6.617  0.00  0.00     0.083 A 
HETATM    3  C   UNK N   1      30.505  17.157   5.858  0.00  0.00     0.048 A 
HETATM    4  C   UNK N   1      32.940  17.287   5.937  0.00  0.00     0.118 A 
HETATM    5  C   UNK N   1      31.745  17.352   3.806  0.00  0.00     0.032 A 
HETATM    6  C   UNK N   1      32.935  17.374   4.532  0.00  0.00     0.039 A 
ENDROOT
BRANCH   1   7
HETATM    7  N   UNK N   1      29.278  17.149   3.777  0.00  0.00    -0.327 N 
HETATM    8  C   UNK N   1      28.642  16.015   3.381  0.00  0.00     0.225 C 
HETATM    9  O   UNK N   1      29.142  14.914   3.569  0.00  0.00    -0.273 OA
HETATM   10  H   UNK N   1      28.834  18.002   3.564  0.00  0.00     0.169 HD
BRANCH   8  11
HETATM   11  C   UNK N   1      27.302  16.141   2.700  0.00  0.00     0.070 C 
HETATM   12  C   UNK N   1      26.720  14.773   2.395  0.00  0.00     0.019 C 
HETATM   13  C   UNK N   1      26.297  16.935   3.521  0.00  0.00     0.019 C 
ENDBRANCH   8  11
ENDBRANCH   1   7
BRANCH   2  14
HETATM   14  C   UNK N   1      31.541  17.085   8.120  0.00  0.00     0.419 C 
HETATM   15  F   UNK N   1      32.310  16.041   8.604  0.00  0.00    -0.166 F 
HETATM   16  F   UNK N   1      30.224  16.838   8.479  0.00  0.00    -0.166 F 
HETATM   17  F   UNK N   1      31.923  18.273   8.716  0.00  0.00    -0.166 F 
ENDBRANCH   2  14
BRANCH   4  18
HETATM   18  N   UNK N   1      34.209  17.292   6.603  0.00  0.00    -0.115 N 
HETATM   19  O   UNK N   1      34.626  18.383   7.207  0.00  0.00    -0.532 OA
HETATM   20  O   UNK N   1      34.914  16.329   6.606  0.00  0.00    -0.532 OA
ENDBRANCH   4  18
TORSDOF 4
ENDMDL
MODEL 4
REMARK VINA RESULT:      -5.8     11.811     14.015
REMARK  4 active torsions:
REMARK  status: ('A' for Active; 'I' for Inactive)
REMARK    1  A    between atoms: N_7  and  C_10 
REMARK       I    between atoms: N_7  and  C_11 
REMARK    2  A    between atoms: N_8  and  C_16 
REMARK    3  A    between atoms: C_9  and  C_11 
REMARK    4  A    between atoms: C_12  and  C_19 
ROOT
HETATM    1  C   UNK N   1      28.609  24.072  -3.768  0.00  0.00     0.035 A 
HETATM    2  C   UNK N   1      28.242  26.479  -3.982  0.00  0.00     0.083 A 
HETATM    3  C   UNK N   1      29.089  25.362  -3.979  0.00  0.00     0.048 A 
HETATM    4  C   UNK N   1      26.839  26.283  -3.773  0.00  0.00     0.118 A 
HETATM    5  C   UNK N   1      27.241  23.883  -3.548  0.00  0.00     0.032 A 
HETATM    6  C   UNK N   1      26.372  24.973  -3.553  0.00  0.00     0.039 A 
ENDROOT
BRANCH   1   7
HETATM    7  N   UNK N   1      29.533  22.992  -3.831  0.00  0.00    -0.327 N 
HETATM    8  C   UNK N   1      30.309  22.522  -2.819  0.00  0.00     0.225 C 
HETATM    9  O   UNK N   1      30.297  23.053  -1.717  0.00  0.00    -0.273 OA
HETATM   10  H   UNK N   1      29.618  22.537  -4.700  0.00  0.00     0.169 HD
BRANCH   8  11
HETATM   11  C   UNK N   1      31.192  21.327  -3.082  0.00  0.00     0.070 C 
HETATM   12  C   UNK N   1      30.993  20.807  -4.493  0.00  0.00     0.019 C 
HETATM   13  C   UNK N   1      32.667  21.628  -2.868  0.00  0.00     0.019 C 
ENDBRANCH   8  11
ENDBRANCH   1   7
BRANCH   2  14
HETATM   14  C   UNK N   1      28.880  27.830  -4.229  0.00  0.00     0.419 C 
HETATM   15  F   UNK N   1      28.326  28.420  -5.350  0.00  0.00    -0.166 F 
HETATM   16  F   UNK N   1      30.243  27.702  -4.450  0.00  0.00    -0.166 F 
HETATM   17  F   UNK N   1      28.708  28.647  -3.126  0.00  0.00    -0.166 F 
ENDBRANCH   2  14
BRANCH   4  18
HETATM   18  N   UNK N   1      25.875  27.343  -3.787  0.00  0.00    -0.115 N 
HETATM   19  O   UNK N   1      25.303  27.690  -4.919  0.00  0.00    -0.532 OA
HETATM   20  O   UNK N   1      25.590  27.939  -2.793  0.00  0.00    -0.532 OA
ENDBRANCH   4  18
TORSDOF 4
ENDMDL
MODEL 5
REMARK VINA RESULT:      -5.7     11.688     13.950
REMARK  4 active torsions:
REMARK  status: ('A' for Active; 'I' for Inactive)
REMARK    1  A    between atoms: N_7  and  C_10 
REMARK       I    between atoms: N_7  and  C_11 
REMARK    2  A    between atoms: N_8  and  C_16 
REMARK    3  A    between atoms: C_9  and  C_11 
REMARK    4  A    between atoms: C_12  and  C_19 
ROOT
HETATM    1  C   UNK N   1      29.973  24.867  -3.851  0.00  0.00     0.035 A 
HETATM    2  C   UNK N   1      27.949  26.237  -3.912  0.00  0.00     0.083 A 
HETATM    3  C   UNK N   1      28.590  24.990  -3.953  0.00  0.00     0.048 A 
HETATM    4  C   UNK N   1      28.744  27.417  -3.749  0.00  0.00     0.118 A 
HETATM    5  C   UNK N   1      30.750  26.020  -3.708  0.00  0.00     0.032 A 
HETATM    6  C   UNK N   1      30.142  27.274  -3.656  0.00  0.00     0.039 A 
ENDROOT
BRANCH   1   7
HETATM    7  N   UNK N   1      30.534  23.560  -3.852  0.00  0.00    -0.327 N 
HETATM    8  C   UNK N   1      30.777  22.775  -2.769  0.00  0.00     0.225 C 
HETATM    9  O   UNK N   1      30.551  23.178  -1.636  0.00  0.00    -0.273 OA
HETATM   10  H   UNK N   1      30.771  23.184  -4.731  0.00  0.00     0.169 HD
BRANCH   8  11
HETATM   11  C   UNK N   1      31.334  21.391  -2.991  0.00  0.00     0.070 C 
HETATM   12  C   UNK N   1      30.908  20.845  -4.341  0.00  0.00     0.019 C 
HETATM   13  C   UNK N   1      32.852  21.346  -2.894  0.00  0.00     0.019 C 
ENDBRANCH   8  11
ENDBRANCH   1   7
BRANCH   2  14
HETATM   14  C   UNK N   1      26.440  26.242  -4.025  0.00  0.00     0.419 C 
HETATM   15  F   UNK N   1      25.965  24.947  -4.124  0.00  0.00    -0.166 F 
HETATM   16  F   UNK N   1      26.030  26.929  -5.158  0.00  0.00    -0.166 F 
HETATM   17  F   UNK N   1      25.882  26.871  -2.927  0.00  0.00    -0.166 F 
ENDBRANCH   2  14
BRANCH   4  18
HETATM   18  N   UNK N   1      28.200  28.739  -3.661  0.00  0.00    -0.115 N 
HETATM   19  O   UNK N   1      27.875  29.235  -2.487  0.00  0.00    -0.532 OA
HETATM   20  O   UNK N   1      28.011  29.401  -4.637  0.00  0.00    -0.532 OA
ENDBRANCH   4  18
TORSDOF 4
ENDMDL
MODEL 6
REMARK VINA RESULT:      -5.7     12.017     13.128
REMARK  4 active torsions:
REMARK  status: ('A' for Active; 'I' for Inactive)
REMARK    1  A    between atoms: N_7  and  C_10 
REMARK       I    between atoms: N_7  and  C_11 
REMARK    2  A    between atoms: N_8  and  C_16 
REMARK    3  A    between atoms: C_9  and  C_11 
REMARK    4  A    between atoms: C_12  and  C_19 
ROOT
HETATM    1  C   UNK N   1      28.725  24.494  -4.748  0.00  0.00     0.035 A 
HETATM    2  C   UNK N   1      30.103  22.481  -4.894  0.00  0.00     0.083 A 
HETATM    3  C   UNK N   1      29.017  23.259  -5.319  0.00  0.00     0.048 A 
HETATM    4  C   UNK N   1      30.942  22.981  -3.846  0.00  0.00     0.118 A 
HETATM    5  C   UNK N   1      29.534  24.975  -3.714  0.00  0.00     0.032 A 
HETATM    6  C   UNK N   1      30.627  24.227  -3.274  0.00  0.00     0.039 A 
ENDROOT
BRANCH   1   7
HETATM    7  N   UNK N   1      27.633  25.238  -5.276  0.00  0.00    -0.327 N 
HETATM    8  C   UNK N   1      26.374  25.311  -4.769  0.00  0.00     0.225 C 
HETATM    9  O   UNK N   1      26.056  24.669  -3.777  0.00  0.00    -0.273 OA
HETATM   10  H   UNK N   1      27.809  25.755  -6.095  0.00  0.00     0.169 HD
BRANCH   8  11
HETATM   11  C   UNK N   1      25.369  26.202  -5.457  0.00  0.00     0.070 C 
HETATM   12  C   UNK N   1      25.313  27.566  -4.796  0.00  0.00     0.019 C 
HETATM   13  C   UNK N   1      25.660  26.381  -6.939  0.00  0.00     0.019 C 
ENDBRANCH   8  11
ENDBRANCH   1   7
BRANCH   2  14
HETATM   14  C   UNK N   1      30.323  21.159  -5.597  0.00  0.00     0.419 C 
HETATM   15  F   UNK N   1      30.554  20.159  -4.669  0.00  0.00    -0.166 F 
HETATM   16  F   UNK N   1      31.427  21.219  -6.434  0.00  0.00    -0.166 F 
HETATM   17  F   UNK N   1      29.223  20.843  -6.374  0.00  0.00    -0.166 F 
ENDBRANCH   2  14
BRANCH   4  18
HETATM   18  N   UNK N   1      32.097  22.291  -3.352  0.00  0.00    -0.115 N 
HETATM   19  O   UNK N   1      33.181  22.219  -4.093  0.00  0.00    -0.532 OA
HETATM   20  O   UNK N   1      32.093  21.756  -2.285  0.00  0.00    -0.532 OA
ENDBRANCH   4  18
TORSDOF 4
ENDMDL
MODEL 7
REMARK VINA RESULT:      -5.6      8.161      9.858
REMARK  4 active torsions:
REMARK  status: ('A' for Active; 'I' for Inactive)
REMARK    1  A    between atoms: N_7  and  C_10 
REMARK       I    between atoms: N_7  and  C_11 
REMARK    2  A    between atoms: N_8  and  C_16 
REMARK    3  A    between atoms: C_9  and  C_11 
REMARK    4  A    between atoms: C_12  and  C_19 
ROOT
HETATM    1  C   UNK N   1      20.532  16.258   2.059  0.00  0.00     0.035 A 
HETATM    2  C   UNK N   1      21.344  17.863   3.714  0.00  0.00     0.083 A 
HETATM    3  C   UNK N   1      21.142  16.546   3.276  0.00  0.00     0.048 A 
HETATM    4  C   UNK N   1      20.918  18.942   2.874  0.00  0.00     0.118 A 
HETATM    5  C   UNK N   1      20.102  17.311   1.247  0.00  0.00     0.032 A 
HETATM    6  C   UNK N   1      20.296  18.632   1.650  0.00  0.00     0.039 A 
ENDROOT
BRANCH   1   7
HETATM    7  N   UNK N   1      20.414  14.893   1.673  0.00  0.00    -0.327 N 
HETATM    8  C   UNK N   1      21.336  14.151   1.006  0.00  0.00     0.225 C 
HETATM    9  O   UNK N   1      22.391  14.645   0.630  0.00  0.00    -0.273 OA
HETATM   10  H   UNK N   1      19.574  14.439   1.915  0.00  0.00     0.169 HD
BRANCH   8  11
HETATM   11  C   UNK N   1      21.033  12.698   0.734  0.00  0.00     0.070 C 
HETATM   12  C   UNK N   1      21.460  11.828   1.902  0.00  0.00     0.019 C 
HETATM   13  C   UNK N   1      19.562  12.448   0.442  0.00  0.00     0.019 C 
ENDBRANCH   8  11
ENDBRANCH   1   7
BRANCH   2  14
HETATM   14  C   UNK N   1      22.025  18.050   5.052  0.00  0.00     0.419 C 
HETATM   15  F   UNK N   1      21.208  18.771   5.905  0.00  0.00    -0.166 F 
HETATM   16  F   UNK N   1      23.212  18.753   4.912  0.00  0.00    -0.166 F 
HETATM   17  F   UNK N   1      22.327  16.821   5.610  0.00  0.00    -0.166 F 
ENDBRANCH   2  14
BRANCH   4  18
HETATM   18  N   UNK N   1      21.100  20.325   3.200  0.00  0.00    -0.115 N 
HETATM   19  O   UNK N   1      22.189  20.951   2.808  0.00  0.00    -0.532 OA
HETATM   20  O   UNK N   1      20.292  20.926   3.842  0.00  0.00    -0.532 OA
ENDBRANCH   4  18
TORSDOF 4
ENDMDL
MODEL 8
REMARK VINA RESULT:      -5.6      3.520      6.892
REMARK  4 active torsions:
REMARK  status: ('A' for Active; 'I' for Inactive)
REMARK    1  A    between atoms: N_7  and  C_10 
REMARK       I    between atoms: N_7  and  C_11 
REMARK    2  A    between atoms: N_8  and  C_16 
REMARK    3  A    between atoms: C_9  and  C_11 
REMARK    4  A    between atoms: C_12  and  C_19 
ROOT
HETATM    1  C   UNK N   1      27.491  19.192   6.271  0.00  0.00     0.035 A 
HETATM    2  C   UNK N   1      25.918  18.604   4.495  0.00  0.00     0.083 A 
HETATM    3  C   UNK N   1      26.752  18.248   5.564  0.00  0.00     0.048 A 
HETATM    4  C   UNK N   1      25.817  19.985   4.128  0.00  0.00     0.118 A 
HETATM    5  C   UNK N   1      27.405  20.538   5.903  0.00  0.00     0.032 A 
HETATM    6  C   UNK N   1      26.578  20.925   4.849  0.00  0.00     0.039 A 
ENDROOT
BRANCH   1   7
HETATM    7  N   UNK N   1      28.272  18.747   7.373  0.00  0.00    -0.327 N 
HETATM    8  C   UNK N   1      29.398  17.988   7.321  0.00  0.00     0.225 C 
HETATM    9  O   UNK N   1      29.829  17.572   6.254  0.00  0.00    -0.273 OA
HETATM   10  H   UNK N   1      27.964  19.018   8.268  0.00  0.00     0.169 HD
BRANCH   8  11
HETATM   11  C   UNK N   1      30.110  17.663   8.612  0.00  0.00     0.070 C 
HETATM   12  C   UNK N   1      31.613  17.795   8.449  0.00  0.00     0.019 C 
HETATM   13  C   UNK N   1      29.657  18.540   9.769  0.00  0.00     0.019 C 
ENDBRANCH   8  11
ENDBRANCH   1   7
BRANCH   2  14
HETATM   14  C   UNK N   1      25.159  17.489   3.808  0.00  0.00     0.419 C 
HETATM   15  F   UNK N   1      23.821  17.821   3.697  0.00  0.00    -0.166 F 
HETATM   16  F   UNK N   1      25.242  16.311   4.535  0.00  0.00    -0.166 F 
HETATM   17  F   UNK N   1      25.695  17.249   2.555  0.00  0.00    -0.166 F 
ENDBRANCH   2  14
BRANCH   4  18
HETATM   18  N   UNK N   1      24.974  20.472   3.077  0.00  0.00    -0.115 N 
HETATM   19  O   UNK N   1      23.736  20.827   3.343  0.00  0.00    -0.532 OA
HETATM   20  O   UNK N   1      25.363  20.544   1.950  0.00  0.00    -0.532 OA
ENDBRANCH   4  18
TORSDOF 4
ENDMDL
MODEL 9
REMARK VINA RESULT:      -5.6      6.113      9.785
REMARK  4 active torsions:
REMARK  status: ('A' for Active; 'I' for Inactive)
REMARK    1  A    between atoms: N_7  and  C_10 
REMARK       I    between atoms: N_7  and  C_11 
REMARK    2  A    between atoms: N_8  and  C_16 
REMARK    3  A    between atoms: C_9  and  C_11 
REMARK    4  A    between atoms: C_12  and  C_19 
ROOT
HETATM    1  C   UNK N   1      35.002  15.117  11.345  0.00  0.00     0.035 A 
HETATM    2  C   UNK N   1      33.701  15.458   9.304  0.00  0.00     0.083 A 
HETATM    3  C   UNK N   1      34.082  14.671  10.400  0.00  0.00     0.048 A 
HETATM    4  C   UNK N   1      34.269  16.765   9.161  0.00  0.00     0.118 A 
HETATM    5  C   UNK N   1      35.569  16.386  11.197  0.00  0.00     0.032 A 
HETATM    6  C   UNK N   1      35.204  17.196  10.121  0.00  0.00     0.039 A 
ENDROOT
BRANCH   1   7
HETATM    7  N   UNK N   1      35.292  14.272  12.452  0.00  0.00    -0.327 N 
HETATM    8  C   UNK N   1      36.375  13.464  12.600  0.00  0.00     0.225 C 
HETATM    9  O   UNK N   1      37.216  13.369  11.716  0.00  0.00    -0.273 OA
HETATM   10  H   UNK N   1      34.639  14.273  13.189  0.00  0.00     0.169 HD
BRANCH   8  11
HETATM   11  C   UNK N   1      36.521  12.680  13.881  0.00  0.00     0.070 C 
HETATM   12  C   UNK N   1      37.612  11.633  13.754  0.00  0.00     0.019 C 
HETATM   13  C   UNK N   1      36.819  13.565  15.081  0.00  0.00     0.019 C 
ENDBRANCH   8  11
ENDBRANCH   1   7
BRANCH   2  14
HETATM   14  C   UNK N   1      32.687  14.867   8.348  0.00  0.00     0.419 C 
HETATM   15  F   UNK N   1      33.226  14.779   7.077  0.00  0.00    -0.166 F 
HETATM   16  F   UNK N   1      31.554  15.663   8.271  0.00  0.00    -0.166 F 
HETATM   17  F   UNK N   1      32.293  13.615   8.785  0.00  0.00    -0.166 F 
ENDBRANCH   2  14
BRANCH   4  18
HETATM   18  N   UNK N   1      33.932  17.669   8.103  0.00  0.00    -0.115 N 
HETATM   19  O   UNK N   1      34.643  17.674   6.996  0.00  0.00    -0.532 OA
HETATM   20  O   UNK N   1      33.027  18.441   8.208  0.00  0.00    -0.532 OA
ENDBRANCH   4  18
TORSDOF 4
ENDMDL
