REMARK  4 active torsions:
REMARK  status: ('A' for Active; 'I' for Inactive)
REMARK    1  A    between atoms: N_7  and  C_10 
REMARK       I    between atoms: N_7  and  C_11 
REMARK    2  A    between atoms: N_8  and  C_16 
REMARK    3  A    between atoms: C_9  and  C_11 
REMARK    4  A    between atoms: C_12  and  C_19 
ROOT
HETATM    1  C   UNK N   1       4.821  -0.545  -0.038  0.00  0.00     0.035 A 
HETATM    2  C   UNK N   1       3.724   1.639  -0.014  0.00  0.00     0.083 A 
HETATM    3  C   UNK N   1       4.875   0.844  -0.109  0.00  0.00     0.048 A 
HETATM    4  C   UNK N   1       2.454   0.998   0.150  0.00  0.00     0.118 A 
HETATM    5  C   UNK N   1       3.583  -1.170   0.138  0.00  0.00     0.032 A 
HETATM    6  C   UNK N   1       2.419  -0.407   0.228  0.00  0.00     0.039 A 
ENDROOT
BRANCH   1   7
HETATM    7  N   UNK N   1       6.033  -1.274  -0.194  0.00  0.00    -0.327 N 
HETATM    8  C   UNK N   1       6.203  -2.615  -0.051  0.00  0.00     0.225 C 
HETATM    9  O   UNK N   1       5.272  -3.336   0.282  0.00  0.00    -0.273 OA
HETATM   10  H   UNK N   1       6.833  -0.751  -0.431  0.00  0.00     0.169 HD
BRANCH   8  11
HETATM   11  C   UNK N   1       7.569  -3.201  -0.310  0.00  0.00     0.070 C 
HETATM   12  C   UNK N   1       8.632  -2.470   0.488  0.00  0.00     0.019 C 
HETATM   13  C   UNK N   1       7.642  -4.686   0.010  0.00  0.00     0.019 C 
ENDBRANCH   8  11
ENDBRANCH   1   7
BRANCH   2  14
HETATM   14  C   UNK N   1       3.909   3.138  -0.112  0.00  0.00     0.419 C 
HETATM   15  F   UNK N   1       3.212   3.634  -1.199  0.00  0.00    -0.166 F 
HETATM   16  F   UNK N   1       5.246   3.463  -0.285  0.00  0.00    -0.166 F 
HETATM   17  F   UNK N   1       3.475   3.749   1.051  0.00  0.00    -0.166 F 
ENDBRANCH   2  14
BRANCH   4  18
HETATM   18  N   UNK N   1       1.209   1.703   0.226  0.00  0.00    -0.115 N 
HETATM   19  O   UNK N   1       0.081   1.031   0.306  0.00  0.00    -0.532 OA
HETATM   20  O   UNK N   1       1.166   2.896   0.197  0.00  0.00    -0.532 OA
ENDBRANCH   4  18
TORSDOF 4
