MODEL 1
REMARK VINA RESULT:      -6.6      0.000      0.000
REMARK  5 active torsions:
REMARK  status: ('A' for Active; 'I' for Inactive)
REMARK    1  A    between atoms: O_2  and  C_18 
REMARK    2  A    between atoms: C_5  and  C_9 
REMARK    3  A    between atoms: C_6  and  C_10 
REMARK    4  A    between atoms: C_9  and  C_18 
REMARK    5  A    between atoms: C_10  and  C_12 
ROOT
HETATM    1  N   UNK N   1      31.853  16.848   6.459  0.00  0.00    -0.351 N 
HETATM    2  C   UNK N   1      33.159  17.040   6.200  0.00  0.00     0.021 A 
HETATM    3  C   UNK N   1      31.169  17.207   5.351  0.00  0.00     0.086 A 
HETATM    4  C   UNK N   1      33.324  17.541   4.920  0.00  0.00     0.028 A 
HETATM    5  C   UNK N   1      32.052  17.642   4.377  0.00  0.00     0.036 A 
HETATM    6  C   UNK N   1      31.307  16.314   7.699  0.00  0.00     0.156 C 
ENDROOT
BRANCH   3   7
HETATM    7  C   UNK N   1      29.683  17.134   5.201  0.00  0.00     0.208 C 
HETATM    8  O   UNK N   1      29.183  16.125   4.730  0.00  0.00    -0.285 OA
BRANCH   7   9
HETATM    9  C   UNK N   1      28.791  18.271   5.574  0.00  0.00     0.016 A 
HETATM   10  C   UNK N   1      28.340  19.159   4.585  0.00  0.00     0.016 A 
HETATM   11  C   UNK N   1      27.549  20.262   4.930  0.00  0.00     0.007 A 
HETATM   12  C   UNK N   1      27.212  20.490   6.267  0.00  0.00    -0.062 A 
HETATM   13  C   UNK N   1      27.656  19.615   7.257  0.00  0.00     0.007 A 
HETATM   14  C   UNK N   1      26.388  21.670   6.639  0.00  0.00     0.048 C 
HETATM   15  C   UNK N   1      28.440  18.512   6.912  0.00  0.00     0.016 A 
ENDBRANCH   7   9
ENDBRANCH   3   7
BRANCH   2  16
HETATM   16  C   UNK N   1      34.262  16.716   7.173  0.00  0.00     0.167 C 
BRANCH  16  17
HETATM   17  C   UNK N   1      34.478  17.763   8.225  0.00  0.00     0.145 C 
HETATM   18  O   UNK N   1      34.970  18.843   7.936  0.00  0.00    -0.650 OA
BRANCH  17  19
HETATM   19  O   UNK N   1      34.153  17.497   9.503  0.00  0.00    -0.776 OA
HETATM   20  H   UNK N   1      33.499  16.971   9.920  0.00  0.00     0.167 HD
ENDBRANCH  17  19
ENDBRANCH  16  17
ENDBRANCH   2  16
TORSDOF 5
ENDMDL
MODEL 2
REMARK VINA RESULT:      -6.5      1.852      2.467
REMARK  5 active torsions:
REMARK  status: ('A' for Active; 'I' for Inactive)
REMARK    1  A    between atoms: O_2  and  C_18 
REMARK    2  A    between atoms: C_5  and  C_9 
REMARK    3  A    between atoms: C_6  and  C_10 
REMARK    4  A    between atoms: C_9  and  C_18 
REMARK    5  A    between atoms: C_10  and  C_12 
ROOT
HETATM    1  N   UNK N   1      30.841  17.691   8.109  0.00  0.00    -0.351 N 
HETATM    2  C   UNK N   1      32.031  17.097   7.905  0.00  0.00     0.021 A 
HETATM    3  C   UNK N   1      29.950  17.091   7.290  0.00  0.00     0.086 A 
HETATM    4  C   UNK N   1      31.915  16.114   6.938  0.00  0.00     0.028 A 
HETATM    5  C   UNK N   1      30.584  16.107   6.550  0.00  0.00     0.036 A 
HETATM    6  C   UNK N   1      30.581  18.756   9.066  0.00  0.00     0.156 C 
ENDROOT
BRANCH   3   7
HETATM    7  C   UNK N   1      28.497  17.434   7.207  0.00  0.00     0.208 C 
HETATM    8  O   UNK N   1      27.735  16.996   8.054  0.00  0.00    -0.285 OA
BRANCH   7   9
HETATM    9  C   UNK N   1      27.940  18.266   6.100  0.00  0.00     0.016 A 
HETATM   10  C   UNK N   1      27.774  19.648   6.280  0.00  0.00     0.016 A 
HETATM   11  C   UNK N   1      27.200  20.431   5.271  0.00  0.00     0.007 A 
HETATM   12  C   UNK N   1      26.777  19.835   4.079  0.00  0.00    -0.062 A 
HETATM   13  C   UNK N   1      26.935  18.462   3.892  0.00  0.00     0.007 A 
HETATM   14  C   UNK N   1      26.150  20.659   3.013  0.00  0.00     0.048 C 
HETATM   15  C   UNK N   1      27.513  17.684   4.896  0.00  0.00     0.016 A 
ENDBRANCH   7   9
ENDBRANCH   3   7
BRANCH   2  16
HETATM   16  C   UNK N   1      33.283  17.452   8.662  0.00  0.00     0.167 C 
BRANCH  16  17
HETATM   17  C   UNK N   1      34.276  18.246   7.865  0.00  0.00     0.145 C 
HETATM   18  O   UNK N   1      34.949  19.116   8.398  0.00  0.00    -0.650 OA
BRANCH  17  19
HETATM   19  O   UNK N   1      34.407  18.014   6.546  0.00  0.00    -0.776 OA
HETATM   20  H   UNK N   1      34.807  17.339   6.033  0.00  0.00     0.167 HD
ENDBRANCH  17  19
ENDBRANCH  16  17
ENDBRANCH   2  16
TORSDOF 5
ENDMDL
MODEL 3
REMARK VINA RESULT:      -6.4      2.906      7.013
REMARK  5 active torsions:
REMARK  status: ('A' for Active; 'I' for Inactive)
REMARK    1  A    between atoms: O_2  and  C_18 
REMARK    2  A    between atoms: C_5  and  C_9 
REMARK    3  A    between atoms: C_6  and  C_10 
REMARK    4  A    between atoms: C_9  and  C_18 
REMARK    5  A    between atoms: C_10  and  C_12 
ROOT
HETATM    1  N   UNK N   1      27.498  18.881   4.852  0.00  0.00    -0.351 N 
HETATM    2  C   UNK N   1      26.976  20.089   4.571  0.00  0.00     0.021 A 
HETATM    3  C   UNK N   1      27.851  18.892   6.156  0.00  0.00     0.086 A 
HETATM    4  C   UNK N   1      27.003  20.894   5.697  0.00  0.00     0.028 A 
HETATM    5  C   UNK N   1      27.556  20.127   6.709  0.00  0.00     0.036 A 
HETATM    6  C   UNK N   1      27.615  17.772   3.916  0.00  0.00     0.156 C 
ENDROOT
BRANCH   3   7
HETATM    7  C   UNK N   1      28.457  17.738   6.888  0.00  0.00     0.208 C 
HETATM    8  O   UNK N   1      27.723  16.911   7.405  0.00  0.00    -0.285 OA
BRANCH   7   9
HETATM    9  C   UNK N   1      29.934  17.583   7.043  0.00  0.00     0.016 A 
HETATM   10  C   UNK N   1      30.541  17.868   8.276  0.00  0.00     0.016 A 
HETATM   11  C   UNK N   1      31.931  17.781   8.418  0.00  0.00     0.007 A 
HETATM   12  C   UNK N   1      32.725  17.420   7.325  0.00  0.00    -0.062 A 
HETATM   13  C   UNK N   1      32.131  17.137   6.096  0.00  0.00     0.007 A 
HETATM   14  C   UNK N   1      34.202  17.345   7.468  0.00  0.00     0.048 C 
HETATM   15  C   UNK N   1      30.745  17.218   5.957  0.00  0.00     0.016 A 
ENDBRANCH   7   9
ENDBRANCH   3   7
BRANCH   2  16
HETATM   16  C   UNK N   1      26.421  20.467   3.224  0.00  0.00     0.167 C 
BRANCH  16  17
HETATM   17  C   UNK N   1      24.931  20.324   3.112  0.00  0.00     0.145 C 
HETATM   18  O   UNK N   1      24.307  20.955   2.274  0.00  0.00    -0.650 OA
BRANCH  17  19
HETATM   19  O   UNK N   1      24.277  19.512   3.963  0.00  0.00    -0.776 OA
HETATM   20  H   UNK N   1      23.532  18.949   3.893  0.00  0.00     0.167 HD
ENDBRANCH  17  19
ENDBRANCH  16  17
ENDBRANCH   2  16
TORSDOF 5
ENDMDL
MODEL 4
REMARK VINA RESULT:      -6.3      5.470      9.230
REMARK  5 active torsions:
REMARK  status: ('A' for Active; 'I' for Inactive)
REMARK    1  A    between atoms: O_2  and  C_18 
REMARK    2  A    between atoms: C_5  and  C_9 
REMARK    3  A    between atoms: C_6  and  C_10 
REMARK    4  A    between atoms: C_9  and  C_18 
REMARK    5  A    between atoms: C_10  and  C_12 
ROOT
HETATM    1  N   UNK N   1      34.906  15.749  10.150  0.00  0.00    -0.351 N 
HETATM    2  C   UNK N   1      33.992  15.968   9.187  0.00  0.00     0.021 A 
HETATM    3  C   UNK N   1      35.152  14.421  10.173  0.00  0.00     0.086 A 
HETATM    4  C   UNK N   1      33.633  14.772   8.589  0.00  0.00     0.028 A 
HETATM    5  C   UNK N   1      34.379  13.786   9.216  0.00  0.00     0.036 A 
HETATM    6  C   UNK N   1      35.526  16.775  10.976  0.00  0.00     0.156 C 
ENDROOT
BRANCH   3   7
HETATM    7  C   UNK N   1      36.123  13.746  11.088  0.00  0.00     0.208 C 
HETATM    8  O   UNK N   1      37.208  13.398  10.650  0.00  0.00    -0.285 OA
BRANCH   7   9
HETATM    9  C   UNK N   1      35.795  13.449  12.513  0.00  0.00     0.016 A 
HETATM   10  C   UNK N   1      36.435  14.160  13.541  0.00  0.00     0.016 A 
HETATM   11  C   UNK N   1      36.179  13.852  14.882  0.00  0.00     0.007 A 
HETATM   12  C   UNK N   1      35.289  12.823  15.206  0.00  0.00    -0.062 A 
HETATM   13  C   UNK N   1      34.650  12.110  14.193  0.00  0.00     0.007 A 
HETATM   14  C   UNK N   1      35.029  12.481  16.628  0.00  0.00     0.048 C 
HETATM   15  C   UNK N   1      34.902  12.422  12.855  0.00  0.00     0.016 A 
ENDBRANCH   7   9
ENDBRANCH   3   7
BRANCH   2  16
HETATM   16  C   UNK N   1      33.479  17.333   8.815  0.00  0.00     0.167 C 
BRANCH  16  17
HETATM   17  C   UNK N   1      34.403  18.115   7.928  0.00  0.00     0.145 C 
HETATM   18  O   UNK N   1      35.008  19.084   8.360  0.00  0.00    -0.650 OA
BRANCH  17  19
HETATM   19  O   UNK N   1      34.544  17.759   6.638  0.00  0.00    -0.776 OA
HETATM   20  H   UNK N   1      34.186  17.080   6.100  0.00  0.00     0.167 HD
ENDBRANCH  17  19
ENDBRANCH  16  17
ENDBRANCH   2  16
TORSDOF 5
ENDMDL
MODEL 5
REMARK VINA RESULT:      -6.2      4.405      8.043
REMARK  5 active torsions:
REMARK  status: ('A' for Active; 'I' for Inactive)
REMARK    1  A    between atoms: O_2  and  C_18 
REMARK    2  A    between atoms: C_5  and  C_9 
REMARK    3  A    between atoms: C_6  and  C_10 
REMARK    4  A    between atoms: C_9  and  C_18 
REMARK    5  A    between atoms: C_10  and  C_12 
ROOT
HETATM    1  N   UNK N   1      24.939  18.612   3.888  0.00  0.00    -0.351 N 
HETATM    2  C   UNK N   1      24.186  19.616   3.402  0.00  0.00     0.021 A 
HETATM    3  C   UNK N   1      26.230  18.998   3.790  0.00  0.00     0.086 A 
HETATM    4  C   UNK N   1      24.994  20.655   2.974  0.00  0.00     0.028 A 
HETATM    5  C   UNK N   1      26.299  20.261   3.228  0.00  0.00     0.036 A 
HETATM    6  C   UNK N   1      24.430  17.367   4.444  0.00  0.00     0.156 C 
ENDROOT
BRANCH   3   7
HETATM    7  C   UNK N   1      27.402  18.183   4.235  0.00  0.00     0.208 C 
HETATM    8  O   UNK N   1      27.874  17.356   3.471  0.00  0.00    -0.285 OA
BRANCH   7   9
HETATM    9  C   UNK N   1      27.994  18.321   5.598  0.00  0.00     0.016 A 
HETATM   10  C   UNK N   1      28.989  17.426   6.022  0.00  0.00     0.016 A 
HETATM   11  C   UNK N   1      29.512  17.509   7.317  0.00  0.00     0.007 A 
HETATM   12  C   UNK N   1      29.036  18.480   8.203  0.00  0.00    -0.062 A 
HETATM   13  C   UNK N   1      28.047  19.373   7.792  0.00  0.00     0.007 A 
HETATM   14  C   UNK N   1      29.576  18.559   9.585  0.00  0.00     0.048 C 
HETATM   15  C   UNK N   1      27.531  19.293   6.498  0.00  0.00     0.016 A 
ENDBRANCH   7   9
ENDBRANCH   3   7
BRANCH   2  16
HETATM   16  C   UNK N   1      22.681  19.595   3.374  0.00  0.00     0.167 C 
BRANCH  16  17
HETATM   17  C   UNK N   1      22.072  20.597   2.439  0.00  0.00     0.145 C 
HETATM   18  O   UNK N   1      21.909  20.328   1.258  0.00  0.00    -0.650 OA
BRANCH  17  19
HETATM   19  O   UNK N   1      21.726  21.812   2.901  0.00  0.00    -0.776 OA
HETATM   20  H   UNK N   1      21.887  22.692   2.622  0.00  0.00     0.167 HD
ENDBRANCH  17  19
ENDBRANCH  16  17
ENDBRANCH   2  16
TORSDOF 5
ENDMDL
MODEL 6
REMARK VINA RESULT:      -6.2     10.258     11.951
REMARK  5 active torsions:
REMARK  status: ('A' for Active; 'I' for Inactive)
REMARK    1  A    between atoms: O_2  and  C_18 
REMARK    2  A    between atoms: C_5  and  C_9 
REMARK    3  A    between atoms: C_6  and  C_10 
REMARK    4  A    between atoms: C_9  and  C_18 
REMARK    5  A    between atoms: C_10  and  C_12 
ROOT
HETATM    1  N   UNK N   1      20.071  16.584   5.176  0.00  0.00    -0.351 N 
HETATM    2  C   UNK N   1      20.736  17.504   4.454  0.00  0.00     0.021 A 
HETATM    3  C   UNK N   1      20.381  16.796   6.474  0.00  0.00     0.086 A 
HETATM    4  C   UNK N   1      21.493  18.310   5.287  0.00  0.00     0.028 A 
HETATM    5  C   UNK N   1      21.260  17.860   6.577  0.00  0.00     0.036 A 
HETATM    6  C   UNK N   1      19.164  15.580   4.638  0.00  0.00     0.156 C 
ENDROOT
BRANCH   3   7
HETATM    7  C   UNK N   1      19.842  16.003   7.622  0.00  0.00     0.208 C 
HETATM    8  O   UNK N   1      18.730  16.263   8.052  0.00  0.00    -0.285 OA
BRANCH   7   9
HETATM    9  C   UNK N   1      20.637  14.929   8.287  0.00  0.00     0.016 A 
HETATM   10  C   UNK N   1      21.747  14.373   7.631  0.00  0.00     0.016 A 
HETATM   11  C   UNK N   1      22.466  13.326   8.219  0.00  0.00     0.007 A 
HETATM   12  C   UNK N   1      22.074  12.819   9.462  0.00  0.00    -0.062 A 
HETATM   13  C   UNK N   1      20.972  13.363  10.120  0.00  0.00     0.007 A 
HETATM   14  C   UNK N   1      22.825  11.696  10.080  0.00  0.00     0.048 C 
HETATM   15  C   UNK N   1      20.259  14.411   9.536  0.00  0.00     0.016 A 
ENDBRANCH   7   9
ENDBRANCH   3   7
BRANCH   2  16
HETATM   16  C   UNK N   1      20.625  17.633   2.958  0.00  0.00     0.167 C 
BRANCH  16  17
HETATM   17  C   UNK N   1      19.733  18.750   2.503  0.00  0.00     0.145 C 
HETATM   18  O   UNK N   1      20.203  19.834   2.193  0.00  0.00    -0.650 OA
BRANCH  17  19
HETATM   19  O   UNK N   1      18.401  18.562   2.464  0.00  0.00    -0.776 OA
HETATM   20  H   UNK N   1      17.724  18.777   1.852  0.00  0.00     0.167 HD
ENDBRANCH  17  19
ENDBRANCH  16  17
ENDBRANCH   2  16
TORSDOF 5
ENDMDL
MODEL 7
REMARK VINA RESULT:      -6.2      3.354      7.370
REMARK  5 active torsions:
REMARK  status: ('A' for Active; 'I' for Inactive)
REMARK    1  A    between atoms: O_2  and  C_18 
REMARK    2  A    between atoms: C_5  and  C_9 
REMARK    3  A    between atoms: C_6  and  C_10 
REMARK    4  A    between atoms: C_9  and  C_18 
REMARK    5  A    between atoms: C_10  and  C_12 
ROOT
HETATM    1  N   UNK N   1      26.235  18.320   5.140  0.00  0.00    -0.351 N 
HETATM    2  C   UNK N   1      25.625  19.412   4.645  0.00  0.00     0.021 A 
HETATM    3  C   UNK N   1      27.234  18.750   5.943  0.00  0.00     0.086 A 
HETATM    4  C   UNK N   1      26.240  20.558   5.119  0.00  0.00     0.028 A 
HETATM    5  C   UNK N   1      27.263  20.134   5.951  0.00  0.00     0.036 A 
HETATM    6  C   UNK N   1      25.849  16.942   4.874  0.00  0.00     0.156 C 
ENDROOT
BRANCH   3   7
HETATM    7  C   UNK N   1      28.157  17.859   6.711  0.00  0.00     0.208 C 
HETATM    8  O   UNK N   1      27.770  17.365   7.758  0.00  0.00    -0.285 OA
BRANCH   7   9
HETATM    9  C   UNK N   1      29.553  17.585   6.260  0.00  0.00     0.016 A 
HETATM   10  C   UNK N   1      30.549  17.296   7.206  0.00  0.00     0.016 A 
HETATM   11  C   UNK N   1      31.874  17.091   6.802  0.00  0.00     0.007 A 
HETATM   12  C   UNK N   1      32.214  17.186   5.449  0.00  0.00    -0.062 A 
HETATM   13  C   UNK N   1      31.232  17.474   4.502  0.00  0.00     0.007 A 
HETATM   14  C   UNK N   1      33.622  16.988   5.018  0.00  0.00     0.048 C 
HETATM   15  C   UNK N   1      29.911  17.672   4.906  0.00  0.00     0.016 A 
ENDBRANCH   7   9
ENDBRANCH   3   7
BRANCH   2  16
HETATM   16  C   UNK N   1      24.427  19.360   3.735  0.00  0.00     0.167 C 
BRANCH  16  17
HETATM   17  C   UNK N   1      24.268  20.569   2.861  0.00  0.00     0.145 C 
HETATM   18  O   UNK N   1      23.312  21.316   2.999  0.00  0.00    -0.650 OA
BRANCH  17  19
HETATM   19  O   UNK N   1      25.176  20.815   1.899  0.00  0.00    -0.776 OA
HETATM   20  H   UNK N   1      25.690  21.560   1.655  0.00  0.00     0.167 HD
ENDBRANCH  17  19
ENDBRANCH  16  17
ENDBRANCH   2  16
TORSDOF 5
ENDMDL
MODEL 8
REMARK VINA RESULT:      -6.1     12.262     15.180
REMARK  5 active torsions:
REMARK  status: ('A' for Active; 'I' for Inactive)
REMARK    1  A    between atoms: O_2  and  C_18 
REMARK    2  A    between atoms: C_5  and  C_9 
REMARK    3  A    between atoms: C_6  and  C_10 
REMARK    4  A    between atoms: C_9  and  C_18 
REMARK    5  A    between atoms: C_10  and  C_12 
ROOT
HETATM    1  N   UNK N   1      35.603  11.695  17.152  0.00  0.00    -0.351 N 
HETATM    2  C   UNK N   1      35.379  12.905  16.609  0.00  0.00     0.021 A 
HETATM    3  C   UNK N   1      35.463  11.825  18.490  0.00  0.00     0.086 A 
HETATM    4  C   UNK N   1      35.106  13.831  17.601  0.00  0.00     0.028 A 
HETATM    5  C   UNK N   1      35.154  13.139  18.801  0.00  0.00     0.036 A 
HETATM    6  C   UNK N   1      35.901  10.478  16.411  0.00  0.00     0.156 C 
ENDROOT
BRANCH   3   7
HETATM    7  C   UNK N   1      35.611  10.713  19.478  0.00  0.00     0.208 C 
HETATM    8  O   UNK N   1      36.717  10.466  19.933  0.00  0.00    -0.285 OA
BRANCH   7   9
HETATM    9  C   UNK N   1      34.456   9.868  19.901  0.00  0.00     0.016 A 
HETATM   10  C   UNK N   1      34.033   8.805  19.087  0.00  0.00     0.016 A 
HETATM   11  C   UNK N   1      32.916   8.039  19.443  0.00  0.00     0.007 A 
HETATM   12  C   UNK N   1      32.207   8.338  20.610  0.00  0.00    -0.062 A 
HETATM   13  C   UNK N   1      32.618   9.393  21.425  0.00  0.00     0.007 A 
HETATM   14  C   UNK N   1      31.011   7.540  20.982  0.00  0.00     0.048 C 
HETATM   15  C   UNK N   1      33.735  10.152  21.071  0.00  0.00     0.016 A 
ENDBRANCH   7   9
ENDBRANCH   3   7
BRANCH   2  16
HETATM   16  C   UNK N   1      35.398  13.173  15.128  0.00  0.00     0.167 C 
BRANCH  16  17
HETATM   17  C   UNK N   1      36.503  14.086  14.684  0.00  0.00     0.145 C 
HETATM   18  O   UNK N   1      36.380  14.768  13.678  0.00  0.00    -0.650 OA
BRANCH  17  19
HETATM   19  O   UNK N   1      37.649  14.130  15.387  0.00  0.00    -0.776 OA
HETATM   20  H   UNK N   1      37.874  14.371  16.264  0.00  0.00     0.167 HD
ENDBRANCH  17  19
ENDBRANCH  16  17
ENDBRANCH   2  16
TORSDOF 5
ENDMDL
MODEL 9
REMARK VINA RESULT:      -6.1      3.107      5.005
REMARK  5 active torsions:
REMARK  status: ('A' for Active; 'I' for Inactive)
REMARK    1  A    between atoms: O_2  and  C_18 
REMARK    2  A    between atoms: C_5  and  C_9 
REMARK    3  A    between atoms: C_6  and  C_10 
REMARK    4  A    between atoms: C_9  and  C_18 
REMARK    5  A    between atoms: C_10  and  C_12 
ROOT
HETATM    1  N   UNK N   1      34.766  15.387   8.997  0.00  0.00    -0.351 N 
HETATM    2  C   UNK N   1      35.396  15.214  10.173  0.00  0.00     0.021 A 
HETATM    3  C   UNK N   1      34.551  16.713   8.851  0.00  0.00     0.086 A 
HETATM    4  C   UNK N   1      35.579  16.433  10.801  0.00  0.00     0.028 A 
HETATM    5  C   UNK N   1      35.044  17.390   9.954  0.00  0.00     0.036 A 
HETATM    6  C   UNK N   1      34.425  14.330   8.056  0.00  0.00     0.156 C 
ENDROOT
BRANCH   3   7
HETATM    7  C   UNK N   1      33.890  17.348   7.670  0.00  0.00     0.208 C 
HETATM    8  O   UNK N   1      34.582  17.887   6.821  0.00  0.00    -0.285 OA
BRANCH   7   9
HETATM    9  C   UNK N   1      32.406  17.378   7.512  0.00  0.00     0.016 A 
HETATM   10  C   UNK N   1      31.825  17.004   6.289  0.00  0.00     0.016 A 
HETATM   11  C   UNK N   1      30.439  17.082   6.110  0.00  0.00     0.007 A 
HETATM   12  C   UNK N   1      29.624  17.545   7.147  0.00  0.00    -0.062 A 
HETATM   13  C   UNK N   1      30.191  17.920   8.365  0.00  0.00     0.007 A 
HETATM   14  C   UNK N   1      28.154  17.646   6.954  0.00  0.00     0.048 C 
HETATM   15  C   UNK N   1      31.573  17.837   8.544  0.00  0.00     0.016 A 
ENDBRANCH   7   9
ENDBRANCH   3   7
BRANCH   2  16
HETATM   16  C   UNK N   1      35.853  13.875  10.687  0.00  0.00     0.167 C 
BRANCH  16  17
HETATM   17  C   UNK N   1      35.852  13.760  12.183  0.00  0.00     0.145 C 
HETATM   18  O   UNK N   1      34.803  13.648  12.798  0.00  0.00    -0.650 OA
BRANCH  17  19
HETATM   19  O   UNK N   1      37.018  13.809  12.853  0.00  0.00    -0.776 OA
HETATM   20  H   UNK N   1      37.260  13.984  13.741  0.00  0.00     0.167 HD
ENDBRANCH  17  19
ENDBRANCH  16  17
ENDBRANCH   2  16
TORSDOF 5
ENDMDL
