REMARK  5 active torsions:
REMARK  status: ('A' for Active; 'I' for Inactive)
REMARK    1  A    between atoms: O_2  and  C_18 
REMARK    2  A    between atoms: C_5  and  C_9 
REMARK    3  A    between atoms: C_6  and  C_10 
REMARK    4  A    between atoms: C_9  and  C_18 
REMARK    5  A    between atoms: C_10  and  C_12 
ROOT
HETATM    1  N   UNK N   1       3.205   2.229   0.141  0.00  0.00    -0.351 N 
HETATM    2  C   UNK N   1       4.522   2.497   0.082  0.00  0.00     0.021 A 
HETATM    3  C   UNK N   1       3.054   0.911  -0.117  0.00  0.00     0.086 A 
HETATM    4  C   UNK N   1       5.230   1.349  -0.230  0.00  0.00     0.028 A 
HETATM    5  C   UNK N   1       4.292   0.336  -0.351  0.00  0.00     0.036 A 
HETATM    6  C   UNK N   1       2.160   3.190   0.462  0.00  0.00     0.156 C 
ENDROOT
BRANCH   3   7
HETATM    7  C   UNK N   1       1.746   0.187  -0.135  0.00  0.00     0.208 C 
HETATM    8  O   UNK N   1       0.710   0.833  -0.127  0.00  0.00    -0.285 OA
BRANCH   7   9
HETATM    9  C   UNK N   1       1.663  -1.303  -0.124  0.00  0.00     0.016 A 
HETATM   10  C   UNK N   1       0.411  -1.934  -0.200  0.00  0.00     0.016 A 
HETATM   11  C   UNK N   1       0.315  -3.329  -0.134  0.00  0.00     0.007 A 
HETATM   12  C   UNK N   1       1.469  -4.103   0.020  0.00  0.00    -0.062 A 
HETATM   13  C   UNK N   1       2.717  -3.486   0.098  0.00  0.00     0.007 A 
HETATM   14  C   UNK N   1       1.369  -5.583   0.109  0.00  0.00     0.048 C 
HETATM   15  C   UNK N   1       2.812  -2.095   0.026  0.00  0.00     0.016 A 
ENDBRANCH   7   9
ENDBRANCH   3   7
BRANCH   2  16
HETATM   16  C   UNK N   1       5.112   3.855   0.354  0.00  0.00     0.167 C 
BRANCH  16  17
HETATM   17  C   UNK N   1       6.586   3.947   0.091  0.00  0.00     0.145 C 
HETATM   18  O   UNK N   1       7.368   3.204   0.664  0.00  0.00    -0.650 OA
BRANCH  17  19
HETATM   19  O   UNK N   1       7.051   4.876  -0.764  0.00  0.00    -0.776 OA
HETATM   20  H   UNK N   1       7.773   4.919  -1.360  0.00  0.00     0.167 HD
ENDBRANCH  17  19
ENDBRANCH  16  17
ENDBRANCH   2  16
TORSDOF 5
