MODEL 1
REMARK VINA RESULT:      -5.4      0.000      0.000
REMARK  5 active torsions:
REMARK  status: ('A' for Active; 'I' for Inactive)
REMARK    1  A    between atoms: S_1  and  C_11 
REMARK    2  A    between atoms: S_1  and  C_12 
REMARK    3  A    between atoms: N_3  and  C_13 
REMARK       I    between atoms: N_3  and  C_17 
REMARK       I    between atoms: N_6  and  C_17 
REMARK    4  A    between atoms: C_10  and  C_11 
REMARK    5  A    between atoms: C_12  and  C_13 
ROOT
HETATM    1  N   UNK N   1      36.309  13.174  13.724  0.00  0.00    -0.225 N 
HETATM    2  N   UNK N   1      35.669  13.386  16.037  0.00  0.00    -0.126 N 
HETATM    3  N   UNK N   1      37.194  14.934  15.009  0.00  0.00    -0.230 N 
ATOM      4  HN  UNK N   1      37.678  15.207  14.154  1.00  0.00     0.177 HD
HETATM    5  N   UNK N   1      35.582  14.495  18.313  0.00  0.00    -0.171 NA
HETATM    6  C   UNK N   1      36.428  13.881  14.941  0.00  0.00     0.682 C 
HETATM    7  C   UNK N   1      37.421  15.752  16.179  0.00  0.00     0.165 C 
HETATM    8  C   UNK N   1      35.613  13.980  17.280  0.00  0.00     0.196 C 
HETATM    9  H   UNK N   1      36.072  12.220  13.755  0.00  0.00     0.177 HD
HETATM   10  H   UNK N   1      35.148  12.562  15.900  0.00  0.00     0.197 HD
ENDROOT
BRANCH   1  11
HETATM   11  C   UNK N   1      36.518  13.784  12.450  0.00  0.00     0.148 C 
BRANCH  11  12
HETATM   12  C   UNK N   1      35.223  14.359  11.951  0.00  0.00     0.094 C 
BRANCH  12  13
HETATM   13  S   UNK N   1      35.702  15.784  10.982  0.00  0.00    -0.161 SA
BRANCH  13  14
HETATM   14  C   UNK N   1      34.750  15.066   9.629  0.00  0.00     0.133 C 
BRANCH  14  15
HETATM   15  C   UNK N   1      34.405  16.212   8.814  0.00  0.00     0.041 A 
HETATM   16  N   UNK N   1      33.994  17.367   9.342  0.00  0.00    -0.353 N 
HETATM   17  C   UNK N   1      33.877  18.203   8.292  0.00  0.00     0.180 A 
ATOM     18  HN  UNK N   1      33.810  17.572  10.324  1.00  0.00     0.166 HD
HETATM   19  N   UNK N   1      34.219  17.603   7.128  0.00  0.00    -0.354 N 
HETATM   20  C   UNK N   1      34.556  16.351   7.465  0.00  0.00     0.029 A 
HETATM   21  H   UNK N   1      34.220  18.000   6.227  0.00  0.00     0.166 HD
HETATM   22  C   UNK N   1      35.059  15.325   6.503  0.00  0.00     0.070 C 
ENDBRANCH  14  15
ENDBRANCH  13  14
ENDBRANCH  12  13
ENDBRANCH  11  12
ENDBRANCH   1  11
TORSDOF 5
ENDMDL
MODEL 2
REMARK VINA RESULT:      -5.3      3.621      5.735
REMARK  5 active torsions:
REMARK  status: ('A' for Active; 'I' for Inactive)
REMARK    1  A    between atoms: S_1  and  C_11 
REMARK    2  A    between atoms: S_1  and  C_12 
REMARK    3  A    between atoms: N_3  and  C_13 
REMARK       I    between atoms: N_3  and  C_17 
REMARK       I    between atoms: N_6  and  C_17 
REMARK    4  A    between atoms: C_10  and  C_11 
REMARK    5  A    between atoms: C_12  and  C_13 
ROOT
HETATM    1  N   UNK N   1      34.129  17.125   9.714  0.00  0.00    -0.225 N 
HETATM    2  N   UNK N   1      34.959  15.939  11.639  0.00  0.00    -0.126 N 
HETATM    3  N   UNK N   1      35.658  15.364   9.413  0.00  0.00    -0.230 N 
ATOM      4  HN  UNK N   1      35.586  15.580   8.418  1.00  0.00     0.177 HD
HETATM    5  N   UNK N   1      36.411  14.265  12.867  0.00  0.00    -0.171 NA
HETATM    6  C   UNK N   1      34.951  16.097  10.227  0.00  0.00     0.682 C 
HETATM    7  C   UNK N   1      36.537  14.278   9.784  0.00  0.00     0.165 C 
HETATM    8  C   UNK N   1      35.745  15.032  12.319  0.00  0.00     0.196 C 
HETATM    9  H   UNK N   1      33.341  17.402  10.235  0.00  0.00     0.177 HD
HETATM   10  H   UNK N   1      34.363  16.516  12.169  0.00  0.00     0.197 HD
ENDROOT
BRANCH   1  11
HETATM   11  C   UNK N   1      34.389  17.779   8.471  0.00  0.00     0.148 C 
BRANCH  11  12
HETATM   12  C   UNK N   1      33.093  18.012   7.747  0.00  0.00     0.094 C 
BRANCH  12  13
HETATM   13  S   UNK N   1      32.117  16.552   8.087  0.00  0.00    -0.161 SA
BRANCH  13  14
HETATM   14  C   UNK N   1      30.802  17.324   7.123  0.00  0.00     0.133 C 
BRANCH  14  15
HETATM   15  C   UNK N   1      29.776  17.596   8.109  0.00  0.00     0.041 A 
HETATM   16  N   UNK N   1      29.956  17.362   9.411  0.00  0.00    -0.353 N 
HETATM   17  C   UNK N   1      28.842  17.834  10.002  0.00  0.00     0.180 A 
ATOM     18  HN  UNK N   1      30.760  16.923   9.859  1.00  0.00     0.166 HD
HETATM   19  N   UNK N   1      27.981  18.370   9.105  0.00  0.00    -0.354 N 
HETATM   20  C   UNK N   1      28.579  18.222   7.915  0.00  0.00     0.029 A 
HETATM   21  H   UNK N   1      27.105  18.780   9.286  0.00  0.00     0.166 HD
HETATM   22  C   UNK N   1      28.019  18.719   6.623  0.00  0.00     0.070 C 
ENDBRANCH  14  15
ENDBRANCH  13  14
ENDBRANCH  12  13
ENDBRANCH  11  12
ENDBRANCH   1  11
TORSDOF 5
ENDMDL
MODEL 3
REMARK VINA RESULT:      -5.3      6.880      9.211
REMARK  5 active torsions:
REMARK  status: ('A' for Active; 'I' for Inactive)
REMARK    1  A    between atoms: S_1  and  C_11 
REMARK    2  A    between atoms: S_1  and  C_12 
REMARK    3  A    between atoms: N_3  and  C_13 
REMARK       I    between atoms: N_3  and  C_17 
REMARK       I    between atoms: N_6  and  C_17 
REMARK    4  A    between atoms: C_10  and  C_11 
REMARK    5  A    between atoms: C_12  and  C_13 
ROOT
HETATM    1  N   UNK N   1      30.825  18.022   9.360  0.00  0.00    -0.225 N 
HETATM    2  N   UNK N   1      32.991  17.769   8.336  0.00  0.00    -0.126 N 
HETATM    3  N   UNK N   1      30.965  17.398   7.097  0.00  0.00    -0.230 N 
ATOM      4  HN  UNK N   1      29.945  17.404   7.116  1.00  0.00     0.177 HD
HETATM    5  N   UNK N   1      34.605  17.373   6.425  0.00  0.00    -0.171 NA
HETATM    6  C   UNK N   1      31.576  17.709   8.206  0.00  0.00     0.682 C 
HETATM    7  C   UNK N   1      31.593  17.050   5.842  0.00  0.00     0.165 C 
HETATM    8  C   UNK N   1      33.879  17.556   7.304  0.00  0.00     0.196 C 
HETATM    9  H   UNK N   1      31.235  17.877  10.242  0.00  0.00     0.177 HD
HETATM   10  H   UNK N   1      33.361  17.977   9.224  0.00  0.00     0.197 HD
ENDROOT
BRANCH   1  11
HETATM   11  C   UNK N   1      29.495  18.540   9.303  0.00  0.00     0.148 C 
BRANCH  11  12
HETATM   12  C   UNK N   1      28.513  17.425   9.519  0.00  0.00     0.094 C 
BRANCH  12  13
HETATM   13  S   UNK N   1      27.679  17.244   7.947  0.00  0.00    -0.161 SA
BRANCH  13  14
HETATM   14  C   UNK N   1      27.911  19.019   7.727  0.00  0.00     0.133 C 
BRANCH  14  15
HETATM   15  C   UNK N   1      27.808  19.198   6.294  0.00  0.00     0.041 A 
HETATM   16  N   UNK N   1      27.961  18.188   5.435  0.00  0.00    -0.353 N 
HETATM   17  C   UNK N   1      27.693  18.721   4.227  0.00  0.00     0.180 A 
ATOM     18  HN  UNK N   1      28.224  17.225   5.646  1.00  0.00     0.166 HD
HETATM   19  N   UNK N   1      27.361  20.030   4.314  0.00  0.00    -0.354 N 
HETATM   20  C   UNK N   1      27.430  20.323   5.620  0.00  0.00     0.029 A 
HETATM   21  H   UNK N   1      27.120  20.637   3.578  0.00  0.00     0.166 HD
HETATM   22  C   UNK N   1      27.091  21.654   6.204  0.00  0.00     0.070 C 
ENDBRANCH  14  15
ENDBRANCH  13  14
ENDBRANCH  12  13
ENDBRANCH  11  12
ENDBRANCH   1  11
TORSDOF 5
ENDMDL
MODEL 4
REMARK VINA RESULT:      -5.2      2.815      8.267
REMARK  5 active torsions:
REMARK  status: ('A' for Active; 'I' for Inactive)
REMARK    1  A    between atoms: S_1  and  C_11 
REMARK    2  A    between atoms: S_1  and  C_12 
REMARK    3  A    between atoms: N_3  and  C_13 
REMARK       I    between atoms: N_3  and  C_17 
REMARK       I    between atoms: N_6  and  C_17 
REMARK    4  A    between atoms: C_10  and  C_11 
REMARK    5  A    between atoms: C_12  and  C_13 
ROOT
HETATM    1  N   UNK N   1      36.684  14.091  12.955  0.00  0.00    -0.225 N 
HETATM    2  N   UNK N   1      36.357  15.928  11.432  0.00  0.00    -0.126 N 
HETATM    3  N   UNK N   1      34.714  14.192  11.676  0.00  0.00    -0.230 N 
ATOM      4  HN  UNK N   1      34.454  13.330  12.156  1.00  0.00     0.177 HD
HETATM    5  N   UNK N   1      35.073  17.345   9.770  0.00  0.00    -0.171 NA
HETATM    6  C   UNK N   1      35.863  14.720  11.993  0.00  0.00     0.682 C 
HETATM    7  C   UNK N   1      33.771  14.711  10.710  0.00  0.00     0.165 C 
HETATM    8  C   UNK N   1      35.668  16.708  10.527  0.00  0.00     0.196 C 
HETATM    9  H   UNK N   1      37.655  14.244  12.917  0.00  0.00     0.177 HD
HETATM   10  H   UNK N   1      37.253  16.230  11.707  0.00  0.00     0.197 HD
ENDROOT
BRANCH   1  11
HETATM   11  C   UNK N   1      36.167  13.244  13.982  0.00  0.00     0.148 C 
BRANCH  11  12
HETATM   12  C   UNK N   1      36.618  11.831  13.740  0.00  0.00     0.094 C 
BRANCH  12  13
HETATM   13  S   UNK N   1      36.685  11.092  15.367  0.00  0.00    -0.161 SA
BRANCH  13  14
HETATM   14  C   UNK N   1      35.446  12.304  15.866  0.00  0.00     0.133 C 
BRANCH  14  15
HETATM   15  C   UNK N   1      35.300  12.073  17.287  0.00  0.00     0.041 A 
HETATM   16  N   UNK N   1      35.290  10.846  17.815  0.00  0.00    -0.353 N 
HETATM   17  C   UNK N   1      35.244  11.045  19.146  0.00  0.00     0.180 A 
ATOM     18  HN  UNK N   1      35.312   9.955  17.318  1.00  0.00     0.166 HD
HETATM   19  N   UNK N   1      35.242  12.361  19.461  0.00  0.00    -0.354 N 
HETATM   20  C   UNK N   1      35.283  13.003  18.286  0.00  0.00     0.029 A 
HETATM   21  H   UNK N   1      35.216  12.762  20.360  0.00  0.00     0.166 HD
HETATM   22  C   UNK N   1      35.351  14.487  18.138  0.00  0.00     0.070 C 
ENDBRANCH  14  15
ENDBRANCH  13  14
ENDBRANCH  12  13
ENDBRANCH  11  12
ENDBRANCH   1  11
TORSDOF 5
ENDMDL
MODEL 5
REMARK VINA RESULT:      -5.2      2.358      3.214
REMARK  5 active torsions:
REMARK  status: ('A' for Active; 'I' for Inactive)
REMARK    1  A    between atoms: S_1  and  C_11 
REMARK    2  A    between atoms: S_1  and  C_12 
REMARK    3  A    between atoms: N_3  and  C_13 
REMARK       I    between atoms: N_3  and  C_17 
REMARK       I    between atoms: N_6  and  C_17 
REMARK    4  A    between atoms: C_10  and  C_11 
REMARK    5  A    between atoms: C_12  and  C_13 
ROOT
HETATM    1  N   UNK N   1      36.301  15.647  11.975  0.00  0.00    -0.225 N 
HETATM    2  N   UNK N   1      36.768  14.387  13.975  0.00  0.00    -0.126 N 
HETATM    3  N   UNK N   1      35.218  13.589  12.320  0.00  0.00    -0.230 N 
ATOM      4  HN  UNK N   1      34.776  13.762  11.418  1.00  0.00     0.177 HD
HETATM    5  N   UNK N   1      36.627  12.390  15.527  0.00  0.00    -0.171 NA
HETATM    6  C   UNK N   1      36.054  14.492  12.750  0.00  0.00     0.682 C 
HETATM    7  C   UNK N   1      34.858  12.364  12.999  0.00  0.00     0.165 C 
HETATM    8  C   UNK N   1      36.700  13.306  14.828  0.00  0.00     0.196 C 
HETATM    9  H   UNK N   1      36.598  16.466  12.432  0.00  0.00     0.177 HD
HETATM   10  H   UNK N   1      37.350  15.138  14.233  0.00  0.00     0.197 HD
ENDROOT
BRANCH   1  11
HETATM   11  C   UNK N   1      36.140  15.678  10.556  0.00  0.00     0.148 C 
BRANCH  11  12
HETATM   12  C   UNK N   1      34.978  16.563  10.204  0.00  0.00     0.094 C 
BRANCH  12  13
HETATM   13  S   UNK N   1      33.840  15.492   9.334  0.00  0.00    -0.161 SA
BRANCH  13  14
HETATM   14  C   UNK N   1      33.702  16.799   8.099  0.00  0.00     0.133 C 
BRANCH  14  15
HETATM   15  C   UNK N   1      32.275  17.030   8.010  0.00  0.00     0.041 A 
HETATM   16  N   UNK N   1      31.525  17.286   9.085  0.00  0.00    -0.353 N 
HETATM   17  C   UNK N   1      30.298  17.544   8.593  0.00  0.00     0.180 A 
ATOM     18  HN  UNK N   1      31.816  17.285  10.062  1.00  0.00     0.166 HD
HETATM   19  N   UNK N   1      30.269  17.472   7.241  0.00  0.00    -0.354 N 
HETATM   20  C   UNK N   1      31.520  17.154   6.881  0.00  0.00     0.029 A 
HETATM   21  H   UNK N   1      29.497  17.621   6.650  0.00  0.00     0.166 HD
HETATM   22  C   UNK N   1      31.981  17.018   5.467  0.00  0.00     0.070 C 
ENDBRANCH  14  15
ENDBRANCH  13  14
ENDBRANCH  12  13
ENDBRANCH  11  12
ENDBRANCH   1  11
TORSDOF 5
ENDMDL
MODEL 6
REMARK VINA RESULT:      -5.2      2.368      8.071
REMARK  5 active torsions:
REMARK  status: ('A' for Active; 'I' for Inactive)
REMARK    1  A    between atoms: S_1  and  C_11 
REMARK    2  A    between atoms: S_1  and  C_12 
REMARK    3  A    between atoms: N_3  and  C_13 
REMARK       I    between atoms: N_3  and  C_17 
REMARK       I    between atoms: N_6  and  C_17 
REMARK    4  A    between atoms: C_10  and  C_11 
REMARK    5  A    between atoms: C_12  and  C_13 
ROOT
HETATM    1  N   UNK N   1      33.517  17.627   9.279  0.00  0.00    -0.225 N 
HETATM    2  N   UNK N   1      31.138  17.944   9.065  0.00  0.00    -0.126 N 
HETATM    3  N   UNK N   1      32.450  17.030   7.270  0.00  0.00    -0.230 N 
ATOM      4  HN  UNK N   1      33.377  16.740   6.959  1.00  0.00     0.177 HD
HETATM    5  N   UNK N   1      28.882  17.767   7.928  0.00  0.00    -0.171 NA
HETATM    6  C   UNK N   1      32.360  17.516   8.477  0.00  0.00     0.682 C 
HETATM    7  C   UNK N   1      31.363  16.861   6.332  0.00  0.00     0.165 C 
HETATM    8  C   UNK N   1      29.905  17.853   8.457  0.00  0.00     0.196 C 
HETATM    9  H   UNK N   1      33.535  18.311   9.986  0.00  0.00     0.177 HD
HETATM   10  H   UNK N   1      31.176  18.331   9.969  0.00  0.00     0.197 HD
ENDROOT
BRANCH   1  11
HETATM   11  C   UNK N   1      34.663  16.792   9.108  0.00  0.00     0.148 C 
BRANCH  11  12
HETATM   12  C   UNK N   1      35.285  16.515  10.447  0.00  0.00     0.094 C 
BRANCH  12  13
HETATM   13  S   UNK N   1      34.506  15.005  11.005  0.00  0.00    -0.161 SA
BRANCH  13  14
HETATM   14  C   UNK N   1      35.783  14.928  12.276  0.00  0.00     0.133 C 
BRANCH  14  15
HETATM   15  C   UNK N   1      35.434  13.746  13.035  0.00  0.00     0.041 A 
HETATM   16  N   UNK N   1      34.679  12.768  12.528  0.00  0.00    -0.353 N 
HETATM   17  C   UNK N   1      34.666  11.815  13.480  0.00  0.00     0.180 A 
ATOM     18  HN  UNK N   1      34.214  12.748  11.620  1.00  0.00     0.166 HD
HETATM   19  N   UNK N   1      35.406  12.166  14.558  0.00  0.00    -0.354 N 
HETATM   20  C   UNK N   1      35.891  13.382  14.269  0.00  0.00     0.029 A 
HETATM   21  H   UNK N   1      35.555  11.643  15.378  0.00  0.00     0.166 HD
HETATM   22  C   UNK N   1      36.816  14.152  15.152  0.00  0.00     0.070 C 
ENDBRANCH  14  15
ENDBRANCH  13  14
ENDBRANCH  12  13
ENDBRANCH  11  12
ENDBRANCH   1  11
TORSDOF 5
ENDMDL
MODEL 7
REMARK VINA RESULT:      -5.2      3.283      6.680
REMARK  5 active torsions:
REMARK  status: ('A' for Active; 'I' for Inactive)
REMARK    1  A    between atoms: S_1  and  C_11 
REMARK    2  A    between atoms: S_1  and  C_12 
REMARK    3  A    between atoms: N_3  and  C_13 
REMARK       I    between atoms: N_3  and  C_17 
REMARK       I    between atoms: N_6  and  C_17 
REMARK    4  A    between atoms: C_10  and  C_11 
REMARK    5  A    between atoms: C_12  and  C_13 
ROOT
HETATM    1  N   UNK N   1      32.736  15.061   8.552  0.00  0.00    -0.225 N 
HETATM    2  N   UNK N   1      33.683  17.235   8.122  0.00  0.00    -0.126 N 
HETATM    3  N   UNK N   1      34.351  15.927  10.026  0.00  0.00    -0.230 N 
ATOM      4  HN  UNK N   1      34.239  15.050  10.534  1.00  0.00     0.177 HD
HETATM    5  N   UNK N   1      35.258  19.181   8.510  0.00  0.00    -0.171 NA
HETATM    6  C   UNK N   1      33.627  16.081   8.952  0.00  0.00     0.682 C 
HETATM    7  C   UNK N   1      35.297  16.878  10.564  0.00  0.00     0.165 C 
HETATM    8  C   UNK N   1      34.536  18.299   8.323  0.00  0.00     0.196 C 
HETATM    9  H   UNK N   1      31.950  15.308   8.014  0.00  0.00     0.177 HD
HETATM   10  H   UNK N   1      33.071  17.276   7.352  0.00  0.00     0.197 HD
ENDROOT
BRANCH   1  11
HETATM   11  C   UNK N   1      32.926  13.687   8.893  0.00  0.00     0.148 C 
BRANCH  11  12
HETATM   12  C   UNK N   1      33.432  12.939   7.693  0.00  0.00     0.094 C 
BRANCH  12  13
HETATM   13  S   UNK N   1      35.209  12.910   7.893  0.00  0.00    -0.161 SA
BRANCH  13  14
HETATM   14  C   UNK N   1      34.916  12.310   9.568  0.00  0.00     0.133 C 
BRANCH  14  15
HETATM   15  C   UNK N   1      36.142  12.640  10.265  0.00  0.00     0.041 A 
HETATM   16  N   UNK N   1      37.337  12.591   9.670  0.00  0.00    -0.353 N 
HETATM   17  C   UNK N   1      38.199  13.060  10.593  0.00  0.00     0.180 A 
ATOM     18  HN  UNK N   1      37.550  12.268   8.726  1.00  0.00     0.166 HD
HETATM   19  N   UNK N   1      37.570  13.415  11.738  0.00  0.00    -0.354 N 
HETATM   20  C   UNK N   1      36.274  13.153  11.522  0.00  0.00     0.029 A 
HETATM   21  H   UNK N   1      37.977  13.785  12.554  0.00  0.00     0.166 HD
HETATM   22  C   UNK N   1      35.182  13.438  12.500  0.00  0.00     0.070 C 
ENDBRANCH  14  15
ENDBRANCH  13  14
ENDBRANCH  12  13
ENDBRANCH  11  12
ENDBRANCH   1  11
TORSDOF 5
ENDMDL
MODEL 8
REMARK VINA RESULT:      -5.1      2.930      7.732
REMARK  5 active torsions:
REMARK  status: ('A' for Active; 'I' for Inactive)
REMARK    1  A    between atoms: S_1  and  C_11 
REMARK    2  A    between atoms: S_1  and  C_12 
REMARK    3  A    between atoms: N_3  and  C_13 
REMARK       I    between atoms: N_3  and  C_17 
REMARK       I    between atoms: N_6  and  C_17 
REMARK    4  A    between atoms: C_10  and  C_11 
REMARK    5  A    between atoms: C_12  and  C_13 
ROOT
HETATM    1  N   UNK N   1      32.579  17.514   8.928  0.00  0.00    -0.225 N 
HETATM    2  N   UNK N   1      30.286  17.812   9.603  0.00  0.00    -0.126 N 
HETATM    3  N   UNK N   1      30.856  17.032   7.402  0.00  0.00    -0.230 N 
ATOM      4  HN  UNK N   1      31.606  16.775   6.761  1.00  0.00     0.177 HD
HETATM    5  N   UNK N   1      27.770  17.678   9.341  0.00  0.00    -0.171 NA
HETATM    6  C   UNK N   1      31.210  17.439   8.589  0.00  0.00     0.682 C 
HETATM    7  C   UNK N   1      29.503  16.909   6.907  0.00  0.00     0.165 C 
HETATM    8  C   UNK N   1      28.915  17.744   9.473  0.00  0.00     0.196 C 
HETATM    9  H   UNK N   1      32.857  18.151   9.624  0.00  0.00     0.177 HD
HETATM   10  H   UNK N   1      30.649  18.142  10.456  0.00  0.00     0.197 HD
ENDROOT
BRANCH   1  11
HETATM   11  C   UNK N   1      33.578  16.706   8.304  0.00  0.00     0.148 C 
BRANCH  11  12
HETATM   12  C   UNK N   1      33.735  15.424   9.070  0.00  0.00     0.094 C 
BRANCH  12  13
HETATM   13  S   UNK N   1      35.494  15.282   9.362  0.00  0.00    -0.161 SA
BRANCH  13  14
HETATM   14  C   UNK N   1      35.152  13.654  10.058  0.00  0.00     0.133 C 
BRANCH  14  15
HETATM   15  C   UNK N   1      35.777  13.706  11.363  0.00  0.00     0.041 A 
HETATM   16  N   UNK N   1      35.105  14.055  12.464  0.00  0.00    -0.353 N 
HETATM   17  C   UNK N   1      35.983  13.883  13.470  0.00  0.00     0.180 A 
ATOM     18  HN  UNK N   1      34.140  14.379  12.527  1.00  0.00     0.166 HD
HETATM   19  N   UNK N   1      37.177  13.423  13.028  0.00  0.00    -0.354 N 
HETATM   20  C   UNK N   1      37.037  13.308  11.700  0.00  0.00     0.029 A 
HETATM   21  H   UNK N   1      37.975  13.216  13.565  0.00  0.00     0.166 HD
HETATM   22  C   UNK N   1      38.092  12.779  10.785  0.00  0.00     0.070 C 
ENDBRANCH  14  15
ENDBRANCH  13  14
ENDBRANCH  12  13
ENDBRANCH  11  12
ENDBRANCH   1  11
TORSDOF 5
ENDMDL
MODEL 9
REMARK VINA RESULT:      -5.1     12.852     15.560
REMARK  5 active torsions:
REMARK  status: ('A' for Active; 'I' for Inactive)
REMARK    1  A    between atoms: S_1  and  C_11 
REMARK    2  A    between atoms: S_1  and  C_12 
REMARK    3  A    between atoms: N_3  and  C_13 
REMARK       I    between atoms: N_3  and  C_17 
REMARK       I    between atoms: N_6  and  C_17 
REMARK    4  A    between atoms: C_10  and  C_11 
REMARK    5  A    between atoms: C_12  and  C_13 
ROOT
HETATM    1  N   UNK N   1      24.705  17.833   5.296  0.00  0.00    -0.225 N 
HETATM    2  N   UNK N   1      25.985  19.690   6.144  0.00  0.00    -0.126 N 
HETATM    3  N   UNK N   1      25.730  19.313   3.783  0.00  0.00    -0.230 N 
ATOM      4  HN  UNK N   1      25.313  18.731   3.057  1.00  0.00     0.177 HD
HETATM    5  N   UNK N   1      27.333  21.828   5.977  0.00  0.00    -0.171 NA
HETATM    6  C   UNK N   1      25.496  18.970   5.019  0.00  0.00     0.682 C 
HETATM    7  C   UNK N   1      26.521  20.440   3.343  0.00  0.00     0.165 C 
HETATM    8  C   UNK N   1      26.719  20.854   6.066  0.00  0.00     0.196 C 
HETATM    9  H   UNK N   1      24.841  17.362   6.150  0.00  0.00     0.177 HD
HETATM   10  H   UNK N   1      25.787  19.332   7.039  0.00  0.00     0.197 HD
ENDROOT
BRANCH   1  11
HETATM   11  C   UNK N   1      23.717  17.336   4.393  0.00  0.00     0.148 C 
BRANCH  11  12
HETATM   12  C   UNK N   1      22.599  16.704   5.172  0.00  0.00     0.094 C 
BRANCH  12  13
HETATM   13  S   UNK N   1      21.503  18.059   5.572  0.00  0.00    -0.161 SA
BRANCH  13  14
HETATM   14  C   UNK N   1      20.441  17.470   4.239  0.00  0.00     0.133 C 
BRANCH  14  15
HETATM   15  C   UNK N   1      20.450  18.564   3.291  0.00  0.00     0.041 A 
HETATM   16  N   UNK N   1      20.730  19.819   3.651  0.00  0.00    -0.353 N 
HETATM   17  C   UNK N   1      20.742  20.513   2.497  0.00  0.00     0.180 A 
ATOM     18  HN  UNK N   1      20.897  20.174   4.593  1.00  0.00     0.166 HD
HETATM   19  N   UNK N   1      20.494  19.721   1.427  0.00  0.00    -0.354 N 
HETATM   20  C   UNK N   1      20.317  18.493   1.935  0.00  0.00     0.029 A 
HETATM   21  H   UNK N   1      20.453  19.987   0.481  0.00  0.00     0.166 HD
HETATM   22  C   UNK N   1      20.069  17.270   1.115  0.00  0.00     0.070 C 
ENDBRANCH  14  15
ENDBRANCH  13  14
ENDBRANCH  12  13
ENDBRANCH  11  12
ENDBRANCH   1  11
TORSDOF 5
ENDMDL
