REMARK  7 active torsions:
REMARK  status: ('A' for Active; 'I' for Inactive)
REMARK    1  A    between atoms: O_3  and  C_6 
REMARK    2  A    between atoms: N_5  and  C_11 
REMARK    3  A    between atoms: C_6  and  C_12 
REMARK    4  A    between atoms: C_11  and  C_13 
REMARK    5  A    between atoms: C_13  and  C_16 
REMARK    6  A    between atoms: C_16  and  C_19 
REMARK    7  A    between atoms: C_19  and  C_21 
ROOT
HETATM    1  N   UNK N   1       4.903   0.765  -0.493  0.00  0.00     0.088 N 
HETATM    2  C   UNK N   1       3.414   3.185   0.189  0.00  0.00     0.088 C 
HETATM    3  C   UNK N   1       3.293   2.515  -1.188  0.00  0.00     0.073 C 
HETATM    4  C   UNK N   1       3.822   2.186   1.281  0.00  0.00     0.073 C 
HETATM    5  C   UNK N   1       3.621   1.027  -1.170  0.00  0.00     0.276 C 
HETATM    6  C   UNK N   1       5.006   1.307   0.871  0.00  0.00     0.276 C 
ENDROOT
BRANCH   1   7
HETATM    7  C   UNK N   1       5.237  -0.666  -0.435  0.00  0.00     0.272 C 
BRANCH   7   8
HETATM    8  C   UNK N   1       4.037  -1.620  -0.464  0.00  0.00     0.038 C 
BRANCH   8   9
HETATM    9  C   UNK N   1       3.068  -1.388   0.688  0.00  0.00     0.085 C 
BRANCH   9  10
HETATM   10  C   UNK N   1       1.759  -2.056   0.383  0.00  0.00     0.159 C 
HETATM   11  O   UNK N   1       0.758  -1.365   0.254  0.00  0.00    -0.292 OA
BRANCH  10  12
HETATM   12  C   UNK N   1       1.670  -3.526   0.225  0.00  0.00     0.010 A 
HETATM   13  C   UNK N   1       2.812  -4.326   0.391  0.00  0.00     0.018 A 
HETATM   14  C   UNK N   1       2.738  -5.710   0.229  0.00  0.00     0.043 A 
HETATM   15  C   UNK N   1       1.520  -6.308  -0.100  0.00  0.00     0.116 A 
HETATM   16  F   UNK N   1       1.451  -7.651  -0.260  0.00  0.00    -0.206 F 
HETATM   17  C   UNK N   1       0.375  -5.523  -0.264  0.00  0.00     0.043 A 
HETATM   18  C   UNK N   1       0.449  -4.135  -0.102  0.00  0.00     0.018 A 
ENDBRANCH  10  12
ENDBRANCH   9  10
ENDBRANCH   8   9
ENDBRANCH   7   8
ENDBRANCH   1   7
BRANCH   2  19
HETATM   19  O   UNK N   1       2.154   3.678   0.539  0.00  0.00    -0.385 OA
HETATM   20  H   UNK N   1       2.013   4.606   0.782  0.00  0.00     0.211 HD
ENDBRANCH   2  19
BRANCH   2  21
HETATM   21  C   UNK N   1       4.407   4.325   0.079  0.00  0.00    -0.024 A 
HETATM   22  C   UNK N   1       4.008   5.648   0.334  0.00  0.00     0.012 A 
HETATM   23  C   UNK N   1       4.919   6.699   0.204  0.00  0.00     0.024 A 
HETATM   24  C   UNK N   1       6.234   6.441  -0.188  0.00  0.00     0.034 A 
HETATM   25 Cl   UNK N   1       7.371   7.760  -0.358  0.00  0.00    -0.084 Cl
HETATM   26  C   UNK N   1       6.642   5.131  -0.446  0.00  0.00     0.024 A 
HETATM   27  C   UNK N   1       5.734   4.078  -0.314  0.00  0.00     0.012 A 
ENDBRANCH   2  21
TORSDOF 7
