MODEL 1
REMARK VINA RESULT:      -7.6      0.000      0.000
REMARK  7 active torsions:
REMARK  status: ('A' for Active; 'I' for Inactive)
REMARK    1  A    between atoms: O_3  and  C_6 
REMARK    2  A    between atoms: N_5  and  C_11 
REMARK    3  A    between atoms: C_6  and  C_12 
REMARK    4  A    between atoms: C_11  and  C_13 
REMARK    5  A    between atoms: C_13  and  C_16 
REMARK    6  A    between atoms: C_16  and  C_19 
REMARK    7  A    between atoms: C_19  and  C_21 
ROOT
HETATM    1  N   UNK N   1      34.074  14.536  10.528  0.00  0.00     0.088 N 
HETATM    2  C   UNK N   1      36.500  13.630  11.882  0.00  0.00     0.088 C 
HETATM    3  C   UNK N   1      35.635  12.681  11.039  0.00  0.00     0.073 C 
HETATM    4  C   UNK N   1      36.357  15.091  11.433  0.00  0.00     0.073 C 
HETATM    5  C   UNK N   1      34.818  13.394   9.968  0.00  0.00     0.276 C 
HETATM    6  C   UNK N   1      34.898  15.517  11.253  0.00  0.00     0.276 C 
ENDROOT
BRANCH   1   7
HETATM    7  C   UNK N   1      33.295  15.264   9.515  0.00  0.00     0.272 C 
BRANCH   7   8
HETATM    8  C   UNK N   1      33.854  16.636   9.120  0.00  0.00     0.038 C 
BRANCH   8   9
HETATM    9  C   UNK N   1      32.860  17.474   8.327  0.00  0.00     0.085 C 
BRANCH   9  10
HETATM   10  C   UNK N   1      33.369  17.663   6.928  0.00  0.00     0.159 C 
HETATM   11  O   UNK N   1      34.516  18.054   6.763  0.00  0.00    -0.292 OA
BRANCH  10  12
HETATM   12  C   UNK N   1      32.511  17.370   5.756  0.00  0.00     0.010 A 
HETATM   13  C   UNK N   1      31.167  17.007   5.937  0.00  0.00     0.018 A 
HETATM   14  C   UNK N   1      30.357  16.715   4.838  0.00  0.00     0.043 A 
HETATM   15  C   UNK N   1      30.884  16.786   3.547  0.00  0.00     0.116 A 
HETATM   16  F   UNK N   1      30.097  16.500   2.483  0.00  0.00    -0.206 F 
HETATM   17  C   UNK N   1      32.219  17.150   3.354  0.00  0.00     0.043 A 
HETATM   18  C   UNK N   1      33.032  17.442   4.455  0.00  0.00     0.018 A 
ENDBRANCH  10  12
ENDBRANCH   9  10
ENDBRANCH   8   9
ENDBRANCH   7   8
ENDBRANCH   1   7
BRANCH   2  19
HETATM   19  O   UNK N   1      37.838  13.275  11.689  0.00  0.00    -0.385 OA
HETATM   20  H   UNK N   1      38.149  12.862  10.869  0.00  0.00     0.211 HD
ENDBRANCH   2  19
BRANCH   2  21
HETATM   21  C   UNK N   1      36.119  13.455  13.338  0.00  0.00    -0.024 A 
HETATM   22  C   UNK N   1      35.067  12.599  13.705  0.00  0.00     0.012 A 
HETATM   23  C   UNK N   1      34.701  12.463  15.046  0.00  0.00     0.024 A 
HETATM   24  C   UNK N   1      35.376  13.184  16.033  0.00  0.00     0.034 A 
HETATM   25 Cl   UNK N   1      34.909  13.018  17.711  0.00  0.00    -0.084 Cl
HETATM   26  C   UNK N   1      36.421  14.040  15.681  0.00  0.00     0.024 A 
HETATM   27  C   UNK N   1      36.792  14.176  14.341  0.00  0.00     0.012 A 
ENDBRANCH   2  21
TORSDOF 7
ENDMDL
MODEL 2
REMARK VINA RESULT:      -7.5     15.443     18.214
REMARK  7 active torsions:
REMARK  status: ('A' for Active; 'I' for Inactive)
REMARK    1  A    between atoms: O_3  and  C_6 
REMARK    2  A    between atoms: N_5  and  C_11 
REMARK    3  A    between atoms: C_6  and  C_12 
REMARK    4  A    between atoms: C_11  and  C_13 
REMARK    5  A    between atoms: C_13  and  C_16 
REMARK    6  A    between atoms: C_16  and  C_19 
REMARK    7  A    between atoms: C_19  and  C_21 
ROOT
HETATM    1  N   UNK N   1      29.560  23.837  -5.527  0.00  0.00     0.088 N 
HETATM    2  C   UNK N   1      30.877  22.975  -3.065  0.00  0.00     0.088 C 
HETATM    3  C   UNK N   1      30.884  24.441  -3.522  0.00  0.00     0.073 C 
HETATM    4  C   UNK N   1      29.665  22.207  -3.612  0.00  0.00     0.073 C 
HETATM    5  C   UNK N   1      29.709  24.801  -4.424  0.00  0.00     0.276 C 
HETATM    6  C   UNK N   1      29.446  22.430  -5.110  0.00  0.00     0.276 C 
ENDROOT
BRANCH   1   7
HETATM    7  C   UNK N   1      28.418  24.141  -6.402  0.00  0.00     0.272 C 
BRANCH   7   8
HETATM    8  C   UNK N   1      27.156  23.310  -6.144  0.00  0.00     0.038 C 
BRANCH   8   9
HETATM    9  C   UNK N   1      25.926  24.168  -5.877  0.00  0.00     0.085 C 
BRANCH   9  10
HETATM   10  C   UNK N   1      26.100  24.903  -4.580  0.00  0.00     0.159 C 
HETATM   11  O   UNK N   1      26.128  24.264  -3.538  0.00  0.00    -0.292 OA
BRANCH  10  12
HETATM   12  C   UNK N   1      26.251  26.376  -4.550  0.00  0.00     0.010 A 
HETATM   13  C   UNK N   1      26.581  27.077  -5.721  0.00  0.00     0.018 A 
HETATM   14  C   UNK N   1      26.739  28.463  -5.697  0.00  0.00     0.043 A 
HETATM   15  C   UNK N   1      26.567  29.162  -4.501  0.00  0.00     0.116 A 
HETATM   16  F   UNK N   1      26.724  30.507  -4.478  0.00  0.00    -0.206 F 
HETATM   17  C   UNK N   1      26.235  28.476  -3.329  0.00  0.00     0.043 A 
HETATM   18  C   UNK N   1      26.077  27.086  -3.353  0.00  0.00     0.018 A 
ENDBRANCH  10  12
ENDBRANCH   9  10
ENDBRANCH   8   9
ENDBRANCH   7   8
ENDBRANCH   1   7
BRANCH   2  19
HETATM   19  O   UNK N   1      30.774  22.959  -1.672  0.00  0.00    -0.385 OA
HETATM   20  H   UNK N   1      29.919  23.018  -1.218  0.00  0.00     0.211 HD
ENDBRANCH   2  19
BRANCH   2  21
HETATM   21  C   UNK N   1      32.182  22.335  -3.498  0.00  0.00    -0.024 A 
HETATM   22  C   UNK N   1      32.702  21.231  -2.802  0.00  0.00     0.012 A 
HETATM   23  C   UNK N   1      33.918  20.661  -3.186  0.00  0.00     0.024 A 
HETATM   24  C   UNK N   1      34.631  21.193  -4.263  0.00  0.00     0.034 A 
HETATM   25 Cl   UNK N   1      36.158  20.483  -4.736  0.00  0.00    -0.084 Cl
HETATM   26  C   UNK N   1      34.125  22.291  -4.961  0.00  0.00     0.024 A 
HETATM   27  C   UNK N   1      32.908  22.860  -4.581  0.00  0.00     0.012 A 
ENDBRANCH   2  21
TORSDOF 7
ENDMDL
MODEL 3
REMARK VINA RESULT:      -7.3      4.496      9.667
REMARK  7 active torsions:
REMARK  status: ('A' for Active; 'I' for Inactive)
REMARK    1  A    between atoms: O_3  and  C_6 
REMARK    2  A    between atoms: N_5  and  C_11 
REMARK    3  A    between atoms: C_6  and  C_12 
REMARK    4  A    between atoms: C_11  and  C_13 
REMARK    5  A    between atoms: C_13  and  C_16 
REMARK    6  A    between atoms: C_16  and  C_19 
REMARK    7  A    between atoms: C_19  and  C_21 
ROOT
HETATM    1  N   UNK N   1      34.332  14.939   9.552  0.00  0.00     0.088 N 
HETATM    2  C   UNK N   1      33.948  17.025   7.542  0.00  0.00     0.088 C 
HETATM    3  C   UNK N   1      34.398  17.347   8.975  0.00  0.00     0.073 C 
HETATM    4  C   UNK N   1      34.337  15.600   7.123  0.00  0.00     0.073 C 
HETATM    5  C   UNK N   1      35.106  16.187   9.664  0.00  0.00     0.276 C 
HETATM    6  C   UNK N   1      33.977  14.551   8.178  0.00  0.00     0.276 C 
ENDROOT
BRANCH   1   7
HETATM    7  C   UNK N   1      35.000  13.792  10.185  0.00  0.00     0.272 C 
BRANCH   7   8
HETATM    8  C   UNK N   1      34.985  13.790  11.718  0.00  0.00     0.038 C 
BRANCH   8   9
HETATM    9  C   UNK N   1      36.358  14.047  12.325  0.00  0.00     0.085 C 
BRANCH   9  10
HETATM   10  C   UNK N   1      36.604  13.070  13.437  0.00  0.00     0.159 C 
HETATM   11  O   UNK N   1      37.143  12.003  13.179  0.00  0.00    -0.292 OA
BRANCH  10  12
HETATM   12  C   UNK N   1      36.219  13.387  14.832  0.00  0.00     0.010 A 
HETATM   13  C   UNK N   1      35.142  12.719  15.438  0.00  0.00     0.018 A 
HETATM   14  C   UNK N   1      34.765  13.024  16.746  0.00  0.00     0.043 A 
HETATM   15  C   UNK N   1      35.461  14.000  17.462  0.00  0.00     0.116 A 
HETATM   16  F   UNK N   1      35.091  14.296  18.731  0.00  0.00    -0.206 F 
HETATM   17  C   UNK N   1      36.537  14.669  16.872  0.00  0.00     0.043 A 
HETATM   18  C   UNK N   1      36.915  14.364  15.559  0.00  0.00     0.018 A 
ENDBRANCH  10  12
ENDBRANCH   9  10
ENDBRANCH   8   9
ENDBRANCH   7   8
ENDBRANCH   1   7
BRANCH   2  19
HETATM   19  O   UNK N   1      34.612  17.899   6.677  0.00  0.00    -0.385 OA
HETATM   20  H   UNK N   1      34.239  18.758   6.426  0.00  0.00     0.211 HD
ENDBRANCH   2  19
BRANCH   2  21
HETATM   21  C   UNK N   1      32.450  17.241   7.453  0.00  0.00    -0.024 A 
HETATM   22  C   UNK N   1      31.743  17.803   8.529  0.00  0.00     0.012 A 
HETATM   23  C   UNK N   1      30.359  17.974   8.454  0.00  0.00     0.024 A 
HETATM   24  C   UNK N   1      29.666  17.581   7.307  0.00  0.00     0.034 A 
HETATM   25 Cl   UNK N   1      27.931  17.789   7.218  0.00  0.00    -0.084 Cl
HETATM   26  C   UNK N   1      30.357  17.019   6.232  0.00  0.00     0.024 A 
HETATM   27  C   UNK N   1      31.742  16.850   6.303  0.00  0.00     0.012 A 
ENDBRANCH   2  21
TORSDOF 7
ENDMDL
MODEL 4
REMARK VINA RESULT:      -7.3      1.751      2.426
REMARK  7 active torsions:
REMARK  status: ('A' for Active; 'I' for Inactive)
REMARK    1  A    between atoms: O_3  and  C_6 
REMARK    2  A    between atoms: N_5  and  C_11 
REMARK    3  A    between atoms: C_6  and  C_12 
REMARK    4  A    between atoms: C_11  and  C_13 
REMARK    5  A    between atoms: C_13  and  C_16 
REMARK    6  A    between atoms: C_16  and  C_19 
REMARK    7  A    between atoms: C_19  and  C_21 
ROOT
HETATM    1  N   UNK N   1      34.306  14.453  10.898  0.00  0.00     0.088 N 
HETATM    2  C   UNK N   1      36.593  13.407  12.385  0.00  0.00     0.088 C 
HETATM    3  C   UNK N   1      35.640  12.489  11.606  0.00  0.00     0.073 C 
HETATM    4  C   UNK N   1      36.621  14.830  11.809  0.00  0.00     0.073 C 
HETATM    5  C   UNK N   1      34.925  13.191  10.457  0.00  0.00     0.276 C 
HETATM    6  C   UNK N   1      35.223  15.397  11.555  0.00  0.00     0.276 C 
ENDROOT
BRANCH   1   7
HETATM    7  C   UNK N   1      33.629  15.169   9.806  0.00  0.00     0.272 C 
BRANCH   7   8
HETATM    8  C   UNK N   1      34.552  15.960   8.871  0.00  0.00     0.038 C 
BRANCH   8   9
HETATM    9  C   UNK N   1      34.140  15.858   7.408  0.00  0.00     0.085 C 
BRANCH   9  10
HETATM   10  C   UNK N   1      33.489  17.141   6.981  0.00  0.00     0.159 C 
HETATM   11  O   UNK N   1      34.144  17.952   6.342  0.00  0.00    -0.292 OA
BRANCH  10  12
HETATM   12  C   UNK N   1      32.074  17.426   7.310  0.00  0.00     0.010 A 
HETATM   13  C   UNK N   1      31.742  18.063   8.516  0.00  0.00     0.018 A 
HETATM   14  C   UNK N   1      30.409  18.321   8.839  0.00  0.00     0.043 A 
HETATM   15  C   UNK N   1      29.394  17.945   7.957  0.00  0.00     0.116 A 
HETATM   16  F   UNK N   1      28.101  18.193   8.273  0.00  0.00    -0.206 F 
HETATM   17  C   UNK N   1      29.712  17.314   6.751  0.00  0.00     0.043 A 
HETATM   18  C   UNK N   1      31.048  17.054   6.427  0.00  0.00     0.018 A 
ENDBRANCH  10  12
ENDBRANCH   9  10
ENDBRANCH   8   9
ENDBRANCH   7   8
ENDBRANCH   1   7
BRANCH   2  19
HETATM   19  O   UNK N   1      37.885  12.891  12.259  0.00  0.00    -0.385 OA
HETATM   20  H   UNK N   1      38.670  13.395  12.526  0.00  0.00     0.211 HD
ENDBRANCH   2  19
BRANCH   2  21
HETATM   21  C   UNK N   1      36.172  13.406  13.842  0.00  0.00    -0.024 A 
HETATM   22  C   UNK N   1      36.866  14.180  14.787  0.00  0.00     0.012 A 
HETATM   23  C   UNK N   1      36.492  14.153  16.133  0.00  0.00     0.024 A 
HETATM   24  C   UNK N   1      35.429  13.350  16.549  0.00  0.00     0.034 A 
HETATM   25 Cl   UNK N   1      34.968  13.313  18.237  0.00  0.00    -0.084 Cl
HETATM   26  C   UNK N   1      34.733  12.576  15.619  0.00  0.00     0.024 A 
HETATM   27  C   UNK N   1      35.102  12.602  14.273  0.00  0.00     0.012 A 
ENDBRANCH   2  21
TORSDOF 7
ENDMDL
MODEL 5
REMARK VINA RESULT:      -7.1     10.942     12.497
REMARK  7 active torsions:
REMARK  status: ('A' for Active; 'I' for Inactive)
REMARK    1  A    between atoms: O_3  and  C_6 
REMARK    2  A    between atoms: N_5  and  C_11 
REMARK    3  A    between atoms: C_6  and  C_12 
REMARK    4  A    between atoms: C_11  and  C_13 
REMARK    5  A    between atoms: C_13  and  C_16 
REMARK    6  A    between atoms: C_16  and  C_19 
REMARK    7  A    between atoms: C_19  and  C_21 
ROOT
HETATM    1  N   UNK N   1      21.622  15.833   6.771  0.00  0.00     0.088 N 
HETATM    2  C   UNK N   1      22.067  12.949   6.934  0.00  0.00     0.088 C 
HETATM    3  C   UNK N   1      20.660  13.550   6.791  0.00  0.00     0.073 C 
HETATM    4  C   UNK N   1      23.148  13.875   6.358  0.00  0.00     0.073 C 
HETATM    5  C   UNK N   1      20.651  14.925   6.135  0.00  0.00     0.276 C 
HETATM    6  C   UNK N   1      23.001  15.325   6.826  0.00  0.00     0.276 C 
ENDROOT
BRANCH   1   7
HETATM    7  C   UNK N   1      21.657  17.163   6.144  0.00  0.00     0.272 C 
BRANCH   7   8
HETATM    8  C   UNK N   1      20.803  17.313   4.879  0.00  0.00     0.038 C 
BRANCH   8   9
HETATM    9  C   UNK N   1      21.631  17.625   3.639  0.00  0.00     0.085 C 
BRANCH   9  10
HETATM   10  C   UNK N   1      22.131  19.038   3.714  0.00  0.00     0.159 C 
HETATM   11  O   UNK N   1      21.320  19.947   3.828  0.00  0.00    -0.292 OA
BRANCH  10  12
HETATM   12  C   UNK N   1      23.580  19.339   3.665  0.00  0.00     0.010 A 
HETATM   13  C   UNK N   1      24.051  20.428   2.913  0.00  0.00     0.018 A 
HETATM   14  C   UNK N   1      25.417  20.708   2.851  0.00  0.00     0.043 A 
HETATM   15  C   UNK N   1      26.325  19.903   3.541  0.00  0.00     0.116 A 
HETATM   16  F   UNK N   1      27.650  20.175   3.477  0.00  0.00    -0.206 F 
HETATM   17  C   UNK N   1      25.868  18.819   4.296  0.00  0.00     0.043 A 
HETATM   18  C   UNK N   1      24.499  18.537   4.359  0.00  0.00     0.018 A 
ENDBRANCH  10  12
ENDBRANCH   9  10
ENDBRANCH   8   9
ENDBRANCH   7   8
ENDBRANCH   1   7
BRANCH   2  19
HETATM   19  O   UNK N   1      22.106  11.766   6.191  0.00  0.00    -0.385 OA
HETATM   20  H   UNK N   1      21.745  10.933   6.529  0.00  0.00     0.211 HD
ENDBRANCH   2  19
BRANCH   2  21
HETATM   21  C   UNK N   1      22.311  12.652   8.400  0.00  0.00    -0.024 A 
HETATM   22  C   UNK N   1      21.307  12.886   9.354  0.00  0.00     0.012 A 
HETATM   23  C   UNK N   1      21.546  12.638  10.708  0.00  0.00     0.024 A 
HETATM   24  C   UNK N   1      22.791  12.160  11.123  0.00  0.00     0.034 A 
HETATM   25 Cl   UNK N   1      23.090  11.857  12.820  0.00  0.00    -0.084 Cl
HETATM   26  C   UNK N   1      23.797  11.925  10.184  0.00  0.00     0.024 A 
HETATM   27  C   UNK N   1      23.560  12.170   8.830  0.00  0.00     0.012 A 
ENDBRANCH   2  21
TORSDOF 7
ENDMDL
MODEL 6
REMARK VINA RESULT:      -7.1      4.550      9.449
REMARK  7 active torsions:
REMARK  status: ('A' for Active; 'I' for Inactive)
REMARK    1  A    between atoms: O_3  and  C_6 
REMARK    2  A    between atoms: N_5  and  C_11 
REMARK    3  A    between atoms: C_6  and  C_12 
REMARK    4  A    between atoms: C_11  and  C_13 
REMARK    5  A    between atoms: C_13  and  C_16 
REMARK    6  A    between atoms: C_16  and  C_19 
REMARK    7  A    between atoms: C_19  and  C_21 
ROOT
HETATM    1  N   UNK N   1      34.541  14.510   8.788  0.00  0.00     0.088 N 
HETATM    2  C   UNK N   1      34.034  17.125   7.585  0.00  0.00     0.088 C 
HETATM    3  C   UNK N   1      34.374  16.965   9.075  0.00  0.00     0.073 C 
HETATM    4  C   UNK N   1      34.598  15.973   6.740  0.00  0.00     0.073 C 
HETATM    5  C   UNK N   1      35.168  15.702   9.385  0.00  0.00     0.276 C 
HETATM    6  C   UNK N   1      34.301  14.596   7.339  0.00  0.00     0.276 C 
ENDROOT
BRANCH   1   7
HETATM    7  C   UNK N   1      35.298  13.276   9.046  0.00  0.00     0.272 C 
BRANCH   7   8
HETATM    8  C   UNK N   1      36.083  13.253  10.363  0.00  0.00     0.038 C 
BRANCH   8   9
HETATM    9  C   UNK N   1      35.545  12.229  11.355  0.00  0.00     0.085 C 
BRANCH   9  10
HETATM   10  C   UNK N   1      35.015  12.938  12.567  0.00  0.00     0.159 C 
HETATM   11  O   UNK N   1      34.610  14.086  12.451  0.00  0.00    -0.292 OA
BRANCH  10  12
HETATM   12  C   UNK N   1      34.966  12.264  13.885  0.00  0.00     0.010 A 
HETATM   13  C   UNK N   1      35.712  12.766  14.964  0.00  0.00     0.018 A 
HETATM   14  C   UNK N   1      35.681  12.127  16.205  0.00  0.00     0.043 A 
HETATM   15  C   UNK N   1      34.904  10.980  16.378  0.00  0.00     0.116 A 
HETATM   16  F   UNK N   1      34.879  10.360  17.582  0.00  0.00    -0.206 F 
HETATM   17  C   UNK N   1      34.155  10.473  15.312  0.00  0.00     0.043 A 
HETATM   18  C   UNK N   1      34.185  11.113  14.068  0.00  0.00     0.018 A 
ENDBRANCH  10  12
ENDBRANCH   9  10
ENDBRANCH   8   9
ENDBRANCH   7   8
ENDBRANCH   1   7
BRANCH   2  19
HETATM   19  O   UNK N   1      34.641  18.298   7.130  0.00  0.00    -0.385 OA
HETATM   20  H   UNK N   1      35.584  18.338   6.907  0.00  0.00     0.211 HD
ENDBRANCH   2  19
BRANCH   2  21
HETATM   21  C   UNK N   1      32.528  17.231   7.448  0.00  0.00    -0.024 A 
HETATM   22  C   UNK N   1      31.912  17.071   6.196  0.00  0.00     0.012 A 
HETATM   23  C   UNK N   1      30.526  17.197   6.068  0.00  0.00     0.024 A 
HETATM   24  C   UNK N   1      29.744  17.491   7.187  0.00  0.00     0.034 A 
HETATM   25 Cl   UNK N   1      28.010  17.656   7.023  0.00  0.00    -0.084 Cl
HETATM   26  C   UNK N   1      30.346  17.653   8.437  0.00  0.00     0.024 A 
HETATM   27  C   UNK N   1      31.730  17.525   8.567  0.00  0.00     0.012 A 
ENDBRANCH   2  21
TORSDOF 7
ENDMDL
MODEL 7
REMARK VINA RESULT:      -7.0     11.119     14.780
REMARK  7 active torsions:
REMARK  status: ('A' for Active; 'I' for Inactive)
REMARK    1  A    between atoms: O_3  and  C_6 
REMARK    2  A    between atoms: N_5  and  C_11 
REMARK    3  A    between atoms: C_6  and  C_12 
REMARK    4  A    between atoms: C_11  and  C_13 
REMARK    5  A    between atoms: C_13  and  C_16 
REMARK    6  A    between atoms: C_16  and  C_19 
REMARK    7  A    between atoms: C_19  and  C_21 
ROOT
HETATM    1  N   UNK N   1      21.078  16.820   5.668  0.00  0.00     0.088 N 
HETATM    2  C   UNK N   1      21.942  18.655   3.564  0.00  0.00     0.088 C 
HETATM    3  C   UNK N   1      21.648  17.173   3.283  0.00  0.00     0.073 C 
HETATM    4  C   UNK N   1      21.165  19.174   4.782  0.00  0.00     0.073 C 
HETATM    5  C   UNK N   1      20.677  16.548   4.277  0.00  0.00     0.276 C 
HETATM    6  C   UNK N   1      21.265  18.243   5.992  0.00  0.00     0.276 C 
ENDROOT
BRANCH   1   7
HETATM    7  C   UNK N   1      20.147  16.252   6.654  0.00  0.00     0.272 C 
BRANCH   7   8
HETATM    8  C   UNK N   1      20.692  15.070   7.465  0.00  0.00     0.038 C 
BRANCH   8   9
HETATM    9  C   UNK N   1      20.723  15.344   8.963  0.00  0.00     0.085 C 
BRANCH   9  10
HETATM   10  C   UNK N   1      20.656  14.044   9.710  0.00  0.00     0.159 C 
HETATM   11  O   UNK N   1      19.560  13.559   9.956  0.00  0.00    -0.292 OA
BRANCH  10  12
HETATM   12  C   UNK N   1      21.889  13.343  10.136  0.00  0.00     0.010 A 
HETATM   13  C   UNK N   1      21.865  12.478  11.242  0.00  0.00     0.018 A 
HETATM   14  C   UNK N   1      23.027  11.826  11.657  0.00  0.00     0.043 A 
HETATM   15  C   UNK N   1      24.225  12.033  10.971  0.00  0.00     0.116 A 
HETATM   16  F   UNK N   1      25.351  11.402  11.378  0.00  0.00    -0.206 F 
HETATM   17  C   UNK N   1      24.261  12.889   9.867  0.00  0.00     0.043 A 
HETATM   18  C   UNK N   1      23.096  13.544   9.450  0.00  0.00     0.018 A 
ENDBRANCH  10  12
ENDBRANCH   9  10
ENDBRANCH   8   9
ENDBRANCH   7   8
ENDBRANCH   1   7
BRANCH   2  19
HETATM   19  O   UNK N   1      21.509  19.395   2.460  0.00  0.00    -0.385 OA
HETATM   20  H   UNK N   1      20.584  19.660   2.347  0.00  0.00     0.211 HD
ENDBRANCH   2  19
BRANCH   2  21
HETATM   21  C   UNK N   1      23.437  18.818   3.747  0.00  0.00    -0.024 A 
HETATM   22  C   UNK N   1      24.222  17.748   4.209  0.00  0.00     0.012 A 
HETATM   23  C   UNK N   1      25.596  17.910   4.403  0.00  0.00     0.024 A 
HETATM   24  C   UNK N   1      26.198  19.143   4.145  0.00  0.00     0.034 A 
HETATM   25 Cl   UNK N   1      27.918  19.347   4.397  0.00  0.00    -0.084 Cl
HETATM   26  C   UNK N   1      25.429  20.215   3.687  0.00  0.00     0.024 A 
HETATM   27  C   UNK N   1      24.056  20.054   3.489  0.00  0.00     0.012 A 
ENDBRANCH   2  21
TORSDOF 7
ENDMDL
MODEL 8
REMARK VINA RESULT:      -6.9      5.009     10.105
REMARK  7 active torsions:
REMARK  status: ('A' for Active; 'I' for Inactive)
REMARK    1  A    between atoms: O_3  and  C_6 
REMARK    2  A    between atoms: N_5  and  C_11 
REMARK    3  A    between atoms: C_6  and  C_12 
REMARK    4  A    between atoms: C_11  and  C_13 
REMARK    5  A    between atoms: C_13  and  C_16 
REMARK    6  A    between atoms: C_16  and  C_19 
REMARK    7  A    between atoms: C_19  and  C_21 
ROOT
HETATM    1  N   UNK N   1      35.010  13.113  12.361  0.00  0.00     0.088 N 
HETATM    2  C   UNK N   1      36.445  14.934  10.583  0.00  0.00     0.088 C 
HETATM    3  C   UNK N   1      35.916  15.382  11.954  0.00  0.00     0.073 C 
HETATM    4  C   UNK N   1      36.715  13.424  10.536  0.00  0.00     0.073 C 
HETATM    5  C   UNK N   1      35.760  14.238  12.948  0.00  0.00     0.276 C 
HETATM    6  C   UNK N   1      35.558  12.594  11.098  0.00  0.00     0.276 C 
ENDROOT
BRANCH   1   7
HETATM    7  C   UNK N   1      34.864  11.979  13.287  0.00  0.00     0.272 C 
BRANCH   7   8
HETATM    8  C   UNK N   1      36.040  10.995  13.308  0.00  0.00     0.038 C 
BRANCH   8   9
HETATM    9  C   UNK N   1      36.853  11.072  14.593  0.00  0.00     0.085 C 
BRANCH   9  10
HETATM   10  C   UNK N   1      36.058  10.487  15.724  0.00  0.00     0.159 C 
HETATM   11  O   UNK N   1      35.709   9.317  15.659  0.00  0.00    -0.292 OA
BRANCH  10  12
HETATM   12  C   UNK N   1      35.707  11.300  16.912  0.00  0.00     0.010 A 
HETATM   13  C   UNK N   1      35.358  12.652  16.765  0.00  0.00     0.018 A 
HETATM   14  C   UNK N   1      35.040  13.427  17.881  0.00  0.00     0.043 A 
HETATM   15  C   UNK N   1      35.068  12.857  19.155  0.00  0.00     0.116 A 
HETATM   16  F   UNK N   1      34.763  13.612  20.237  0.00  0.00    -0.206 F 
HETATM   17  C   UNK N   1      35.410  11.511  19.314  0.00  0.00     0.043 A 
HETATM   18  C   UNK N   1      35.729  10.734  18.195  0.00  0.00     0.018 A 
ENDBRANCH  10  12
ENDBRANCH   9  10
ENDBRANCH   8   9
ENDBRANCH   7   8
ENDBRANCH   1   7
BRANCH   2  19
HETATM   19  O   UNK N   1      37.668  15.574  10.365  0.00  0.00    -0.385 OA
HETATM   20  H   UNK N   1      37.738  16.537  10.276  0.00  0.00     0.211 HD
ENDBRANCH   2  19
BRANCH   2  21
HETATM   21  C   UNK N   1      35.443  15.353   9.526  0.00  0.00    -0.024 A 
HETATM   22  C   UNK N   1      35.533  14.851   8.216  0.00  0.00     0.012 A 
HETATM   23  C   UNK N   1      34.625  15.261   7.237  0.00  0.00     0.024 A 
HETATM   24  C   UNK N   1      33.622  16.180   7.554  0.00  0.00     0.034 A 
HETATM   25 Cl   UNK N   1      32.491  16.698   6.324  0.00  0.00    -0.084 Cl
HETATM   26  C   UNK N   1      33.523  16.687   8.851  0.00  0.00     0.024 A 
HETATM   27  C   UNK N   1      34.429  16.277   9.832  0.00  0.00     0.012 A 
ENDBRANCH   2  21
TORSDOF 7
ENDMDL
MODEL 9
REMARK VINA RESULT:      -6.9      4.930      9.738
REMARK  7 active torsions:
REMARK  status: ('A' for Active; 'I' for Inactive)
REMARK    1  A    between atoms: O_3  and  C_6 
REMARK    2  A    between atoms: N_5  and  C_11 
REMARK    3  A    between atoms: C_6  and  C_12 
REMARK    4  A    between atoms: C_11  and  C_13 
REMARK    5  A    between atoms: C_13  and  C_16 
REMARK    6  A    between atoms: C_16  and  C_19 
REMARK    7  A    between atoms: C_19  and  C_21 
ROOT
HETATM    1  N   UNK N   1      35.629  13.421   9.590  0.00  0.00     0.088 N 
HETATM    2  C   UNK N   1      33.071  14.832   9.506  0.00  0.00     0.088 C 
HETATM    3  C   UNK N   1      33.178  13.322   9.245  0.00  0.00     0.073 C 
HETATM    4  C   UNK N   1      34.217  15.345  10.390  0.00  0.00     0.073 C 
HETATM    5  C   UNK N   1      34.395  12.677   9.897  0.00  0.00     0.276 C 
HETATM    6  C   UNK N   1      35.590  14.852   9.929  0.00  0.00     0.276 C 
ENDROOT
BRANCH   1   7
HETATM    7  C   UNK N   1      36.820  12.840  10.227  0.00  0.00     0.272 C 
BRANCH   7   8
HETATM    8  C   UNK N   1      37.101  13.323  11.654  0.00  0.00     0.038 C 
BRANCH   8   9
HETATM    9  C   UNK N   1      36.763  12.279  12.710  0.00  0.00     0.085 C 
BRANCH   9  10
HETATM   10  C   UNK N   1      35.743  12.838  13.659  0.00  0.00     0.159 C 
HETATM   11  O   UNK N   1      34.942  13.664  13.246  0.00  0.00    -0.292 OA
BRANCH  10  12
HETATM   12  C   UNK N   1      35.690  12.395  15.071  0.00  0.00     0.010 A 
HETATM   13  C   UNK N   1      36.221  11.150  15.443  0.00  0.00     0.018 A 
HETATM   14  C   UNK N   1      36.160  10.720  16.769  0.00  0.00     0.043 A 
HETATM   15  C   UNK N   1      35.568  11.533  17.738  0.00  0.00     0.116 A 
HETATM   16  F   UNK N   1      35.508  11.113  19.024  0.00  0.00    -0.206 F 
HETATM   17  C   UNK N   1      35.040  12.777  17.381  0.00  0.00     0.043 A 
HETATM   18  C   UNK N   1      35.100  13.208  16.051  0.00  0.00     0.018 A 
ENDBRANCH  10  12
ENDBRANCH   9  10
ENDBRANCH   8   9
ENDBRANCH   7   8
ENDBRANCH   1   7
BRANCH   2  19
HETATM   19  O   UNK N   1      31.883  15.064  10.205  0.00  0.00    -0.385 OA
HETATM   20  H   UNK N   1      31.044  15.238   9.751  0.00  0.00     0.211 HD
ENDBRANCH   2  19
BRANCH   2  21
HETATM   21  C   UNK N   1      33.037  15.546   8.170  0.00  0.00    -0.024 A 
HETATM   22  C   UNK N   1      33.113  14.820   6.969  0.00  0.00     0.012 A 
HETATM   23  C   UNK N   1      33.110  15.483   5.740  0.00  0.00     0.024 A 
HETATM   24  C   UNK N   1      33.039  16.877   5.697  0.00  0.00     0.034 A 
HETATM   25 Cl   UNK N   1      33.044  17.707   4.156  0.00  0.00    -0.084 Cl
HETATM   26  C   UNK N   1      32.965  17.610   6.883  0.00  0.00     0.024 A 
HETATM   27  C   UNK N   1      32.965  16.949   8.113  0.00  0.00     0.012 A 
ENDBRANCH   2  21
TORSDOF 7
ENDMDL
