MODEL 1
REMARK VINA RESULT:      -6.8      0.000      0.000
REMARK  5 active torsions:
REMARK  status: ('A' for Active; 'I' for Inactive)
REMARK    1  A    between atoms: O_2  and  C_12 
REMARK    2  A    between atoms: O_2  and  C_21 
REMARK       I    between atoms: N_7  and  C_13 
REMARK    3  A    between atoms: N_7  and  C_17 
REMARK    4  A    between atoms: N_10  and  C_19 
REMARK    5  A    between atoms: C_11  and  C_13 
ROOT
HETATM    1  O   UNK N   1      22.343  15.842   4.986  0.00  0.00    -0.267 OA
HETATM    2  N   UNK N   1      20.278  16.676   5.216  0.00  0.00    -0.303 N 
HETATM    3  C   UNK N   1      21.319  15.906   5.647  0.00  0.00     0.260 C 
HETATM    4  H   UNK N   1      19.463  16.712   5.767  0.00  0.00     0.171 HD
ENDROOT
BRANCH   3   5
HETATM    5  C   UNK N   1      21.232  15.134   6.919  0.00  0.00     0.066 A 
HETATM    6  C   UNK N   1      20.869  15.779   8.130  0.00  0.00     0.094 A 
HETATM    7  C   UNK N   1      20.795  15.028   9.314  0.00  0.00     0.038 A 
HETATM    8  C   UNK N   1      21.075  13.661   9.308  0.00  0.00     0.003 A 
HETATM    9  C   UNK N   1      21.432  13.027   8.117  0.00  0.00     0.001 A 
HETATM   10  C   UNK N   1      21.510  13.758   6.928  0.00  0.00     0.020 A 
BRANCH   6  11
HETATM   11  O   UNK N   1      20.601  17.114   8.111  0.00  0.00    -0.278 OA
BRANCH  11  12
HETATM   12  C   UNK N   1      19.682  17.818   8.819  0.00  0.00     0.260 C 
HETATM   13  O   UNK N   1      19.977  18.844   9.409  0.00  0.00    -0.265 OA
HETATM   14  C   UNK N   1      18.279  17.317   8.869  0.00  0.00     0.126 C 
ENDBRANCH  11  12
ENDBRANCH   6  11
ENDBRANCH   3   5
BRANCH   2  15
HETATM   15  C   UNK N   1      20.315  17.433   4.006  0.00  0.00     0.153 A 
HETATM   16  S   UNK N   1      21.005  18.926   3.786  0.00  0.00    -0.028 SA
HETATM   17  C   UNK N   1      20.636  19.091   2.196  0.00  0.00     0.162 A 
HETATM   18  C   UNK N   1      19.941  17.931   1.811  0.00  0.00     0.134 A 
HETATM   19  N   UNK N   1      19.769  17.011   2.833  0.00  0.00    -0.343 N 
ATOM     20  HN  UNK N   1      19.287  16.119   2.719  1.00  0.00     0.167 HD
BRANCH  17  21
HETATM   21  N   UNK N   1      20.966  20.204   1.385  0.00  0.00    -0.107 N 
HETATM   22  O   UNK N   1      21.383  21.324   1.936  0.00  0.00    -0.531 OA
HETATM   23  O   UNK N   1      20.866  20.130   0.198  0.00  0.00    -0.531 OA
ENDBRANCH  17  21
ENDBRANCH   2  15
TORSDOF 5
ENDMDL
MODEL 2
REMARK VINA RESULT:      -6.7     14.894     16.060
REMARK  5 active torsions:
REMARK  status: ('A' for Active; 'I' for Inactive)
REMARK    1  A    between atoms: O_2  and  C_12 
REMARK    2  A    between atoms: O_2  and  C_21 
REMARK       I    between atoms: N_7  and  C_13 
REMARK    3  A    between atoms: N_7  and  C_17 
REMARK    4  A    between atoms: N_10  and  C_19 
REMARK    5  A    between atoms: C_11  and  C_13 
ROOT
HETATM    1  O   UNK N   1      36.431  13.740  12.089  0.00  0.00    -0.267 OA
HETATM    2  N   UNK N   1      34.364  13.914  11.249  0.00  0.00    -0.303 N 
HETATM    3  C   UNK N   1      35.322  13.248  11.957  0.00  0.00     0.260 C 
HETATM    4  H   UNK N   1      33.477  13.498  11.156  0.00  0.00     0.171 HD
ENDROOT
BRANCH   3   5
HETATM    5  C   UNK N   1      35.042  11.922  12.577  0.00  0.00     0.066 A 
HETATM    6  C   UNK N   1      34.714  11.826  13.954  0.00  0.00     0.094 A 
HETATM    7  C   UNK N   1      34.454  10.565  14.514  0.00  0.00     0.038 A 
HETATM    8  C   UNK N   1      34.517   9.413  13.729  0.00  0.00     0.003 A 
HETATM    9  C   UNK N   1      34.839   9.508  12.374  0.00  0.00     0.001 A 
HETATM   10  C   UNK N   1      35.101  10.755  11.800  0.00  0.00     0.020 A 
BRANCH   6  11
HETATM   11  O   UNK N   1      34.659  12.965  14.699  0.00  0.00    -0.278 OA
BRANCH  11  12
HETATM   12  C   UNK N   1      35.477  13.379  15.701  0.00  0.00     0.260 C 
HETATM   13  O   UNK N   1      36.594  13.815  15.477  0.00  0.00    -0.265 OA
HETATM   14  C   UNK N   1      34.987  13.295  17.106  0.00  0.00     0.126 C 
ENDBRANCH  11  12
ENDBRANCH   6  11
ENDBRANCH   3   5
BRANCH   2  15
HETATM   15  C   UNK N   1      34.586  15.186  10.638  0.00  0.00     0.153 A 
HETATM   16  S   UNK N   1      34.213  15.620   9.081  0.00  0.00    -0.028 SA
HETATM   17  C   UNK N   1      34.757  17.166   9.162  0.00  0.00     0.162 A 
HETATM   18  C   UNK N   1      35.255  17.360  10.463  0.00  0.00     0.134 A 
HETATM   19  N   UNK N   1      35.153  16.244  11.279  0.00  0.00    -0.343 N 
ATOM     20  HN  UNK N   1      35.467  16.220  12.249  1.00  0.00     0.167 HD
BRANCH  17  21
HETATM   21  N   UNK N   1      34.721  18.108   8.106  0.00  0.00    -0.107 N 
HETATM   22  O   UNK N   1      34.425  17.722   6.884  0.00  0.00    -0.531 OA
HETATM   23  O   UNK N   1      34.960  19.257   8.321  0.00  0.00    -0.531 OA
ENDBRANCH  17  21
ENDBRANCH   2  15
TORSDOF 5
ENDMDL
MODEL 3
REMARK VINA RESULT:      -6.7     12.707     14.431
REMARK  5 active torsions:
REMARK  status: ('A' for Active; 'I' for Inactive)
REMARK    1  A    between atoms: O_2  and  C_12 
REMARK    2  A    between atoms: O_2  and  C_21 
REMARK       I    between atoms: N_7  and  C_13 
REMARK    3  A    between atoms: N_7  and  C_17 
REMARK    4  A    between atoms: N_10  and  C_19 
REMARK    5  A    between atoms: C_11  and  C_13 
ROOT
HETATM    1  O   UNK N   1      31.863  15.252   9.406  0.00  0.00    -0.267 OA
HETATM    2  N   UNK N   1      33.220  16.950   8.874  0.00  0.00    -0.303 N 
HETATM    3  C   UNK N   1      32.003  16.334   8.859  0.00  0.00     0.260 C 
HETATM    4  H   UNK N   1      33.309  17.822   8.426  0.00  0.00     0.171 HD
ENDROOT
BRANCH   3   5
HETATM    5  C   UNK N   1      30.831  16.958   8.183  0.00  0.00     0.066 A 
HETATM    6  C   UNK N   1      30.795  17.081   6.769  0.00  0.00     0.094 A 
HETATM    7  C   UNK N   1      29.678  17.673   6.157  0.00  0.00     0.038 A 
HETATM    8  C   UNK N   1      28.611  18.138   6.926  0.00  0.00     0.003 A 
HETATM    9  C   UNK N   1      28.646  18.018   8.316  0.00  0.00     0.001 A 
HETATM   10  C   UNK N   1      29.749  17.431   8.942  0.00  0.00     0.020 A 
BRANCH   6  11
HETATM   11  O   UNK N   1      31.849  16.618   6.041  0.00  0.00    -0.278 OA
BRANCH  11  12
HETATM   12  C   UNK N   1      32.797  17.313   5.361  0.00  0.00     0.260 C 
HETATM   13  O   UNK N   1      33.747  17.824   5.929  0.00  0.00    -0.265 OA
HETATM   14  C   UNK N   1      32.663  17.448   3.882  0.00  0.00     0.126 C 
ENDBRANCH  11  12
ENDBRANCH   6  11
ENDBRANCH   3   5
BRANCH   2  15
HETATM   15  C   UNK N   1      34.371  16.391   9.509  0.00  0.00     0.153 A 
HETATM   16  S   UNK N   1      35.309  15.143   8.948  0.00  0.00    -0.028 SA
HETATM   17  C   UNK N   1      36.375  15.109  10.194  0.00  0.00     0.162 A 
HETATM   18  C   UNK N   1      35.988  16.117  11.095  0.00  0.00     0.134 A 
HETATM   19  N   UNK N   1      34.865  16.827  10.699  0.00  0.00    -0.343 N 
ATOM     20  HN  UNK N   1      34.456  17.589  11.240  1.00  0.00     0.167 HD
BRANCH  17  21
HETATM   21  N   UNK N   1      37.472  14.222  10.317  0.00  0.00    -0.107 N 
HETATM   22  O   UNK N   1      38.483  14.300   9.479  0.00  0.00    -0.531 OA
HETATM   23  O   UNK N   1      37.483  13.400  11.182  0.00  0.00    -0.531 OA
ENDBRANCH  17  21
ENDBRANCH   2  15
TORSDOF 5
ENDMDL
MODEL 4
REMARK VINA RESULT:      -6.5     16.762     18.231
REMARK  5 active torsions:
REMARK  status: ('A' for Active; 'I' for Inactive)
REMARK    1  A    between atoms: O_2  and  C_12 
REMARK    2  A    between atoms: O_2  and  C_21 
REMARK       I    between atoms: N_7  and  C_13 
REMARK    3  A    between atoms: N_7  and  C_17 
REMARK    4  A    between atoms: N_10  and  C_19 
REMARK    5  A    between atoms: C_11  and  C_13 
ROOT
HETATM    1  O   UNK N   1      34.056  12.318  14.952  0.00  0.00    -0.267 OA
HETATM    2  N   UNK N   1      36.205  12.934  14.854  0.00  0.00    -0.303 N 
HETATM    3  C   UNK N   1      35.122  12.453  15.530  0.00  0.00     0.260 C 
HETATM    4  H   UNK N   1      37.055  13.034  15.341  0.00  0.00     0.171 HD
ENDROOT
BRANCH   3   5
HETATM    5  C   UNK N   1      35.213  12.085  16.971  0.00  0.00     0.066 A 
HETATM    6  C   UNK N   1      35.222  13.091  17.973  0.00  0.00     0.094 A 
HETATM    7  C   UNK N   1      35.309  12.718  19.323  0.00  0.00     0.038 A 
HETATM    8  C   UNK N   1      35.385  11.372  19.685  0.00  0.00     0.003 A 
HETATM    9  C   UNK N   1      35.376  10.383  18.700  0.00  0.00     0.001 A 
HETATM   10  C   UNK N   1      35.290  10.736  17.351  0.00  0.00     0.020 A 
BRANCH   6  11
HETATM   11  O   UNK N   1      35.147  14.398  17.594  0.00  0.00    -0.278 OA
BRANCH  11  12
HETATM   12  C   UNK N   1      36.056  15.394  17.752  0.00  0.00     0.260 C 
HETATM   13  O   UNK N   1      35.930  16.244  18.618  0.00  0.00    -0.265 OA
HETATM   14  C   UNK N   1      37.233  15.442  16.839  0.00  0.00     0.126 C 
ENDBRANCH  11  12
ENDBRANCH   6  11
ENDBRANCH   3   5
BRANCH   2  15
HETATM   15  C   UNK N   1      36.166  13.300  13.474  0.00  0.00     0.153 A 
HETATM   16  S   UNK N   1      36.100  14.836  12.853  0.00  0.00    -0.028 SA
HETATM   17  C   UNK N   1      36.084  14.417  11.266  0.00  0.00     0.162 A 
HETATM   18  C   UNK N   1      36.132  13.013  11.211  0.00  0.00     0.134 A 
HETATM   19  N   UNK N   1      36.178  12.400  12.453  0.00  0.00    -0.343 N 
ATOM     20  HN  UNK N   1      36.216  11.389  12.586  1.00  0.00     0.167 HD
BRANCH  17  21
HETATM   21  N   UNK N   1      36.032  15.319  10.176  0.00  0.00    -0.107 N 
HETATM   22  O   UNK N   1      35.881  14.867   8.950  0.00  0.00    -0.531 OA
HETATM   23  O   UNK N   1      36.124  16.493  10.366  0.00  0.00    -0.531 OA
ENDBRANCH  17  21
ENDBRANCH   2  15
TORSDOF 5
ENDMDL
MODEL 5
REMARK VINA RESULT:      -6.5     12.766     14.484
REMARK  5 active torsions:
REMARK  status: ('A' for Active; 'I' for Inactive)
REMARK    1  A    between atoms: O_2  and  C_12 
REMARK    2  A    between atoms: O_2  and  C_21 
REMARK       I    between atoms: N_7  and  C_13 
REMARK    3  A    between atoms: N_7  and  C_17 
REMARK    4  A    between atoms: N_10  and  C_19 
REMARK    5  A    between atoms: C_11  and  C_13 
ROOT
HETATM    1  O   UNK N   1      34.631  17.640   7.668  0.00  0.00    -0.267 OA
HETATM    2  N   UNK N   1      33.312  16.009   8.447  0.00  0.00    -0.303 N 
HETATM    3  C   UNK N   1      33.637  16.950   7.514  0.00  0.00     0.260 C 
HETATM    4  H   UNK N   1      32.505  15.464   8.302  0.00  0.00     0.171 HD
ENDROOT
BRANCH   3   5
HETATM    5  C   UNK N   1      32.796  17.156   6.301  0.00  0.00     0.066 A 
HETATM    6  C   UNK N   1      31.380  17.090   6.386  0.00  0.00     0.094 A 
HETATM    7  C   UNK N   1      30.612  17.288   5.227  0.00  0.00     0.038 A 
HETATM    8  C   UNK N   1      31.227  17.548   4.002  0.00  0.00     0.003 A 
HETATM    9  C   UNK N   1      32.618  17.612   3.919  0.00  0.00     0.001 A 
HETATM   10  C   UNK N   1      33.400  17.418   5.062  0.00  0.00     0.020 A 
BRANCH   6  11
HETATM   11  O   UNK N   1      30.804  16.835   7.593  0.00  0.00    -0.278 OA
BRANCH  11  12
HETATM   12  C   UNK N   1      29.866  17.548   8.267  0.00  0.00     0.260 C 
HETATM   13  O   UNK N   1      28.680  17.267   8.204  0.00  0.00    -0.265 OA
HETATM   14  C   UNK N   1      30.305  18.702   9.102  0.00  0.00     0.126 C 
ENDBRANCH  11  12
ENDBRANCH   6  11
ENDBRANCH   3   5
BRANCH   2  15
HETATM   15  C   UNK N   1      34.087  15.775   9.625  0.00  0.00     0.153 A 
HETATM   16  S   UNK N   1      34.373  14.313  10.354  0.00  0.00    -0.028 SA
HETATM   17  C   UNK N   1      35.301  14.875  11.585  0.00  0.00     0.162 A 
HETATM   18  C   UNK N   1      35.396  16.269  11.426  0.00  0.00     0.134 A 
HETATM   19  N   UNK N   1      34.712  16.760  10.325  0.00  0.00    -0.343 N 
ATOM     20  HN  UNK N   1      34.682  17.747  10.070  1.00  0.00     0.167 HD
BRANCH  17  21
HETATM   21  N   UNK N   1      35.885  14.084  12.604  0.00  0.00    -0.107 N 
HETATM   22  O   UNK N   1      37.029  13.469  12.391  0.00  0.00    -0.531 OA
HETATM   23  O   UNK N   1      35.342  13.972  13.660  0.00  0.00    -0.531 OA
ENDBRANCH  17  21
ENDBRANCH   2  15
TORSDOF 5
ENDMDL
MODEL 6
REMARK VINA RESULT:      -6.5     16.933     18.635
REMARK  5 active torsions:
REMARK  status: ('A' for Active; 'I' for Inactive)
REMARK    1  A    between atoms: O_2  and  C_12 
REMARK    2  A    between atoms: O_2  and  C_21 
REMARK       I    between atoms: N_7  and  C_13 
REMARK    3  A    between atoms: N_7  and  C_17 
REMARK    4  A    between atoms: N_10  and  C_19 
REMARK    5  A    between atoms: C_11  and  C_13 
ROOT
HETATM    1  O   UNK N   1      33.874  13.050  15.780  0.00  0.00    -0.267 OA
HETATM    2  N   UNK N   1      35.992  12.876  15.077  0.00  0.00    -0.303 N 
HETATM    3  C   UNK N   1      35.023  12.719  16.025  0.00  0.00     0.260 C 
HETATM    4  H   UNK N   1      36.911  12.602  15.298  0.00  0.00     0.171 HD
ENDROOT
BRANCH   3   5
HETATM    5  C   UNK N   1      35.339  12.146  17.364  0.00  0.00     0.066 A 
HETATM    6  C   UNK N   1      35.860  10.830  17.480  0.00  0.00     0.094 A 
HETATM    7  C   UNK N   1      36.148  10.314  18.754  0.00  0.00     0.038 A 
HETATM    8  C   UNK N   1      35.928  11.082  19.898  0.00  0.00     0.003 A 
HETATM    9  C   UNK N   1      35.416  12.375  19.783  0.00  0.00     0.001 A 
HETATM   10  C   UNK N   1      35.122  12.905  18.524  0.00  0.00     0.020 A 
BRANCH   6  11
HETATM   11  O   UNK N   1      36.066  10.102  16.348  0.00  0.00    -0.278 OA
BRANCH  11  12
HETATM   12  C   UNK N   1      37.234   9.738  15.759  0.00  0.00     0.260 C 
HETATM   13  O   UNK N   1      37.845  10.498  15.026  0.00  0.00    -0.265 OA
HETATM   14  C   UNK N   1      37.774   8.373  16.021  0.00  0.00     0.126 C 
ENDBRANCH  11  12
ENDBRANCH   6  11
ENDBRANCH   3   5
BRANCH   2  15
HETATM   15  C   UNK N   1      35.737  13.420  13.782  0.00  0.00     0.153 A 
HETATM   16  S   UNK N   1      36.230  14.896  13.207  0.00  0.00    -0.028 SA
HETATM   17  C   UNK N   1      35.566  14.769  11.713  0.00  0.00     0.162 A 
HETATM   18  C   UNK N   1      34.927  13.517  11.651  0.00  0.00     0.134 A 
HETATM   19  N   UNK N   1      35.031  12.773  12.816  0.00  0.00    -0.343 N 
ATOM     20  HN  UNK N   1      34.623  11.845  12.934  1.00  0.00     0.167 HD
BRANCH  17  21
HETATM   21  N   UNK N   1      35.636  15.749  10.693  0.00  0.00    -0.107 N 
HETATM   22  O   UNK N   1      34.657  15.870   9.823  0.00  0.00    -0.531 OA
HETATM   23  O   UNK N   1      36.585  16.469  10.620  0.00  0.00    -0.531 OA
ENDBRANCH  17  21
ENDBRANCH   2  15
TORSDOF 5
ENDMDL
MODEL 7
REMARK VINA RESULT:      -6.5      8.102      8.760
REMARK  5 active torsions:
REMARK  status: ('A' for Active; 'I' for Inactive)
REMARK    1  A    between atoms: O_2  and  C_12 
REMARK    2  A    between atoms: O_2  and  C_21 
REMARK       I    between atoms: N_7  and  C_13 
REMARK    3  A    between atoms: N_7  and  C_17 
REMARK    4  A    between atoms: N_10  and  C_19 
REMARK    5  A    between atoms: C_11  and  C_13 
ROOT
HETATM    1  O   UNK N   1      28.769  16.740   4.304  0.00  0.00    -0.267 OA
HETATM    2  N   UNK N   1      28.551  18.737   5.293  0.00  0.00    -0.303 N 
HETATM    3  C   UNK N   1      29.279  17.630   4.966  0.00  0.00     0.260 C 
HETATM    4  H   UNK N   1      28.983  19.441   5.827  0.00  0.00     0.171 HD
ENDROOT
BRANCH   3   5
HETATM    5  C   UNK N   1      30.696  17.482   5.404  0.00  0.00     0.066 A 
HETATM    6  C   UNK N   1      31.007  17.237   6.767  0.00  0.00     0.094 A 
HETATM    7  C   UNK N   1      32.350  17.101   7.152  0.00  0.00     0.038 A 
HETATM    8  C   UNK N   1      33.374  17.205   6.210  0.00  0.00     0.003 A 
HETATM    9  C   UNK N   1      33.068  17.447   4.870  0.00  0.00     0.001 A 
HETATM   10  C   UNK N   1      31.736  17.585   4.468  0.00  0.00     0.020 A 
BRANCH   6  11
HETATM   11  O   UNK N   1      29.990  17.139   7.667  0.00  0.00    -0.278 OA
BRANCH  11  12
HETATM   12  C   UNK N   1      29.610  18.012   8.635  0.00  0.00     0.260 C 
HETATM   13  O   UNK N   1      30.367  18.870   9.057  0.00  0.00    -0.265 OA
HETATM   14  C   UNK N   1      28.230  17.910   9.189  0.00  0.00     0.126 C 
ENDBRANCH  11  12
ENDBRANCH   6  11
ENDBRANCH   3   5
BRANCH   2  15
HETATM   15  C   UNK N   1      27.191  18.923   4.896  0.00  0.00     0.153 A 
HETATM   16  S   UNK N   1      26.616  20.028   3.802  0.00  0.00    -0.028 SA
HETATM   17  C   UNK N   1      25.031  19.617   3.907  0.00  0.00     0.162 A 
HETATM   18  C   UNK N   1      24.938  18.568   4.838  0.00  0.00     0.134 A 
HETATM   19  N   UNK N   1      26.154  18.189   5.384  0.00  0.00    -0.343 N 
ATOM     20  HN  UNK N   1      26.259  17.444   6.074  1.00  0.00     0.167 HD
BRANCH  17  21
HETATM   21  N   UNK N   1      23.973  20.221   3.184  0.00  0.00    -0.107 N 
HETATM   22  O   UNK N   1      24.235  21.005   2.160  0.00  0.00    -0.531 OA
HETATM   23  O   UNK N   1      22.841  20.021   3.501  0.00  0.00    -0.531 OA
ENDBRANCH  17  21
ENDBRANCH   2  15
TORSDOF 5
ENDMDL
MODEL 8
REMARK VINA RESULT:      -6.4     14.191     15.940
REMARK  5 active torsions:
REMARK  status: ('A' for Active; 'I' for Inactive)
REMARK    1  A    between atoms: O_2  and  C_12 
REMARK    2  A    between atoms: O_2  and  C_21 
REMARK       I    between atoms: N_7  and  C_13 
REMARK    3  A    between atoms: N_7  and  C_17 
REMARK    4  A    between atoms: N_10  and  C_19 
REMARK    5  A    between atoms: C_11  and  C_13 
ROOT
HETATM    1  O   UNK N   1      27.236  23.899  -2.840  0.00  0.00    -0.267 OA
HETATM    2  N   UNK N   1      28.662  24.406  -4.489  0.00  0.00    -0.303 N 
HETATM    3  C   UNK N   1      27.510  24.617  -3.789  0.00  0.00     0.260 C 
HETATM    4  H   UNK N   1      28.862  24.997  -5.250  0.00  0.00     0.171 HD
ENDROOT
BRANCH   3   5
HETATM    5  C   UNK N   1      26.571  25.713  -4.159  0.00  0.00     0.066 A 
HETATM    6  C   UNK N   1      25.683  25.561  -5.256  0.00  0.00     0.094 A 
HETATM    7  C   UNK N   1      24.809  26.610  -5.584  0.00  0.00     0.038 A 
HETATM    8  C   UNK N   1      24.808  27.793  -4.843  0.00  0.00     0.003 A 
HETATM    9  C   UNK N   1      25.682  27.942  -3.765  0.00  0.00     0.001 A 
HETATM   10  C   UNK N   1      26.559  26.909  -3.424  0.00  0.00     0.020 A 
BRANCH   6  11
HETATM   11  O   UNK N   1      25.703  24.398  -5.963  0.00  0.00    -0.278 OA
BRANCH  11  12
HETATM   12  C   UNK N   1      25.907  24.200  -7.291  0.00  0.00     0.260 C 
HETATM   13  O   UNK N   1      25.045  23.715  -8.006  0.00  0.00    -0.265 OA
HETATM   14  C   UNK N   1      27.220  24.587  -7.879  0.00  0.00     0.126 C 
ENDBRANCH  11  12
ENDBRANCH   6  11
ENDBRANCH   3   5
BRANCH   2  15
HETATM   15  C   UNK N   1      29.591  23.368  -4.172  0.00  0.00     0.153 A 
HETATM   16  S   UNK N   1      31.117  23.555  -3.549  0.00  0.00    -0.028 SA
HETATM   17  C   UNK N   1      31.507  21.963  -3.477  0.00  0.00     0.162 A 
HETATM   18  C   UNK N   1      30.399  21.245  -3.961  0.00  0.00     0.134 A 
HETATM   19  N   UNK N   1      29.334  22.044  -4.346  0.00  0.00    -0.343 N 
ATOM     20  HN  UNK N   1      28.456  21.679  -4.718  1.00  0.00     0.167 HD
BRANCH  17  21
HETATM   21  N   UNK N   1      32.736  21.437  -3.011  0.00  0.00    -0.107 N 
HETATM   22  O   UNK N   1      33.704  21.165  -3.861  0.00  0.00    -0.531 OA
HETATM   23  O   UNK N   1      32.899  21.238  -1.846  0.00  0.00    -0.531 OA
ENDBRANCH  17  21
ENDBRANCH   2  15
TORSDOF 5
ENDMDL
MODEL 9
REMARK VINA RESULT:      -6.3     16.304     17.889
REMARK  5 active torsions:
REMARK  status: ('A' for Active; 'I' for Inactive)
REMARK    1  A    between atoms: O_2  and  C_12 
REMARK    2  A    between atoms: O_2  and  C_21 
REMARK       I    between atoms: N_7  and  C_13 
REMARK    3  A    between atoms: N_7  and  C_17 
REMARK    4  A    between atoms: N_10  and  C_19 
REMARK    5  A    between atoms: C_11  and  C_13 
ROOT
HETATM    1  O   UNK N   1      37.037  14.441  15.059  0.00  0.00    -0.267 OA
HETATM    2  N   UNK N   1      35.331  13.429  14.021  0.00  0.00    -0.303 N 
HETATM    3  C   UNK N   1      36.081  13.686  15.132  0.00  0.00     0.260 C 
HETATM    4  H   UNK N   1      34.565  12.817  14.104  0.00  0.00     0.171 HD
ENDROOT
BRANCH   3   5
HETATM    5  C   UNK N   1      35.755  13.059  16.444  0.00  0.00     0.066 A 
HETATM    6  C   UNK N   1      35.700  11.646  16.573  0.00  0.00     0.094 A 
HETATM    7  C   UNK N   1      35.391  11.081  17.821  0.00  0.00     0.038 A 
HETATM    8  C   UNK N   1      35.140  11.894  18.927  0.00  0.00     0.003 A 
HETATM    9  C   UNK N   1      35.195  13.282  18.799  0.00  0.00     0.001 A 
HETATM   10  C   UNK N   1      35.500  13.863  17.565  0.00  0.00     0.020 A 
BRANCH   6  11
HETATM   11  O   UNK N   1      35.949  10.874  15.479  0.00  0.00    -0.278 OA
BRANCH  11  12
HETATM   12  C   UNK N   1      35.088  10.141  14.728  0.00  0.00     0.260 C 
HETATM   13  O   UNK N   1      33.950  10.521  14.505  0.00  0.00    -0.265 OA
HETATM   14  C   UNK N   1      35.554   8.842  14.167  0.00  0.00     0.126 C 
ENDBRANCH  11  12
ENDBRANCH   6  11
ENDBRANCH   3   5
BRANCH   2  15
HETATM   15  C   UNK N   1      35.604  14.007  12.743  0.00  0.00     0.153 A 
HETATM   16  S   UNK N   1      35.421  13.280  11.263  0.00  0.00    -0.028 SA
HETATM   17  C   UNK N   1      35.922  14.546  10.348  0.00  0.00     0.162 A 
HETATM   18  C   UNK N   1      36.250  15.589  11.233  0.00  0.00     0.134 A 
HETATM   19  N   UNK N   1      36.067  15.274  12.570  0.00  0.00    -0.343 N 
ATOM     20  HN  UNK N   1      36.259  15.920  13.336  1.00  0.00     0.167 HD
BRANCH  17  21
HETATM   21  N   UNK N   1      36.001  14.561   8.935  0.00  0.00    -0.107 N 
HETATM   22  O   UNK N   1      35.112  15.227   8.229  0.00  0.00    -0.531 OA
HETATM   23  O   UNK N   1      36.874  13.970   8.378  0.00  0.00    -0.531 OA
ENDBRANCH  17  21
ENDBRANCH   2  15
TORSDOF 5
ENDMDL
