MODEL 1
REMARK VINA RESULT:      -6.1      0.000      0.000
REMARK  5 active torsions:
REMARK  status: ('A' for Active; 'I' for Inactive)
REMARK    1  A    between atoms: N_5  and  C_7 
REMARK    2  A    between atoms: N_6  and  C_11 
REMARK    3  A    between atoms: C_7  and  C_8 
REMARK    4  A    between atoms: C_8  and  C_11 
REMARK    5  A    between atoms: C_16  and  C_24 
ROOT
HETATM    1  S   UNK N   1      28.898  18.694   8.307  0.00  0.00    -0.086 SA
HETATM    2  N   UNK N   1      28.778  16.997   5.602  0.00  0.00    -0.345 N 
HETATM    3  C   UNK N   1      28.032  18.226   5.662  0.00  0.00     0.053 A 
HETATM    4  C   UNK N   1      29.824  16.690   6.548  0.00  0.00     0.052 A 
HETATM    5  C   UNK N   1      28.031  19.065   6.797  0.00  0.00     0.032 A 
HETATM    6  C   UNK N   1      30.011  17.424   7.740  0.00  0.00     0.032 A 
HETATM    7  C   UNK N   1      27.259  18.616   4.546  0.00  0.00     0.047 A 
HETATM    8  C   UNK N   1      30.728  15.643   6.274  0.00  0.00     0.031 A 
HETATM    9  C   UNK N   1      26.502  19.797   4.558  0.00  0.00     0.050 A 
HETATM   10  C   UNK N   1      27.255  20.229   6.807  0.00  0.00     0.022 A 
HETATM   11  C   UNK N   1      31.076  17.113   8.597  0.00  0.00     0.021 A 
HETATM   12  C   UNK N   1      26.497  20.594   5.701  0.00  0.00     0.017 A 
HETATM   13  C   UNK N   1      31.790  15.348   7.127  0.00  0.00     0.002 A 
HETATM   14  C   UNK N   1      31.968  16.091   8.287  0.00  0.00     0.002 A 
ENDROOT
BRANCH   2  15
HETATM   15  C   UNK N   1      28.386  16.026   4.576  0.00  0.00     0.131 C 
BRANCH  15  16
HETATM   16  C   UNK N   1      27.389  14.948   4.992  0.00  0.00     0.050 C 
BRANCH  16  17
HETATM   17  C   UNK N   1      26.428  14.518   3.887  0.00  0.00     0.273 C 
BRANCH  17  18
HETATM   18  N   UNK N   1      25.935  15.660   3.106  0.00  0.00     0.080 N 
HETATM   19  C   UNK N   1      25.952  15.348   1.683  0.00  0.00     0.309 C 
HETATM   20  C   UNK N   1      24.567  15.986   3.486  0.00  0.00     0.309 C 
ENDBRANCH  17  18
ENDBRANCH  16  17
ENDBRANCH  15  16
ENDBRANCH   2  15
BRANCH   9  21
HETATM   21  C   UNK N   1      25.709  20.224   3.358  0.00  0.00     0.417 C 
HETATM   22  F   UNK N   1      24.525  20.836   3.733  0.00  0.00    -0.166 F 
HETATM   23  F   UNK N   1      25.408  19.116   2.585  0.00  0.00    -0.166 F 
HETATM   24  F   UNK N   1      26.452  21.112   2.601  0.00  0.00    -0.166 F 
ENDBRANCH   9  21
TORSDOF 5
ENDMDL
MODEL 2
REMARK VINA RESULT:      -6.1      4.624      7.623
REMARK  5 active torsions:
REMARK  status: ('A' for Active; 'I' for Inactive)
REMARK    1  A    between atoms: N_5  and  C_7 
REMARK    2  A    between atoms: N_6  and  C_11 
REMARK    3  A    between atoms: C_7  and  C_8 
REMARK    4  A    between atoms: C_8  and  C_11 
REMARK    5  A    between atoms: C_16  and  C_24 
ROOT
HETATM    1  S   UNK N   1      32.049  16.157   4.494  0.00  0.00    -0.086 SA
HETATM    2  N   UNK N   1      33.399  16.579   7.359  0.00  0.00    -0.345 N 
HETATM    3  C   UNK N   1      32.000  16.884   7.220  0.00  0.00     0.053 A 
HETATM    4  C   UNK N   1      34.109  15.781   6.387  0.00  0.00     0.052 A 
HETATM    5  C   UNK N   1      31.297  16.713   6.008  0.00  0.00     0.032 A 
HETATM    6  C   UNK N   1      33.571  15.474   5.118  0.00  0.00     0.032 A 
HETATM    7  C   UNK N   1      31.291  17.381   8.336  0.00  0.00     0.047 A 
HETATM    8  C   UNK N   1      35.374  15.248   6.711  0.00  0.00     0.031 A 
HETATM    9  C   UNK N   1      29.929  17.708   8.251  0.00  0.00     0.050 A 
HETATM   10  C   UNK N   1      29.945  17.063   5.927  0.00  0.00     0.022 A 
HETATM   11  C   UNK N   1      34.284  14.652   4.233  0.00  0.00     0.021 A 
HETATM   12  C   UNK N   1      29.265  17.557   7.035  0.00  0.00     0.017 A 
HETATM   13  C   UNK N   1      36.069  14.424   5.829  0.00  0.00     0.002 A 
HETATM   14  C   UNK N   1      35.519  14.119   4.591  0.00  0.00     0.002 A 
ENDROOT
BRANCH   2  15
HETATM   15  C   UNK N   1      34.103  17.170   8.500  0.00  0.00     0.131 C 
BRANCH  15  16
HETATM   16  C   UNK N   1      34.262  16.296   9.742  0.00  0.00     0.050 C 
BRANCH  16  17
HETATM   17  C   UNK N   1      35.484  16.626  10.594  0.00  0.00     0.273 C 
BRANCH  17  18
HETATM   18  N   UNK N   1      36.061  15.430  11.222  0.00  0.00     0.080 N 
HETATM   19  C   UNK N   1      35.004  14.545  11.695  0.00  0.00     0.309 C 
HETATM   20  C   UNK N   1      36.879  14.696  10.267  0.00  0.00     0.309 C 
ENDBRANCH  17  18
ENDBRANCH  16  17
ENDBRANCH  15  16
ENDBRANCH   2  15
BRANCH   9  21
HETATM   21  C   UNK N   1      29.172  18.205   9.448  0.00  0.00     0.417 C 
HETATM   22  F   UNK N   1      28.841  17.163  10.297  0.00  0.00    -0.166 F 
HETATM   23  F   UNK N   1      28.006  18.823   9.031  0.00  0.00    -0.166 F 
HETATM   24  F   UNK N   1      29.945  19.119  10.139  0.00  0.00    -0.166 F 
ENDBRANCH   9  21
TORSDOF 5
ENDMDL
MODEL 3
REMARK VINA RESULT:      -6.0      9.986     13.053
REMARK  5 active torsions:
REMARK  status: ('A' for Active; 'I' for Inactive)
REMARK    1  A    between atoms: N_5  and  C_7 
REMARK    2  A    between atoms: N_6  and  C_11 
REMARK    3  A    between atoms: C_7  and  C_8 
REMARK    4  A    between atoms: C_8  and  C_11 
REMARK    5  A    between atoms: C_16  and  C_24 
ROOT
HETATM    1  S   UNK N   1      37.483  10.599  12.001  0.00  0.00    -0.086 SA
HETATM    2  N   UNK N   1      36.639  13.676  12.179  0.00  0.00    -0.345 N 
HETATM    3  C   UNK N   1      36.508  12.869  13.363  0.00  0.00     0.053 A 
HETATM    4  C   UNK N   1      37.442  13.258  11.054  0.00  0.00     0.052 A 
HETATM    5  C   UNK N   1      36.872  11.506  13.405  0.00  0.00     0.032 A 
HETATM    6  C   UNK N   1      37.928  11.939  10.915  0.00  0.00     0.032 A 
HETATM    7  C   UNK N   1      35.988  13.455  14.539  0.00  0.00     0.047 A 
HETATM    8  C   UNK N   1      37.795  14.195  10.062  0.00  0.00     0.031 A 
HETATM    9  C   UNK N   1      35.827  12.711  15.717  0.00  0.00     0.050 A 
HETATM   10  C   UNK N   1      36.686  10.767  14.578  0.00  0.00     0.022 A 
HETATM   11  C   UNK N   1      38.746  11.603   9.827  0.00  0.00     0.021 A 
HETATM   12  C   UNK N   1      36.168  11.360  15.724  0.00  0.00     0.017 A 
HETATM   13  C   UNK N   1      38.617  13.854   8.990  0.00  0.00     0.002 A 
HETATM   14  C   UNK N   1      39.100  12.556   8.878  0.00  0.00     0.002 A 
ENDROOT
BRANCH   2  15
HETATM   15  C   UNK N   1      35.865  14.919  12.127  0.00  0.00     0.131 C 
BRANCH  15  16
HETATM   16  C   UNK N   1      34.547  14.878  11.358  0.00  0.00     0.050 C 
BRANCH  16  17
HETATM   17  C   UNK N   1      34.521  15.747  10.103  0.00  0.00     0.273 C 
BRANCH  17  18
HETATM   18  N   UNK N   1      34.072  14.999   8.921  0.00  0.00     0.080 N 
HETATM   19  C   UNK N   1      34.878  15.353   7.760  0.00  0.00     0.309 C 
HETATM   20  C   UNK N   1      34.199  13.565   9.145  0.00  0.00     0.309 C 
ENDBRANCH  17  18
ENDBRANCH  16  17
ENDBRANCH  15  16
ENDBRANCH   2  15
BRANCH   9  21
HETATM   21  C   UNK N   1      35.305  13.345  16.973  0.00  0.00     0.417 C 
HETATM   22  F   UNK N   1      35.370  12.467  18.041  0.00  0.00    -0.166 F 
HETATM   23  F   UNK N   1      33.986  13.719  16.788  0.00  0.00    -0.166 F 
HETATM   24  F   UNK N   1      36.054  14.469  17.271  0.00  0.00    -0.166 F 
ENDBRANCH   9  21
TORSDOF 5
ENDMDL
MODEL 4
REMARK VINA RESULT:      -6.0     11.069     13.334
REMARK  5 active torsions:
REMARK  status: ('A' for Active; 'I' for Inactive)
REMARK    1  A    between atoms: N_5  and  C_7 
REMARK    2  A    between atoms: N_6  and  C_11 
REMARK    3  A    between atoms: C_7  and  C_8 
REMARK    4  A    between atoms: C_8  and  C_11 
REMARK    5  A    between atoms: C_16  and  C_24 
ROOT
HETATM    1  S   UNK N   1      29.955  27.338  -4.839  0.00  0.00    -0.086 SA
HETATM    2  N   UNK N   1      27.755  25.114  -4.186  0.00  0.00    -0.345 N 
HETATM    3  C   UNK N   1      29.138  24.718  -4.181  0.00  0.00     0.053 A 
HETATM    4  C   UNK N   1      27.355  26.500  -4.125  0.00  0.00     0.052 A 
HETATM    5  C   UNK N   1      30.193  25.622  -4.432  0.00  0.00     0.032 A 
HETATM    6  C   UNK N   1      28.263  27.563  -4.326  0.00  0.00     0.032 A 
HETATM    7  C   UNK N   1      29.466  23.369  -3.919  0.00  0.00     0.047 A 
HETATM    8  C   UNK N   1      26.018  26.828  -3.820  0.00  0.00     0.031 A 
HETATM    9  C   UNK N   1      30.797  22.928  -3.916  0.00  0.00     0.050 A 
HETATM   10  C   UNK N   1      31.516  25.167  -4.449  0.00  0.00     0.022 A 
HETATM   11  C   UNK N   1      27.830  28.890  -4.204  0.00  0.00     0.021 A 
HETATM   12  C   UNK N   1      31.818  23.834  -4.194  0.00  0.00     0.017 A 
HETATM   13  C   UNK N   1      25.599  28.151  -3.691  0.00  0.00     0.002 A 
HETATM   14  C   UNK N   1      26.510  29.183  -3.875  0.00  0.00     0.002 A 
ENDROOT
BRANCH   2  15
HETATM   15  C   UNK N   1      26.756  24.052  -4.328  0.00  0.00     0.131 C 
BRANCH  15  16
HETATM   16  C   UNK N   1      26.117  23.884  -5.704  0.00  0.00     0.050 C 
BRANCH  16  17
HETATM   17  C   UNK N   1      26.837  22.896  -6.618  0.00  0.00     0.273 C 
BRANCH  17  18
HETATM   18  N   UNK N   1      26.065  22.602  -7.833  0.00  0.00     0.080 N 
HETATM   19  C   UNK N   1      24.969  21.692  -7.530  0.00  0.00     0.309 C 
HETATM   20  C   UNK N   1      25.504  23.824  -8.391  0.00  0.00     0.309 C 
ENDBRANCH  17  18
ENDBRANCH  16  17
ENDBRANCH  15  16
ENDBRANCH   2  15
BRANCH   9  21
HETATM   21  C   UNK N   1      31.143  21.501  -3.604  0.00  0.00     0.417 C 
HETATM   22  F   UNK N   1      31.739  20.883  -4.690  0.00  0.00    -0.166 F 
HETATM   23  F   UNK N   1      29.990  20.808  -3.280  0.00  0.00    -0.166 F 
HETATM   24  F   UNK N   1      32.013  21.458  -2.530  0.00  0.00    -0.166 F 
ENDBRANCH   9  21
TORSDOF 5
ENDMDL
MODEL 5
REMARK VINA RESULT:      -6.0     10.879     12.464
REMARK  5 active torsions:
REMARK  status: ('A' for Active; 'I' for Inactive)
REMARK    1  A    between atoms: N_5  and  C_7 
REMARK    2  A    between atoms: N_6  and  C_11 
REMARK    3  A    between atoms: C_7  and  C_8 
REMARK    4  A    between atoms: C_8  and  C_11 
REMARK    5  A    between atoms: C_16  and  C_24 
ROOT
HETATM    1  S   UNK N   1      28.859  23.133  -2.490  0.00  0.00    -0.086 SA
HETATM    2  N   UNK N   1      29.084  23.211  -5.676  0.00  0.00    -0.345 N 
HETATM    3  C   UNK N   1      28.163  24.116  -5.042  0.00  0.00     0.053 A 
HETATM    4  C   UNK N   1      30.131  22.543  -4.940  0.00  0.00     0.052 A 
HETATM    5  C   UNK N   1      27.999  24.184  -3.641  0.00  0.00     0.032 A 
HETATM    6  C   UNK N   1      30.166  22.512  -3.528  0.00  0.00     0.032 A 
HETATM    7  C   UNK N   1      27.380  24.975  -5.845  0.00  0.00     0.047 A 
HETATM    8  C   UNK N   1      31.188  21.923  -5.636  0.00  0.00     0.031 A 
HETATM    9  C   UNK N   1      26.457  25.866  -5.278  0.00  0.00     0.050 A 
HETATM   10  C   UNK N   1      27.060  25.059  -3.087  0.00  0.00     0.022 A 
HETATM   11  C   UNK N   1      31.235  21.892  -2.866  0.00  0.00     0.021 A 
HETATM   12  C   UNK N   1      26.295  25.893  -3.894  0.00  0.00     0.017 A 
HETATM   13  C   UNK N   1      32.252  21.319  -4.969  0.00  0.00     0.002 A 
HETATM   14  C   UNK N   1      32.278  21.311  -3.580  0.00  0.00     0.002 A 
ENDROOT
BRANCH   2  15
HETATM   15  C   UNK N   1      28.876  22.934  -7.100  0.00  0.00     0.131 C 
BRANCH  15  16
HETATM   16  C   UNK N   1      28.203  21.610  -7.454  0.00  0.00     0.050 C 
BRANCH  16  17
HETATM   17  C   UNK N   1      27.003  21.741  -8.388  0.00  0.00     0.273 C 
BRANCH  17  18
HETATM   18  N   UNK N   1      25.860  22.392  -7.733  0.00  0.00     0.080 N 
HETATM   19  C   UNK N   1      25.289  23.412  -8.602  0.00  0.00     0.309 C 
HETATM   20  C   UNK N   1      24.822  21.416  -7.430  0.00  0.00     0.309 C 
ENDBRANCH  17  18
ENDBRANCH  16  17
ENDBRANCH  15  16
ENDBRANCH   2  15
BRANCH   9  21
HETATM   21  C   UNK N   1      25.651  26.800  -6.133  0.00  0.00     0.417 C 
HETATM   22  F   UNK N   1      26.168  28.084  -6.095  0.00  0.00    -0.166 F 
HETATM   23  F   UNK N   1      24.346  26.835  -5.674  0.00  0.00    -0.166 F 
HETATM   24  F   UNK N   1      25.657  26.353  -7.442  0.00  0.00    -0.166 F 
ENDBRANCH   9  21
TORSDOF 5
ENDMDL
MODEL 6
REMARK VINA RESULT:      -5.7      5.418      7.293
REMARK  5 active torsions:
REMARK  status: ('A' for Active; 'I' for Inactive)
REMARK    1  A    between atoms: N_5  and  C_7 
REMARK    2  A    between atoms: N_6  and  C_11 
REMARK    3  A    between atoms: C_7  and  C_8 
REMARK    4  A    between atoms: C_8  and  C_11 
REMARK    5  A    between atoms: C_16  and  C_24 
ROOT
HETATM    1  S   UNK N   1      25.635  16.665   4.759  0.00  0.00    -0.086 SA
HETATM    2  N   UNK N   1      22.697  17.913   4.612  0.00  0.00    -0.345 N 
HETATM    3  C   UNK N   1      22.924  16.826   5.526  0.00  0.00     0.053 A 
HETATM    4  C   UNK N   1      23.784  18.671   4.039  0.00  0.00     0.052 A 
HETATM    5  C   UNK N   1      24.186  16.215   5.690  0.00  0.00     0.032 A 
HETATM    6  C   UNK N   1      25.129  18.246   4.112  0.00  0.00     0.032 A 
HETATM    7  C   UNK N   1      21.844  16.337   6.294  0.00  0.00     0.047 A 
HETATM    8  C   UNK N   1      23.520  19.905   3.409  0.00  0.00     0.031 A 
HETATM    9  C   UNK N   1      22.008  15.270   7.189  0.00  0.00     0.050 A 
HETATM   10  C   UNK N   1      24.334  15.136   6.568  0.00  0.00     0.022 A 
HETATM   11  C   UNK N   1      26.149  19.048   3.583  0.00  0.00     0.021 A 
HETATM   12  C   UNK N   1      23.257  14.666   7.312  0.00  0.00     0.017 A 
HETATM   13  C   UNK N   1      24.542  20.700   2.895  0.00  0.00     0.002 A 
HETATM   14  C   UNK N   1      25.861  20.274   2.991  0.00  0.00     0.002 A 
ENDROOT
BRANCH   2  15
HETATM   15  C   UNK N   1      21.310  18.183   4.223  0.00  0.00     0.131 C 
BRANCH  15  16
HETATM   16  C   UNK N   1      20.875  17.704   2.840  0.00  0.00     0.050 C 
BRANCH  16  17
HETATM   17  C   UNK N   1      20.151  16.361   2.836  0.00  0.00     0.273 C 
BRANCH  17  18
HETATM   18  N   UNK N   1      20.089  15.769   1.492  0.00  0.00     0.080 N 
HETATM   19  C   UNK N   1      19.885  16.806   0.489  0.00  0.00     0.309 C 
HETATM   20  C   UNK N   1      21.329  15.072   1.183  0.00  0.00     0.309 C 
ENDBRANCH  17  18
ENDBRANCH  16  17
ENDBRANCH  15  16
ENDBRANCH   2  15
BRANCH   9  21
HETATM   21  C   UNK N   1      20.865  14.775   8.027  0.00  0.00     0.417 C 
HETATM   22  F   UNK N   1      20.588  13.445   7.761  0.00  0.00    -0.166 F 
HETATM   23  F   UNK N   1      19.734  15.525   7.754  0.00  0.00    -0.166 F 
HETATM   24  F   UNK N   1      21.180  14.908   9.367  0.00  0.00    -0.166 F 
ENDBRANCH   9  21
TORSDOF 5
ENDMDL
MODEL 7
REMARK VINA RESULT:      -5.7     10.876     12.427
REMARK  5 active torsions:
REMARK  status: ('A' for Active; 'I' for Inactive)
REMARK    1  A    between atoms: N_5  and  C_7 
REMARK    2  A    between atoms: N_6  and  C_11 
REMARK    3  A    between atoms: C_7  and  C_8 
REMARK    4  A    between atoms: C_8  and  C_11 
REMARK    5  A    between atoms: C_16  and  C_24 
ROOT
HETATM    1  S   UNK N   1      29.087  22.981  -2.492  0.00  0.00    -0.086 SA
HETATM    2  N   UNK N   1      29.376  23.014  -5.675  0.00  0.00    -0.345 N 
HETATM    3  C   UNK N   1      28.367  23.848  -5.079  0.00  0.00     0.053 A 
HETATM    4  C   UNK N   1      30.460  22.454  -4.902  0.00  0.00     0.052 A 
HETATM    5  C   UNK N   1      28.167  23.930  -3.684  0.00  0.00     0.032 A 
HETATM    6  C   UNK N   1      30.466  22.454  -3.489  0.00  0.00     0.032 A 
HETATM    7  C   UNK N   1      27.531  24.620  -5.917  0.00  0.00     0.047 A 
HETATM    8  C   UNK N   1      31.582  21.913  -5.563  0.00  0.00     0.031 A 
HETATM    9  C   UNK N   1      26.523  25.440  -5.389  0.00  0.00     0.050 A 
HETATM   10  C   UNK N   1      27.143  24.733  -3.169  0.00  0.00     0.022 A 
HETATM   11  C   UNK N   1      31.568  21.943  -2.792  0.00  0.00     0.021 A 
HETATM   12  C   UNK N   1      26.328  25.481  -4.010  0.00  0.00     0.017 A 
HETATM   13  C   UNK N   1      32.678  21.416  -4.860  0.00  0.00     0.002 A 
HETATM   14  C   UNK N   1      32.674  21.439  -3.471  0.00  0.00     0.002 A 
ENDROOT
BRANCH   2  15
HETATM   15  C   UNK N   1      29.224  22.691  -7.096  0.00  0.00     0.131 C 
BRANCH  15  16
HETATM   16  C   UNK N   1      28.515  21.382  -7.434  0.00  0.00     0.050 C 
BRANCH  16  17
HETATM   17  C   UNK N   1      28.686  20.927  -8.881  0.00  0.00     0.273 C 
BRANCH  17  18
HETATM   18  N   UNK N   1      29.462  19.684  -8.983  0.00  0.00     0.080 N 
HETATM   19  C   UNK N   1      30.871  19.981  -9.204  0.00  0.00     0.309 C 
HETATM   20  C   UNK N   1      29.346  18.907  -7.757  0.00  0.00     0.309 C 
ENDBRANCH  17  18
ENDBRANCH  16  17
ENDBRANCH  15  16
ENDBRANCH   2  15
BRANCH   9  21
HETATM   21  C   UNK N   1      25.659  26.283  -6.281  0.00  0.00     0.417 C 
HETATM   22  F   UNK N   1      26.272  27.490  -6.575  0.00  0.00    -0.166 F 
HETATM   23  F   UNK N   1      24.456  26.541  -5.648  0.00  0.00    -0.166 F 
HETATM   24  F   UNK N   1      25.412  25.607  -7.462  0.00  0.00    -0.166 F 
ENDBRANCH   9  21
TORSDOF 5
ENDMDL
MODEL 8
REMARK VINA RESULT:      -5.5      7.994     10.991
REMARK  5 active torsions:
REMARK  status: ('A' for Active; 'I' for Inactive)
REMARK    1  A    between atoms: N_5  and  C_7 
REMARK    2  A    between atoms: N_6  and  C_11 
REMARK    3  A    between atoms: C_7  and  C_8 
REMARK    4  A    between atoms: C_8  and  C_11 
REMARK    5  A    between atoms: C_16  and  C_24 
ROOT
HETATM    1  S   UNK N   1      34.317  17.785   7.987  0.00  0.00    -0.086 SA
HETATM    2  N   UNK N   1      35.411  14.922   7.082  0.00  0.00    -0.345 N 
HETATM    3  C   UNK N   1      35.463  15.254   8.481  0.00  0.00     0.053 A 
HETATM    4  C   UNK N   1      34.589  15.658   6.150  0.00  0.00     0.052 A 
HETATM    5  C   UNK N   1      34.987  16.479   8.995  0.00  0.00     0.032 A 
HETATM    6  C   UNK N   1      33.996  16.899   6.475  0.00  0.00     0.032 A 
HETATM    7  C   UNK N   1      36.016  14.323   9.388  0.00  0.00     0.047 A 
HETATM    8  C   UNK N   1      34.324  15.119   4.875  0.00  0.00     0.031 A 
HETATM    9  C   UNK N   1      36.103  14.601  10.759  0.00  0.00     0.050 A 
HETATM   10  C   UNK N   1      35.099  16.757  10.361  0.00  0.00     0.022 A 
HETATM   11  C   UNK N   1      33.166  17.544   5.549  0.00  0.00     0.021 A 
HETATM   12  C   UNK N   1      35.652  15.830  11.237  0.00  0.00     0.017 A 
HETATM   13  C   UNK N   1      33.488  15.763   3.965  0.00  0.00     0.002 A 
HETATM   14  C   UNK N   1      32.901  16.975   4.307  0.00  0.00     0.002 A 
ENDROOT
BRANCH   2  15
HETATM   15  C   UNK N   1      36.285  13.842   6.617  0.00  0.00     0.131 C 
BRANCH  15  16
HETATM   16  C   UNK N   1      37.632  14.251   6.025  0.00  0.00     0.050 C 
BRANCH  16  17
HETATM   17  C   UNK N   1      38.841  13.828   6.855  0.00  0.00     0.273 C 
BRANCH  17  18
HETATM   18  N   UNK N   1      40.091  14.413   6.352  0.00  0.00     0.080 N 
HETATM   19  C   UNK N   1      41.216  13.533   6.639  0.00  0.00     0.309 C 
HETATM   20  C   UNK N   1      40.019  14.607   4.910  0.00  0.00     0.309 C 
ENDBRANCH  17  18
ENDBRANCH  16  17
ENDBRANCH  15  16
ENDBRANCH   2  15
BRANCH   9  21
HETATM   21  C   UNK N   1      36.662  13.596  11.723  0.00  0.00     0.417 C 
HETATM   22  F   UNK N   1      37.936  13.200  11.351  0.00  0.00    -0.166 F 
HETATM   23  F   UNK N   1      35.844  12.480  11.752  0.00  0.00    -0.166 F 
HETATM   24  F   UNK N   1      36.716  14.147  12.990  0.00  0.00    -0.166 F 
ENDBRANCH   9  21
TORSDOF 5
ENDMDL
MODEL 9
REMARK VINA RESULT:      -5.5     11.132     13.450
REMARK  5 active torsions:
REMARK  status: ('A' for Active; 'I' for Inactive)
REMARK    1  A    between atoms: N_5  and  C_7 
REMARK    2  A    between atoms: N_6  and  C_11 
REMARK    3  A    between atoms: C_7  and  C_8 
REMARK    4  A    between atoms: C_8  and  C_11 
REMARK    5  A    between atoms: C_16  and  C_24 
ROOT
HETATM    1  S   UNK N   1      28.679  22.620  -6.957  0.00  0.00    -0.086 SA
HETATM    2  N   UNK N   1      29.255  24.287  -4.293  0.00  0.00    -0.345 N 
HETATM    3  C   UNK N   1      28.135  24.680  -5.107  0.00  0.00     0.053 A 
HETATM    4  C   UNK N   1      29.891  22.999  -4.436  0.00  0.00     0.052 A 
HETATM    5  C   UNK N   1      27.775  24.001  -6.291  0.00  0.00     0.032 A 
HETATM    6  C   UNK N   1      29.650  22.150  -5.539  0.00  0.00     0.032 A 
HETATM    7  C   UNK N   1      27.359  25.794  -4.717  0.00  0.00     0.047 A 
HETATM    8  C   UNK N   1      30.763  22.534  -3.430  0.00  0.00     0.031 A 
HETATM    9  C   UNK N   1      26.266  26.227  -5.481  0.00  0.00     0.050 A 
HETATM   10  C   UNK N   1      26.697  24.454  -7.058  0.00  0.00     0.022 A 
HETATM   11  C   UNK N   1      30.256  20.888  -5.601  0.00  0.00     0.021 A 
HETATM   12  C   UNK N   1      25.948  25.556  -6.660  0.00  0.00     0.017 A 
HETATM   13  C   UNK N   1      31.353  21.274  -3.495  0.00  0.00     0.002 A 
HETATM   14  C   UNK N   1      31.091  20.446  -4.579  0.00  0.00     0.002 A 
ENDROOT
BRANCH   2  15
HETATM   15  C   UNK N   1      29.777  25.279  -3.349  0.00  0.00     0.131 C 
BRANCH  15  16
HETATM   16  C   UNK N   1      30.906  26.178  -3.848  0.00  0.00     0.050 C 
BRANCH  16  17
HETATM   17  C   UNK N   1      30.534  27.654  -3.961  0.00  0.00     0.273 C 
BRANCH  17  18
HETATM   18  N   UNK N   1      30.927  28.227  -5.256  0.00  0.00     0.080 N 
HETATM   19  C   UNK N   1      32.294  27.847  -5.586  0.00  0.00     0.309 C 
HETATM   20  C   UNK N   1      30.050  27.745  -6.314  0.00  0.00     0.309 C 
ENDBRANCH  17  18
ENDBRANCH  16  17
ENDBRANCH  15  16
ENDBRANCH   2  15
BRANCH   9  21
HETATM   21  C   UNK N   1      25.424  27.390  -5.045  0.00  0.00     0.417 C 
HETATM   22  F   UNK N   1      24.159  27.330  -5.605  0.00  0.00    -0.166 F 
HETATM   23  F   UNK N   1      26.028  28.570  -5.444  0.00  0.00    -0.166 F 
HETATM   24  F   UNK N   1      25.306  27.388  -3.667  0.00  0.00    -0.166 F 
ENDBRANCH   9  21
TORSDOF 5
ENDMDL
