MODEL 1
REMARK VINA RESULT:      -4.2      0.000      0.000
REMARK  7 active torsions:
REMARK  status: ('A' for Active; 'I' for Inactive)
REMARK    1  A    between atoms: O_1  and  C_9 
REMARK    2  A    between atoms: N_3  and  C_8 
REMARK    3  A    between atoms: C_4  and  C_5 
REMARK    4  A    between atoms: C_4  and  C_6 
REMARK    5  A    between atoms: C_5  and  C_7 
REMARK    6  A    between atoms: C_6  and  C_8 
REMARK    7  A    between atoms: C_7  and  C_9 
ROOT
HETATM    1  C   UNK N   1      30.667  17.380   7.722  0.00  0.00     0.002 C 
ENDROOT
BRANCH   1   2
HETATM    2  C   UNK N   1      32.140  17.089   7.887  0.00  0.00     0.010 C 
BRANCH   2   3
HETATM    3  C   UNK N   1      32.899  18.270   8.465  0.00  0.00     0.110 C 
BRANCH   3   4
HETATM    4  C   UNK N   1      34.263  18.392   7.844  0.00  0.00     0.139 C 
HETATM    5  O   UNK N   1      34.513  17.868   6.766  0.00  0.00    -0.650 OA
BRANCH   4   6
HETATM    6  O   UNK N   1      35.224  19.085   8.480  0.00  0.00    -0.776 OA
HETATM    7  H   UNK N   1      36.127  18.893   8.315  0.00  0.00     0.167 HD
ENDBRANCH   4   6
ENDBRANCH   3   4
ENDBRANCH   2   3
ENDBRANCH   1   2
BRANCH   1   8
HETATM    8  C   UNK N   1      30.252  18.198   8.926  0.00  0.00     0.019 C 
BRANCH   8   9
HETATM    9  C   UNK N   1      28.956  17.693   9.515  0.00  0.00     0.111 C 
BRANCH   9  10
HETATM   10  N   UNK N   1      27.867  18.515   9.017  0.00  0.00    -0.430 N 
HETATM   11  H   UNK N   1      27.629  19.387   9.489  0.00  0.00     0.149 HD
HETATM   12  H   UNK N   1      27.340  18.218   8.196  0.00  0.00     0.149 HD
ENDBRANCH   9  10
ENDBRANCH   8   9
ENDBRANCH   1   8
TORSDOF 7
ENDMDL
MODEL 2
REMARK VINA RESULT:      -4.0     10.683     11.011
REMARK  7 active torsions:
REMARK  status: ('A' for Active; 'I' for Inactive)
REMARK    1  A    between atoms: O_1  and  C_9 
REMARK    2  A    between atoms: N_3  and  C_8 
REMARK    3  A    between atoms: C_4  and  C_5 
REMARK    4  A    between atoms: C_4  and  C_6 
REMARK    5  A    between atoms: C_5  and  C_7 
REMARK    6  A    between atoms: C_6  and  C_8 
REMARK    7  A    between atoms: C_7  and  C_9 
ROOT
HETATM    1  C   UNK N   1      35.126  13.321  17.788  0.00  0.00     0.002 C 
ENDROOT
BRANCH   1   2
HETATM    2  C   UNK N   1      35.022  13.243  16.282  0.00  0.00     0.010 C 
BRANCH   2   3
HETATM    3  C   UNK N   1      36.372  13.036  15.621  0.00  0.00     0.110 C 
BRANCH   3   4
HETATM    4  C   UNK N   1      36.948  14.341  15.147  0.00  0.00     0.139 C 
HETATM    5  O   UNK N   1      37.588  15.060  15.905  0.00  0.00    -0.650 OA
BRANCH   4   6
HETATM    6  O   UNK N   1      36.761  14.728  13.873  0.00  0.00    -0.776 OA
HETATM    7  H   UNK N   1      35.892  14.859  13.547  0.00  0.00     0.167 HD
ENDBRANCH   4   6
ENDBRANCH   3   4
ENDBRANCH   2   3
ENDBRANCH   1   2
BRANCH   1   8
HETATM    8  C   UNK N   1      35.332  11.904  18.278  0.00  0.00     0.019 C 
BRANCH   8   9
HETATM    9  C   UNK N   1      35.388  11.846  19.787  0.00  0.00     0.111 C 
BRANCH   9  10
HETATM   10  N   UNK N   1      34.964  13.129  20.318  0.00  0.00    -0.430 N 
HETATM   11  H   UNK N   1      35.302  13.993  19.895  0.00  0.00     0.149 HD
HETATM   12  H   UNK N   1      34.329  13.166  21.115  0.00  0.00     0.149 HD
ENDBRANCH   9  10
ENDBRANCH   8   9
ENDBRANCH   1   8
TORSDOF 7
ENDMDL
MODEL 3
REMARK VINA RESULT:      -3.9      4.675      5.449
REMARK  7 active torsions:
REMARK  status: ('A' for Active; 'I' for Inactive)
REMARK    1  A    between atoms: O_1  and  C_9 
REMARK    2  A    between atoms: N_3  and  C_8 
REMARK    3  A    between atoms: C_4  and  C_5 
REMARK    4  A    between atoms: C_4  and  C_6 
REMARK    5  A    between atoms: C_5  and  C_7 
REMARK    6  A    between atoms: C_6  and  C_8 
REMARK    7  A    between atoms: C_7  and  C_9 
ROOT
HETATM    1  C   UNK N   1      35.294  16.470  10.847  0.00  0.00     0.002 C 
ENDROOT
BRANCH   1   2
HETATM    2  C   UNK N   1      34.791  16.222   9.444  0.00  0.00     0.010 C 
BRANCH   2   3
HETATM    3  C   UNK N   1      33.857  17.318   8.965  0.00  0.00     0.110 C 
BRANCH   3   4
HETATM    4  C   UNK N   1      34.566  18.266   8.038  0.00  0.00     0.139 C 
HETATM    5  O   UNK N   1      34.483  18.138   6.823  0.00  0.00    -0.650 OA
BRANCH   4   6
HETATM    6  O   UNK N   1      35.301  19.269   8.547  0.00  0.00    -0.776 OA
HETATM    7  H   UNK N   1      36.210  19.135   8.735  0.00  0.00     0.167 HD
ENDBRANCH   4   6
ENDBRANCH   3   4
ENDBRANCH   2   3
ENDBRANCH   1   2
BRANCH   1   8
HETATM    8  C   UNK N   1      35.082  15.183  11.614  0.00  0.00     0.019 C 
BRANCH   8   9
HETATM    9  C   UNK N   1      36.163  14.174  11.307  0.00  0.00     0.111 C 
BRANCH   9  10
HETATM   10  N   UNK N   1      36.947  13.950  12.508  0.00  0.00    -0.430 N 
HETATM   11  H   UNK N   1      37.717  13.281  12.498  0.00  0.00     0.149 HD
HETATM   12  H   UNK N   1      36.727  14.462  13.362  0.00  0.00     0.149 HD
ENDBRANCH   9  10
ENDBRANCH   8   9
ENDBRANCH   1   8
TORSDOF 7
ENDMDL
MODEL 4
REMARK VINA RESULT:      -3.9     12.211     12.939
REMARK  7 active torsions:
REMARK  status: ('A' for Active; 'I' for Inactive)
REMARK    1  A    between atoms: O_1  and  C_9 
REMARK    2  A    between atoms: N_3  and  C_8 
REMARK    3  A    between atoms: C_4  and  C_5 
REMARK    4  A    between atoms: C_4  and  C_6 
REMARK    5  A    between atoms: C_5  and  C_7 
REMARK    6  A    between atoms: C_6  and  C_8 
REMARK    7  A    between atoms: C_7  and  C_9 
ROOT
HETATM    1  C   UNK N   1      21.320  17.616   3.325  0.00  0.00     0.002 C 
ENDROOT
BRANCH   1   2
HETATM    2  C   UNK N   1      21.117  18.990   3.920  0.00  0.00     0.010 C 
BRANCH   2   3
HETATM    3  C   UNK N   1      20.315  19.900   3.007  0.00  0.00     0.110 C 
BRANCH   3   4
HETATM    4  C   UNK N   1      21.220  20.737   2.147  0.00  0.00     0.139 C 
HETATM    5  O   UNK N   1      21.304  20.538   0.941  0.00  0.00    -0.650 OA
BRANCH   4   6
HETATM    6  O   UNK N   1      21.948  21.719   2.706  0.00  0.00    -0.776 OA
HETATM    7  H   UNK N   1      22.680  21.507   3.251  0.00  0.00     0.167 HD
ENDBRANCH   4   6
ENDBRANCH   3   4
ENDBRANCH   2   3
ENDBRANCH   1   2
BRANCH   1   8
HETATM    8  C   UNK N   1      20.050  17.280   2.573  0.00  0.00     0.019 C 
BRANCH   8   9
HETATM    9  C   UNK N   1      20.353  16.652   1.233  0.00  0.00     0.111 C 
BRANCH   9  10
HETATM   10  N   UNK N   1      20.090  17.628   0.191  0.00  0.00    -0.430 N 
HETATM   11  H   UNK N   1      20.803  17.832  -0.509  0.00  0.00     0.149 HD
HETATM   12  H   UNK N   1      19.192  18.110   0.159  0.00  0.00     0.149 HD
ENDBRANCH   9  10
ENDBRANCH   8   9
ENDBRANCH   1   8
TORSDOF 7
ENDMDL
MODEL 5
REMARK VINA RESULT:      -3.9     16.384     16.919
REMARK  7 active torsions:
REMARK  status: ('A' for Active; 'I' for Inactive)
REMARK    1  A    between atoms: O_1  and  C_9 
REMARK    2  A    between atoms: N_3  and  C_8 
REMARK    3  A    between atoms: C_4  and  C_5 
REMARK    4  A    between atoms: C_4  and  C_6 
REMARK    5  A    between atoms: C_5  and  C_7 
REMARK    6  A    between atoms: C_6  and  C_8 
REMARK    7  A    between atoms: C_7  and  C_9 
ROOT
HETATM    1  C   UNK N   1      25.555  25.655  -6.258  0.00  0.00     0.002 C 
ENDROOT
BRANCH   1   2
HETATM    2  C   UNK N   1      24.959  26.912  -5.667  0.00  0.00     0.010 C 
BRANCH   2   3
HETATM    3  C   UNK N   1      26.019  27.936  -5.305  0.00  0.00     0.110 C 
BRANCH   3   4
HETATM    4  C   UNK N   1      25.861  28.400  -3.883  0.00  0.00     0.139 C 
HETATM    5  O   UNK N   1      25.658  27.599  -2.979  0.00  0.00    -0.650 OA
BRANCH   4   6
HETATM    6  O   UNK N   1      25.942  29.711  -3.598  0.00  0.00    -0.776 OA
HETATM    7  H   UNK N   1      26.207  29.988  -2.742  0.00  0.00     0.167 HD
ENDBRANCH   4   6
ENDBRANCH   3   4
ENDBRANCH   2   3
ENDBRANCH   1   2
BRANCH   1   8
HETATM    8  C   UNK N   1      25.532  24.612  -5.162  0.00  0.00     0.019 C 
BRANCH   8   9
HETATM    9  C   UNK N   1      26.923  24.327  -4.645  0.00  0.00     0.111 C 
BRANCH   9  10
HETATM   10  N   UNK N   1      27.029  24.837  -3.289  0.00  0.00    -0.430 N 
HETATM   11  H   UNK N   1      26.222  24.803  -2.667  0.00  0.00     0.149 HD
HETATM   12  H   UNK N   1      27.912  25.228  -2.960  0.00  0.00     0.149 HD
ENDBRANCH   9  10
ENDBRANCH   8   9
ENDBRANCH   1   8
TORSDOF 7
ENDMDL
MODEL 6
REMARK VINA RESULT:      -3.8     10.978     11.545
REMARK  7 active torsions:
REMARK  status: ('A' for Active; 'I' for Inactive)
REMARK    1  A    between atoms: O_1  and  C_9 
REMARK    2  A    between atoms: N_3  and  C_8 
REMARK    3  A    between atoms: C_4  and  C_5 
REMARK    4  A    between atoms: C_4  and  C_6 
REMARK    5  A    between atoms: C_5  and  C_7 
REMARK    6  A    between atoms: C_6  and  C_8 
REMARK    7  A    between atoms: C_7  and  C_9 
ROOT
HETATM    1  C   UNK N   1      21.358  12.641   9.876  0.00  0.00     0.002 C 
ENDROOT
BRANCH   1   2
HETATM    2  C   UNK N   1      22.477  11.882  10.552  0.00  0.00     0.010 C 
BRANCH   2   3
HETATM    3  C   UNK N   1      22.327  11.859  12.062  0.00  0.00     0.110 C 
BRANCH   3   4
HETATM    4  C   UNK N   1      23.650  12.083  12.740  0.00  0.00     0.139 C 
HETATM    5  O   UNK N   1      23.721  12.207  13.957  0.00  0.00    -0.650 OA
BRANCH   4   6
HETATM    6  O   UNK N   1      24.773  12.149  12.004  0.00  0.00    -0.776 OA
HETATM    7  H   UNK N   1      24.740  12.486  11.130  0.00  0.00     0.167 HD
ENDBRANCH   4   6
ENDBRANCH   3   4
ENDBRANCH   2   3
ENDBRANCH   1   2
BRANCH   1   8
HETATM    8  C   UNK N   1      21.892  14.028   9.588  0.00  0.00     0.019 C 
BRANCH   8   9
HETATM    9  C   UNK N   1      20.814  14.929   9.034  0.00  0.00     0.111 C 
BRANCH   9  10
HETATM   10  N   UNK N   1      19.571  14.652   9.732  0.00  0.00    -0.430 N 
HETATM   11  H   UNK N   1      19.585  14.151  10.620  0.00  0.00     0.149 HD
HETATM   12  H   UNK N   1      18.684  14.957   9.332  0.00  0.00     0.149 HD
ENDBRANCH   9  10
ENDBRANCH   8   9
ENDBRANCH   1   8
TORSDOF 7
ENDMDL
MODEL 7
REMARK VINA RESULT:      -3.8      2.411      3.016
REMARK  7 active torsions:
REMARK  status: ('A' for Active; 'I' for Inactive)
REMARK    1  A    between atoms: O_1  and  C_9 
REMARK    2  A    between atoms: N_3  and  C_8 
REMARK    3  A    between atoms: C_4  and  C_5 
REMARK    4  A    between atoms: C_4  and  C_6 
REMARK    5  A    between atoms: C_5  and  C_7 
REMARK    6  A    between atoms: C_6  and  C_8 
REMARK    7  A    between atoms: C_7  and  C_9 
ROOT
HETATM    1  C   UNK N   1      31.482  16.577   7.583  0.00  0.00     0.002 C 
ENDROOT
BRANCH   1   2
HETATM    2  C   UNK N   1      32.058  17.675   8.447  0.00  0.00     0.010 C 
BRANCH   2   3
HETATM    3  C   UNK N   1      33.511  17.424   8.805  0.00  0.00     0.110 C 
BRANCH   3   4
HETATM    4  C   UNK N   1      34.430  18.249   7.947  0.00  0.00     0.139 C 
HETATM    5  O   UNK N   1      35.089  19.162   8.429  0.00  0.00    -0.650 OA
BRANCH   4   6
HETATM    6  O   UNK N   1      34.531  17.985   6.633  0.00  0.00    -0.776 OA
HETATM    7  H   UNK N   1      34.397  18.669   6.006  0.00  0.00     0.167 HD
ENDBRANCH   4   6
ENDBRANCH   3   4
ENDBRANCH   2   3
ENDBRANCH   1   2
BRANCH   1   8
HETATM    8  C   UNK N   1      30.814  17.260   6.408  0.00  0.00     0.019 C 
BRANCH   8   9
HETATM    9  C   UNK N   1      31.543  16.972   5.117  0.00  0.00     0.111 C 
BRANCH   9  10
HETATM   10  N   UNK N   1      30.943  17.762   4.057  0.00  0.00    -0.430 N 
HETATM   11  H   UNK N   1      30.876  17.381   3.113  0.00  0.00     0.149 HD
HETATM   12  H   UNK N   1      30.589  18.697   4.257  0.00  0.00     0.149 HD
ENDBRANCH   9  10
ENDBRANCH   8   9
ENDBRANCH   1   8
TORSDOF 7
ENDMDL
MODEL 8
REMARK VINA RESULT:      -3.7     10.936     11.857
REMARK  7 active torsions:
REMARK  status: ('A' for Active; 'I' for Inactive)
REMARK    1  A    between atoms: O_1  and  C_9 
REMARK    2  A    between atoms: N_3  and  C_8 
REMARK    3  A    between atoms: C_4  and  C_5 
REMARK    4  A    between atoms: C_4  and  C_6 
REMARK    5  A    between atoms: C_5  and  C_7 
REMARK    6  A    between atoms: C_6  and  C_8 
REMARK    7  A    between atoms: C_7  and  C_9 
ROOT
HETATM    1  C   UNK N   1      21.756  12.518  10.800  0.00  0.00     0.002 C 
ENDROOT
BRANCH   1   2
HETATM    2  C   UNK N   1      21.561  13.382   9.575  0.00  0.00     0.010 C 
BRANCH   2   3
HETATM    3  C   UNK N   1      20.320  14.251   9.675  0.00  0.00     0.110 C 
BRANCH   3   4
HETATM    4  C   UNK N   1      20.291  15.280   8.579  0.00  0.00     0.139 C 
HETATM    5  O   UNK N   1      19.831  15.011   7.475  0.00  0.00    -0.650 OA
BRANCH   4   6
HETATM    6  O   UNK N   1      20.774  16.512   8.810  0.00  0.00    -0.776 OA
HETATM    7  H   UNK N   1      20.766  16.863   9.679  0.00  0.00     0.167 HD
ENDBRANCH   4   6
ENDBRANCH   3   4
ENDBRANCH   2   3
ENDBRANCH   1   2
BRANCH   1   8
HETATM    8  C   UNK N   1      22.971  11.658  10.530  0.00  0.00     0.019 C 
BRANCH   8   9
HETATM    9  C   UNK N   1      24.081  11.951  11.512  0.00  0.00     0.111 C 
BRANCH   9  10
HETATM   10  N   UNK N   1      25.092  12.754  10.847  0.00  0.00    -0.430 N 
HETATM   11  H   UNK N   1      26.016  12.362  10.665  0.00  0.00     0.149 HD
HETATM   12  H   UNK N   1      24.878  13.709  10.561  0.00  0.00     0.149 HD
ENDBRANCH   9  10
ENDBRANCH   8   9
ENDBRANCH   1   8
TORSDOF 7
ENDMDL
MODEL 9
REMARK VINA RESULT:      -3.7      9.752     10.883
REMARK  7 active torsions:
REMARK  status: ('A' for Active; 'I' for Inactive)
REMARK    1  A    between atoms: O_1  and  C_9 
REMARK    2  A    between atoms: N_3  and  C_8 
REMARK    3  A    between atoms: C_4  and  C_5 
REMARK    4  A    between atoms: C_4  and  C_6 
REMARK    5  A    between atoms: C_5  and  C_7 
REMARK    6  A    between atoms: C_6  and  C_8 
REMARK    7  A    between atoms: C_7  and  C_9 
ROOT
HETATM    1  C   UNK N   1      20.943  12.773  10.367  0.00  0.00     0.002 C 
ENDROOT
BRANCH   1   2
HETATM    2  C   UNK N   1      22.116  12.273  11.177  0.00  0.00     0.010 C 
BRANCH   2   3
HETATM    3  C   UNK N   1      23.204  11.671  10.305  0.00  0.00     0.110 C 
BRANCH   3   4
HETATM    4  C   UNK N   1      24.503  12.407  10.476  0.00  0.00     0.139 C 
HETATM    5  O   UNK N   1      24.968  13.083   9.566  0.00  0.00    -0.650 OA
BRANCH   4   6
HETATM    6  O   UNK N   1      25.167  12.325  11.642  0.00  0.00    -0.776 OA
HETATM    7  H   UNK N   1      26.022  11.942  11.668  0.00  0.00     0.167 HD
ENDBRANCH   4   6
ENDBRANCH   3   4
ENDBRANCH   2   3
ENDBRANCH   1   2
BRANCH   1   8
HETATM    8  C   UNK N   1      21.381  14.076   9.734  0.00  0.00     0.019 C 
BRANCH   8   9
HETATM    9  C   UNK N   1      20.211  14.814   9.128  0.00  0.00     0.111 C 
BRANCH   9  10
HETATM   10  N   UNK N   1      20.429  14.938   7.698  0.00  0.00    -0.430 N 
HETATM   11  H   UNK N   1      20.674  15.843   7.295  0.00  0.00     0.149 HD
HETATM   12  H   UNK N   1      20.336  14.120   7.096  0.00  0.00     0.149 HD
ENDBRANCH   9  10
ENDBRANCH   8   9
ENDBRANCH   1   8
TORSDOF 7
ENDMDL
