REMARK  4 active torsions:
REMARK  status: ('A' for Active; 'I' for Inactive)
REMARK    1  A    between atoms: S_1  and  C_10 
REMARK    2  A    between atoms: S_1  and  C_14 
REMARK    3  A    between atoms: O_2  and  C_18 
REMARK       I    between atoms: N_7  and  C_13 
REMARK       I    between atoms: N_7  and  C_18 
REMARK    4  A    between atoms: C_14  and  C_16 
ROOT
HETATM    1  O   UNK N   1       9.474  -1.989  -0.150  0.00  0.00    -0.238 OA
HETATM    2  N   UNK N   1       7.076   1.366   0.071  0.00  0.00    -0.189 N 
HETATM    3  N   UNK N   1       7.014  -0.900   0.112  0.00  0.00    -0.189 N 
ATOM      4  HN  UNK N   1       7.308  -1.875   0.165  1.00  0.00     0.184 HD
HETATM    5  N   UNK N   1       9.209   0.207   0.236  0.00  0.00    -0.135 N 
HETATM    6  C   UNK N   1       5.811   0.945  -0.060  0.00  0.00     0.077 A 
HETATM    7  C   UNK N   1       5.771  -0.415  -0.031  0.00  0.00     0.076 A 
HETATM    8  C   UNK N   1       3.446   1.044  -0.419  0.00  0.00     0.002 A 
HETATM    9  C   UNK N   1       4.672   1.716  -0.252  0.00  0.00     0.051 A 
HETATM   10  C   UNK N   1       4.581  -1.122  -0.177  0.00  0.00     0.034 A 
HETATM   11  C   UNK N   1       7.789   0.216   0.168  0.00  0.00     0.687 A 
HETATM   12  C   UNK N   1       3.402  -0.375  -0.383  0.00  0.00     0.021 A 
HETATM   13  C   UNK N   1       9.982  -0.898   0.078  0.00  0.00     0.378 C 
HETATM   14  H   UNK N   1       7.410   2.292   0.091  0.00  0.00     0.184 HD
HETATM   15  H   UNK N   1       9.664   1.063   0.408  0.00  0.00     0.189 HD
ENDROOT
BRANCH  13  16
HETATM   16  O   UNK N   1      11.329  -0.769   0.137  0.00  0.00    -0.308 OA
HETATM   17  C   UNK N   1      12.182  -1.826  -0.083  0.00  0.00     0.215 C 
ENDBRANCH  13  16
BRANCH   8  18
HETATM   18  S   UNK N   1       1.980   2.010  -0.792  0.00  0.00    -0.130 SA
BRANCH  18  19
HETATM   19  C   UNK N   1       0.930   1.274   0.492  0.00  0.00     0.079 C 
BRANCH  19  20
HETATM   20  C   UNK N   1      -0.318   0.724  -0.168  0.00  0.00     0.006 C 
HETATM   21  C   UNK N   1      -1.184   0.034   0.864  0.00  0.00     0.006 C 
ENDBRANCH  19  20
ENDBRANCH  18  19
ENDBRANCH   8  18
TORSDOF 4
