MODEL 1
REMARK VINA RESULT:      -6.0      0.000      0.000
REMARK  4 active torsions:
REMARK  status: ('A' for Active; 'I' for Inactive)
REMARK    1  A    between atoms: S_1  and  C_10 
REMARK    2  A    between atoms: S_1  and  C_14 
REMARK    3  A    between atoms: O_2  and  C_18 
REMARK       I    between atoms: N_7  and  C_13 
REMARK       I    between atoms: N_7  and  C_18 
REMARK    4  A    between atoms: C_14  and  C_16 
ROOT
HETATM    1  O   UNK N   1      34.887  17.322   7.720  0.00  0.00    -0.238 OA
HETATM    2  N   UNK N   1      30.822  17.568   8.403  0.00  0.00    -0.189 N 
HETATM    3  N   UNK N   1      32.355  17.070   6.809  0.00  0.00    -0.189 N 
ATOM      4  HN  UNK N   1      33.241  16.849   6.353  1.00  0.00     0.184 HD
HETATM    5  N   UNK N   1      33.136  17.361   9.125  0.00  0.00    -0.135 N 
HETATM    6  C   UNK N   1      30.225  17.503   7.205  0.00  0.00     0.077 A 
HETATM    7  C   UNK N   1      31.143  17.199   6.248  0.00  0.00     0.076 A 
HETATM    8  C   UNK N   1      28.501  17.668   5.553  0.00  0.00     0.002 A 
HETATM    9  C   UNK N   1      28.892  17.745   6.903  0.00  0.00     0.051 A 
HETATM   10  C   UNK N   1      30.801  17.097   4.902  0.00  0.00     0.034 A 
HETATM   11  C   UNK N   1      32.124  17.306   8.128  0.00  0.00     0.687 A 
HETATM   12  C   UNK N   1      29.456  17.346   4.553  0.00  0.00     0.021 A 
HETATM   13  C   UNK N   1      34.470  17.361   8.871  0.00  0.00     0.378 C 
HETATM   14  H   UNK N   1      30.412  17.763   9.277  0.00  0.00     0.184 HD
HETATM   15  H   UNK N   1      32.849  17.403  10.066  0.00  0.00     0.189 HD
ENDROOT
BRANCH  13  16
HETATM   16  O   UNK N   1      35.335  17.446   9.910  0.00  0.00    -0.308 OA
HETATM   17  C   UNK N   1      35.516  16.417  10.806  0.00  0.00     0.215 C 
ENDBRANCH  13  16
BRANCH   8  18
HETATM   18  S   UNK N   1      26.813  18.098   5.121  0.00  0.00    -0.130 SA
BRANCH  18  19
HETATM   19  C   UNK N   1      27.206  19.706   4.378  0.00  0.00     0.079 C 
BRANCH  19  20
HETATM   20  C   UNK N   1      26.557  20.791   5.215  0.00  0.00     0.006 C 
HETATM   21  C   UNK N   1      27.533  21.286   6.260  0.00  0.00     0.006 C 
ENDBRANCH  19  20
ENDBRANCH  18  19
ENDBRANCH   8  18
TORSDOF 4
ENDMDL
MODEL 2
REMARK VINA RESULT:      -5.9      5.837     10.435
REMARK  4 active torsions:
REMARK  status: ('A' for Active; 'I' for Inactive)
REMARK    1  A    between atoms: S_1  and  C_10 
REMARK    2  A    between atoms: S_1  and  C_14 
REMARK    3  A    between atoms: O_2  and  C_18 
REMARK       I    between atoms: N_7  and  C_13 
REMARK       I    between atoms: N_7  and  C_18 
REMARK    4  A    between atoms: C_14  and  C_16 
ROOT
HETATM    1  O   UNK N   1      35.670  17.524  10.317  0.00  0.00    -0.238 OA
HETATM    2  N   UNK N   1      34.275  13.781  11.364  0.00  0.00    -0.189 N 
HETATM    3  N   UNK N   1      35.546  15.504  12.109  0.00  0.00    -0.189 N 
ATOM      4  HN  UNK N   1      35.975  16.426  12.190  1.00  0.00     0.184 HD
HETATM    5  N   UNK N   1      34.201  15.843  10.075  0.00  0.00    -0.135 N 
HETATM    6  C   UNK N   1      34.973  13.396  12.441  0.00  0.00     0.077 A 
HETATM    7  C   UNK N   1      35.733  14.431  12.893  0.00  0.00     0.076 A 
HETATM    8  C   UNK N   1      35.863  11.955  14.133  0.00  0.00     0.002 A 
HETATM    9  C   UNK N   1      35.006  12.140  13.031  0.00  0.00     0.051 A 
HETATM   10  C   UNK N   1      36.583  14.300  13.987  0.00  0.00     0.034 A 
HETATM   11  C   UNK N   1      34.650  15.071  11.182  0.00  0.00     0.687 A 
HETATM   12  C   UNK N   1      36.652  13.036  14.609  0.00  0.00     0.021 A 
HETATM   13  C   UNK N   1      34.732  17.035   9.700  0.00  0.00     0.378 C 
HETATM   14  H   UNK N   1      33.640  13.251  10.830  0.00  0.00     0.184 HD
HETATM   15  H   UNK N   1      33.454  15.487   9.542  0.00  0.00     0.189 HD
ENDROOT
BRANCH  13  16
HETATM   16  O   UNK N   1      34.232  17.660   8.607  0.00  0.00    -0.308 OA
HETATM   17  C   UNK N   1      32.903  17.585   8.257  0.00  0.00     0.215 C 
ENDBRANCH  13  16
BRANCH   8  18
HETATM   18  S   UNK N   1      36.018  10.311  14.835  0.00  0.00    -0.130 SA
BRANCH  18  19
HETATM   19  C   UNK N   1      34.854  10.573  16.203  0.00  0.00     0.079 C 
BRANCH  19  20
HETATM   20  C   UNK N   1      35.650  10.882  17.455  0.00  0.00     0.006 C 
HETATM   21  C   UNK N   1      35.240  12.232  18.003  0.00  0.00     0.006 C 
ENDBRANCH  19  20
ENDBRANCH  18  19
ENDBRANCH   8  18
TORSDOF 4
ENDMDL
MODEL 3
REMARK VINA RESULT:      -5.9      7.476     11.848
REMARK  4 active torsions:
REMARK  status: ('A' for Active; 'I' for Inactive)
REMARK    1  A    between atoms: S_1  and  C_10 
REMARK    2  A    between atoms: S_1  and  C_14 
REMARK    3  A    between atoms: O_2  and  C_18 
REMARK       I    between atoms: N_7  and  C_13 
REMARK       I    between atoms: N_7  and  C_18 
REMARK    4  A    between atoms: C_14  and  C_16 
ROOT
HETATM    1  O   UNK N   1      34.159  15.148  11.346  0.00  0.00    -0.238 OA
HETATM    2  N   UNK N   1      36.901  13.335  13.846  0.00  0.00    -0.189 N 
HETATM    3  N   UNK N   1      34.825  13.091  12.969  0.00  0.00    -0.189 N 
ATOM      4  HN  UNK N   1      33.999  13.224  12.385  1.00  0.00     0.184 HD
HETATM    5  N   UNK N   1      36.267  14.872  12.070  0.00  0.00    -0.135 N 
HETATM    6  C   UNK N   1      36.248  12.360  14.492  0.00  0.00     0.077 A 
HETATM    7  C   UNK N   1      35.003  12.209  13.964  0.00  0.00     0.076 A 
HETATM    8  C   UNK N   1      35.800  10.670  16.128  0.00  0.00     0.002 A 
HETATM    9  C   UNK N   1      36.690  11.611  15.575  0.00  0.00     0.051 A 
HETATM   10  C   UNK N   1      34.095  11.282  14.468  0.00  0.00     0.034 A 
HETATM   11  C   UNK N   1      36.004  13.767  12.925  0.00  0.00     0.687 A 
HETATM   12  C   UNK N   1      34.502  10.508  15.575  0.00  0.00     0.021 A 
HETATM   13  C   UNK N   1      35.330  15.505  11.318  0.00  0.00     0.378 C 
HETATM   14  H   UNK N   1      37.817  13.662  14.003  0.00  0.00     0.184 HD
HETATM   15  H   UNK N   1      37.193  15.202  12.020  0.00  0.00     0.189 HD
ENDROOT
BRANCH  13  16
HETATM   16  O   UNK N   1      35.704  16.567  10.564  0.00  0.00    -0.308 OA
HETATM   17  C   UNK N   1      34.921  17.061   9.546  0.00  0.00     0.215 C 
ENDBRANCH  13  16
BRANCH   8  18
HETATM   18  S   UNK N   1      36.299   9.779  17.604  0.00  0.00    -0.130 SA
BRANCH  18  19
HETATM   19  C   UNK N   1      34.910  10.320  18.638  0.00  0.00     0.079 C 
BRANCH  19  20
HETATM   20  C   UNK N   1      35.431  11.311  19.659  0.00  0.00     0.006 C 
HETATM   21  C   UNK N   1      35.276  12.721  19.132  0.00  0.00     0.006 C 
ENDBRANCH  19  20
ENDBRANCH  18  19
ENDBRANCH   8  18
TORSDOF 4
ENDMDL
MODEL 4
REMARK VINA RESULT:      -5.7      4.181      5.699
REMARK  4 active torsions:
REMARK  status: ('A' for Active; 'I' for Inactive)
REMARK    1  A    between atoms: S_1  and  C_10 
REMARK    2  A    between atoms: S_1  and  C_14 
REMARK    3  A    between atoms: O_2  and  C_18 
REMARK       I    between atoms: N_7  and  C_13 
REMARK       I    between atoms: N_7  and  C_18 
REMARK    4  A    between atoms: C_14  and  C_16 
ROOT
HETATM    1  O   UNK N   1      34.935  13.366  13.366  0.00  0.00    -0.238 OA
HETATM    2  N   UNK N   1      35.684  16.317  10.576  0.00  0.00    -0.189 N 
HETATM    3  N   UNK N   1      34.090  14.870  11.285  0.00  0.00    -0.189 N 
ATOM      4  HN  UNK N   1      33.581  14.194  11.855  1.00  0.00     0.184 HD
HETATM    5  N   UNK N   1      36.105  15.151  12.670  0.00  0.00    -0.135 N 
HETATM    6  C   UNK N   1      34.695  16.255   9.675  0.00  0.00     0.077 A 
HETATM    7  C   UNK N   1      33.735  15.390  10.101  0.00  0.00     0.076 A 
HETATM    8  C   UNK N   1      33.496  16.642   7.639  0.00  0.00     0.002 A 
HETATM    9  C   UNK N   1      34.617  16.904   8.449  0.00  0.00     0.051 A 
HETATM   10  C   UNK N   1      32.603  15.111   9.341  0.00  0.00     0.034 A 
HETATM   11  C   UNK N   1      35.289  15.455  11.547  0.00  0.00     0.687 A 
HETATM   12  C   UNK N   1      32.491  15.744   8.085  0.00  0.00     0.021 A 
HETATM   13  C   UNK N   1      35.885  14.123  13.528  0.00  0.00     0.378 C 
HETATM   14  H   UNK N   1      36.505  16.860  10.543  0.00  0.00     0.184 HD
HETATM   15  H   UNK N   1      36.887  15.727  12.836  0.00  0.00     0.189 HD
ENDROOT
BRANCH  13  16
HETATM   16  O   UNK N   1      36.755  13.921  14.547  0.00  0.00    -0.308 OA
HETATM   17  C   UNK N   1      37.097  14.917  15.433  0.00  0.00     0.215 C 
ENDBRANCH  13  16
BRANCH   8  18
HETATM   18  S   UNK N   1      33.432  17.370   5.999  0.00  0.00    -0.130 SA
BRANCH  18  19
HETATM   19  C   UNK N   1      31.640  17.189   5.777  0.00  0.00     0.079 C 
BRANCH  19  20
HETATM   20  C   UNK N   1      31.369  16.864   4.322  0.00  0.00     0.006 C 
HETATM   21  C   UNK N   1      32.560  17.261   3.476  0.00  0.00     0.006 C 
ENDBRANCH  19  20
ENDBRANCH  18  19
ENDBRANCH   8  18
TORSDOF 4
ENDMDL
MODEL 5
REMARK VINA RESULT:      -5.6      4.404      6.196
REMARK  4 active torsions:
REMARK  status: ('A' for Active; 'I' for Inactive)
REMARK    1  A    between atoms: S_1  and  C_10 
REMARK    2  A    between atoms: S_1  and  C_14 
REMARK    3  A    between atoms: O_2  and  C_18 
REMARK       I    between atoms: N_7  and  C_13 
REMARK       I    between atoms: N_7  and  C_18 
REMARK    4  A    between atoms: C_14  and  C_16 
ROOT
HETATM    1  O   UNK N   1      36.643  14.806  14.272  0.00  0.00    -0.238 OA
HETATM    2  N   UNK N   1      34.113  13.839  11.155  0.00  0.00    -0.189 N 
HETATM    3  N   UNK N   1      35.668  15.353  11.811  0.00  0.00    -0.189 N 
ATOM      4  HN  UNK N   1      36.417  15.805  12.335  1.00  0.00     0.184 HD
HETATM    5  N   UNK N   1      35.384  13.315  13.162  0.00  0.00    -0.135 N 
HETATM    6  C   UNK N   1      34.087  14.900  10.336  0.00  0.00     0.077 A 
HETATM    7  C   UNK N   1      35.022  15.808  10.726  0.00  0.00     0.076 A 
HETATM    8  C   UNK N   1      33.355  16.352   8.579  0.00  0.00     0.002 A 
HETATM    9  C   UNK N   1      33.230  15.130   9.268  0.00  0.00     0.051 A 
HETATM   10  C   UNK N   1      35.192  17.022  10.068  0.00  0.00     0.034 A 
HETATM   11  C   UNK N   1      35.085  14.148  12.049  0.00  0.00     0.687 A 
HETATM   12  C   UNK N   1      34.335  17.298   8.981  0.00  0.00     0.021 A 
HETATM   13  C   UNK N   1      36.154  13.685  14.218  0.00  0.00     0.378 C 
HETATM   14  H   UNK N   1      33.557  13.027  11.117  0.00  0.00     0.184 HD
HETATM   15  H   UNK N   1      35.006  12.406  13.168  0.00  0.00     0.189 HD
ENDROOT
BRANCH  13  16
HETATM   16  O   UNK N   1      36.341  12.806  15.231  0.00  0.00    -0.308 OA
HETATM   17  C   UNK N   1      35.675  12.911  16.431  0.00  0.00     0.215 C 
ENDBRANCH  13  16
BRANCH   8  18
HETATM   18  S   UNK N   1      32.181  16.727   7.275  0.00  0.00    -0.130 SA
BRANCH  18  19
HETATM   19  C   UNK N   1      30.739  16.918   8.360  0.00  0.00     0.079 C 
BRANCH  19  20
HETATM   20  C   UNK N   1      30.685  18.355   8.836  0.00  0.00     0.006 C 
HETATM   21  C   UNK N   1      29.568  18.522   9.844  0.00  0.00     0.006 C 
ENDBRANCH  19  20
ENDBRANCH  18  19
ENDBRANCH   8  18
TORSDOF 4
ENDMDL
MODEL 6
REMARK VINA RESULT:      -5.5      2.960      3.730
REMARK  4 active torsions:
REMARK  status: ('A' for Active; 'I' for Inactive)
REMARK    1  A    between atoms: S_1  and  C_10 
REMARK    2  A    between atoms: S_1  and  C_14 
REMARK    3  A    between atoms: O_2  and  C_18 
REMARK       I    between atoms: N_7  and  C_13 
REMARK       I    between atoms: N_7  and  C_18 
REMARK    4  A    between atoms: C_14  and  C_16 
ROOT
HETATM    1  O   UNK N   1      36.471  16.419  10.688  0.00  0.00    -0.238 OA
HETATM    2  N   UNK N   1      32.591  15.756   9.439  0.00  0.00    -0.189 N 
HETATM    3  N   UNK N   1      34.645  16.364   8.696  0.00  0.00    -0.189 N 
ATOM      4  HN  UNK N   1      35.650  16.528   8.658  1.00  0.00     0.184 HD
HETATM    5  N   UNK N   1      34.447  15.496  10.991  0.00  0.00    -0.135 N 
HETATM    6  C   UNK N   1      32.495  16.252   8.198  0.00  0.00     0.077 A 
HETATM    7  C   UNK N   1      33.728  16.613   7.748  0.00  0.00     0.076 A 
HETATM    8  C   UNK N   1      31.485  17.038   6.175  0.00  0.00     0.002 A 
HETATM    9  C   UNK N   1      31.345  16.446   7.445  0.00  0.00     0.051 A 
HETATM   10  C   UNK N   1      33.917  17.188   6.495  0.00  0.00     0.034 A 
HETATM   11  C   UNK N   1      33.915  15.843   9.719  0.00  0.00     0.687 A 
HETATM   12  C   UNK N   1      32.772  17.410   5.702  0.00  0.00     0.021 A 
HETATM   13  C   UNK N   1      35.702  15.797  11.411  0.00  0.00     0.378 C 
HETATM   14  H   UNK N   1      31.869  15.411  10.013  0.00  0.00     0.184 HD
HETATM   15  H   UNK N   1      33.862  15.003  11.611  0.00  0.00     0.189 HD
ENDROOT
BRANCH  13  16
HETATM   16  O   UNK N   1      36.080  15.434  12.660  0.00  0.00    -0.308 OA
HETATM   17  C   UNK N   1      36.000  14.135  13.107  0.00  0.00     0.215 C 
ENDBRANCH  13  16
BRANCH   8  18
HETATM   18  S   UNK N   1      30.004  17.413   5.233  0.00  0.00    -0.130 SA
BRANCH  18  19
HETATM   19  C   UNK N   1      29.368  15.714   5.185  0.00  0.00     0.079 C 
BRANCH  19  20
HETATM   20  C   UNK N   1      29.065  15.357   3.745  0.00  0.00     0.006 C 
HETATM   21  C   UNK N   1      29.850  16.258   2.815  0.00  0.00     0.006 C 
ENDBRANCH  19  20
ENDBRANCH  18  19
ENDBRANCH   8  18
TORSDOF 4
ENDMDL
MODEL 7
REMARK VINA RESULT:      -5.5      1.394      2.193
REMARK  4 active torsions:
REMARK  status: ('A' for Active; 'I' for Inactive)
REMARK    1  A    between atoms: S_1  and  C_10 
REMARK    2  A    between atoms: S_1  and  C_14 
REMARK    3  A    between atoms: O_2  and  C_18 
REMARK       I    between atoms: N_7  and  C_13 
REMARK       I    between atoms: N_7  and  C_18 
REMARK    4  A    between atoms: C_14  and  C_16 
ROOT
HETATM    1  O   UNK N   1      34.571  16.334  10.471  0.00  0.00    -0.238 OA
HETATM    2  N   UNK N   1      32.350  16.299   6.989  0.00  0.00    -0.189 N 
HETATM    3  N   UNK N   1      32.514  17.309   9.013  0.00  0.00    -0.189 N 
ATOM      4  HN  UNK N   1      32.876  17.609   9.917  1.00  0.00     0.184 HD
HETATM    5  N   UNK N   1      34.354  15.841   8.291  0.00  0.00    -0.135 N 
HETATM    6  C   UNK N   1      31.240  17.009   7.232  0.00  0.00     0.077 A 
HETATM    7  C   UNK N   1      31.339  17.620   8.445  0.00  0.00     0.076 A 
HETATM    8  C   UNK N   1      29.030  17.880   6.932  0.00  0.00     0.002 A 
HETATM    9  C   UNK N   1      30.104  17.112   6.441  0.00  0.00     0.051 A 
HETATM   10  C   UNK N   1      30.310  18.400   8.964  0.00  0.00     0.034 A 
HETATM   11  C   UNK N   1      33.107  16.497   8.097  0.00  0.00     0.687 A 
HETATM   12  C   UNK N   1      29.134  18.522   8.194  0.00  0.00     0.021 A 
HETATM   13  C   UNK N   1      35.027  15.796   9.469  0.00  0.00     0.378 C 
HETATM   14  H   UNK N   1      32.565  15.760   6.194  0.00  0.00     0.184 HD
HETATM   15  H   UNK N   1      34.757  15.386   7.516  0.00  0.00     0.189 HD
ENDROOT
BRANCH  13  16
HETATM   16  O   UNK N   1      36.195  15.113   9.531  0.00  0.00    -0.308 OA
HETATM   17  C   UNK N   1      36.602  14.448  10.665  0.00  0.00     0.215 C 
ENDBRANCH  13  16
BRANCH   8  18
HETATM   18  S   UNK N   1      27.505  17.927   5.988  0.00  0.00    -0.130 SA
BRANCH  18  19
HETATM   19  C   UNK N   1      27.878  19.460   5.091  0.00  0.00     0.079 C 
BRANCH  19  20
HETATM   20  C   UNK N   1      26.835  20.495   5.459  0.00  0.00     0.006 C 
HETATM   21  C   UNK N   1      27.449  21.547   6.357  0.00  0.00     0.006 C 
ENDBRANCH  19  20
ENDBRANCH  18  19
ENDBRANCH   8  18
TORSDOF 4
ENDMDL
MODEL 8
REMARK VINA RESULT:      -5.3      5.001      9.564
REMARK  4 active torsions:
REMARK  status: ('A' for Active; 'I' for Inactive)
REMARK    1  A    between atoms: S_1  and  C_10 
REMARK    2  A    between atoms: S_1  and  C_14 
REMARK    3  A    between atoms: O_2  and  C_18 
REMARK       I    between atoms: N_7  and  C_13 
REMARK       I    between atoms: N_7  and  C_18 
REMARK    4  A    between atoms: C_14  and  C_16 
ROOT
HETATM    1  O   UNK N   1      34.497  16.297   7.275  0.00  0.00    -0.238 OA
HETATM    2  N   UNK N   1      34.172  15.327  11.276  0.00  0.00    -0.189 N 
HETATM    3  N   UNK N   1      35.601  15.266   9.517  0.00  0.00    -0.189 N 
ATOM      4  HN  UNK N   1      36.016  15.437   8.601  1.00  0.00     0.184 HD
HETATM    5  N   UNK N   1      33.514  16.549   9.278  0.00  0.00    -0.135 N 
HETATM    6  C   UNK N   1      35.218  14.543  11.569  0.00  0.00     0.077 A 
HETATM    7  C   UNK N   1      36.079  14.509  10.516  0.00  0.00     0.076 A 
HETATM    8  C   UNK N   1      36.589  13.004  12.788  0.00  0.00     0.002 A 
HETATM    9  C   UNK N   1      35.433  13.806  12.726  0.00  0.00     0.051 A 
HETATM   10  C   UNK N   1      37.241  13.743  10.537  0.00  0.00     0.034 A 
HETATM   11  C   UNK N   1      34.431  15.750  10.013  0.00  0.00     0.687 A 
HETATM   12  C   UNK N   1      37.491  12.972  11.692  0.00  0.00     0.021 A 
HETATM   13  C   UNK N   1      33.595  16.787   7.944  0.00  0.00     0.378 C 
HETATM   14  H   UNK N   1      33.397  15.545  11.843  0.00  0.00     0.184 HD
HETATM   15  H   UNK N   1      32.765  16.958   9.771  0.00  0.00     0.189 HD
ENDROOT
BRANCH  13  16
HETATM   16  O   UNK N   1      32.640  17.545   7.354  0.00  0.00    -0.308 OA
HETATM   17  C   UNK N   1      31.325  17.521   7.759  0.00  0.00     0.215 C 
ENDBRANCH  13  16
BRANCH   8  18
HETATM   18  S   UNK N   1      36.827  11.948  14.219  0.00  0.00    -0.130 SA
BRANCH  18  19
HETATM   19  C   UNK N   1      36.385  13.197  15.459  0.00  0.00     0.079 C 
BRANCH  19  20
HETATM   20  C   UNK N   1      35.418  12.572  16.444  0.00  0.00     0.006 C 
HETATM   21  C   UNK N   1      35.181  13.517  17.602  0.00  0.00     0.006 C 
ENDBRANCH  19  20
ENDBRANCH  18  19
ENDBRANCH   8  18
TORSDOF 4
ENDMDL
MODEL 9
REMARK VINA RESULT:      -5.3      5.329      9.721
REMARK  4 active torsions:
REMARK  status: ('A' for Active; 'I' for Inactive)
REMARK    1  A    between atoms: S_1  and  C_10 
REMARK    2  A    between atoms: S_1  and  C_14 
REMARK    3  A    between atoms: O_2  and  C_18 
REMARK       I    between atoms: N_7  and  C_13 
REMARK       I    between atoms: N_7  and  C_18 
REMARK    4  A    between atoms: C_14  and  C_16 
ROOT
HETATM    1  O   UNK N   1      32.144  13.853   8.092  0.00  0.00    -0.238 OA
HETATM    2  N   UNK N   1      34.533  15.692  10.915  0.00  0.00    -0.189 N 
HETATM    3  N   UNK N   1      34.010  13.667  10.038  0.00  0.00    -0.189 N 
ATOM      4  HN  UNK N   1      33.634  12.949   9.420  1.00  0.00     0.184 HD
HETATM    5  N   UNK N   1      33.167  15.681   8.902  0.00  0.00    -0.135 N 
HETATM    6  C   UNK N   1      35.028  14.720  11.692  0.00  0.00     0.077 A 
HETATM    7  C   UNK N   1      34.720  13.504  11.165  0.00  0.00     0.076 A 
HETATM    8  C   UNK N   1      36.096  13.679  13.566  0.00  0.00     0.002 A 
HETATM    9  C   UNK N   1      35.715  14.855  12.892  0.00  0.00     0.051 A 
HETATM   10  C   UNK N   1      35.087  12.314  11.788  0.00  0.00     0.034 A 
HETATM   11  C   UNK N   1      33.911  15.018   9.915  0.00  0.00     0.687 A 
HETATM   12  C   UNK N   1      35.780  12.409  13.014  0.00  0.00     0.021 A 
HETATM   13  C   UNK N   1      32.322  15.064   8.036  0.00  0.00     0.378 C 
HETATM   14  H   UNK N   1      34.602  16.666  11.040  0.00  0.00     0.184 HD
HETATM   15  H   UNK N   1      33.270  16.657   8.823  0.00  0.00     0.189 HD
ENDROOT
BRANCH  13  16
HETATM   16  O   UNK N   1      31.648  15.814   7.132  0.00  0.00    -0.308 OA
HETATM   17  C   UNK N   1      31.194  17.081   7.416  0.00  0.00     0.215 C 
ENDBRANCH  13  16
BRANCH   8  18
HETATM   18  S   UNK N   1      36.874  13.824  15.176  0.00  0.00    -0.130 SA
BRANCH  18  19
HETATM   19  C   UNK N   1      36.089  12.360  15.905  0.00  0.00     0.079 C 
BRANCH  19  20
HETATM   20  C   UNK N   1      34.873  12.810  16.689  0.00  0.00     0.006 C 
HETATM   21  C   UNK N   1      35.284  13.815  17.743  0.00  0.00     0.006 C 
ENDBRANCH  19  20
ENDBRANCH  18  19
ENDBRANCH   8  18
TORSDOF 4
ENDMDL
