REMARK  11 active torsions:
REMARK  status: ('A' for Active; 'I' for Inactive)
REMARK    1  A    between atoms: O_2  and  C_17 
REMARK    2  A    between atoms: O_4  and  C_22 
REMARK    3  A    between atoms: O_4  and  C_25 
REMARK       I    between atoms: N_6  and  C_16 
REMARK    4  A    between atoms: C_18  and  N_7 
REMARK    5  A    between atoms: C_20  and  N_7 
REMARK    6  A    between atoms: C_11  and  C_17 
REMARK    7  A    between atoms: C_16  and  C_18 
REMARK    8  A    between atoms: C_20  and  C_21 
REMARK    9  A    between atoms: C_20  and  C_22 
REMARK   10  A    between atoms: C_21  and  C_23 
REMARK   11  A    between atoms: C_23  and  C_24 
ROOT
HETATM    1  C   UNK N   1       6.351  -0.403   0.899  0.00  0.00     0.166 C 
HETATM    2  C   UNK N   1       5.498  -0.710   2.123  0.00  0.00     0.042 C 
ENDROOT
BRANCH   1   3
HETATM    3  N   UNK N   1       5.635   0.311  -0.147  0.00  0.00    -0.397 N 
HETATM    4  H   UNK N   1       5.294  -0.103  -1.014  0.00  0.00     0.154 HD
BRANCH   3   5
HETATM    5  C   UNK N   1       5.480   1.715   0.239  0.00  0.00     0.178 C 
BRANCH   5   6
HETATM    6  C   UNK N   1       4.057   2.121  -0.085  0.00  0.00     0.039 C 
BRANCH   6   7
HETATM    7  C   UNK N   1       3.168   1.642   1.046  0.00  0.00     0.041 C 
BRANCH   7   8
HETATM    8  C   UNK N   1       1.805   1.326   0.551  0.00  0.00    -0.058 A 
HETATM    9  C   UNK N   1       0.973   2.334   0.049  0.00  0.00     0.007 A 
HETATM   10  C   UNK N   1      -0.308   2.015  -0.408  0.00  0.00     0.001 A 
HETATM   11  C   UNK N   1      -0.757   0.691  -0.365  0.00  0.00     0.000 A 
HETATM   12  C   UNK N   1       0.073  -0.314   0.139  0.00  0.00     0.001 A 
HETATM   13  C   UNK N   1       1.352   0.006   0.600  0.00  0.00     0.007 A 
ENDBRANCH   7   8
ENDBRANCH   6   7
ENDBRANCH   5   6
BRANCH   5  14
HETATM   14  C   UNK N   1       6.502   2.598  -0.460  0.00  0.00     0.281 C 
HETATM   15  O   UNK N   1       7.409   2.079  -1.093  0.00  0.00    -0.263 OA
BRANCH  14  16
HETATM   16  O   UNK N   1       6.452   3.957  -0.392  0.00  0.00    -0.320 OA
BRANCH  16  17
HETATM   17  C   UNK N   1       5.484   4.659   0.290  0.00  0.00     0.174 C 
HETATM   18  C   UNK N   1       4.572   5.359  -0.702  0.00  0.00     0.034 C 
ENDBRANCH  16  17
ENDBRANCH  14  16
ENDBRANCH   5  14
ENDBRANCH   3   5
ENDBRANCH   1   3
BRANCH   1  19
HETATM   19  C   UNK N   1       7.120  -1.580   0.355  0.00  0.00     0.243 C 
HETATM   20  O   UNK N   1       8.330  -1.506   0.488  0.00  0.00    -0.271 OA
HETATM   21  N   UNK N   1       6.566  -2.684  -0.287  0.00  0.00    -0.331 N 
HETATM   22  C   UNK N   1       5.159  -2.993  -0.487  0.00  0.00     0.092 C 
HETATM   23  C   UNK N   1       7.332  -3.839  -0.755  0.00  0.00     0.186 C 
HETATM   24  C   UNK N   1       5.113  -4.425   0.019  0.00  0.00     0.011 C 
HETATM   25  C   UNK N   1       4.052  -2.156   0.159  0.00  0.00     0.026 C 
HETATM   26  C   UNK N   1       6.403  -5.045  -0.524  0.00  0.00     0.043 C 
HETATM   27  C   UNK N   1       3.837  -5.139  -0.432  0.00  0.00     0.007 C 
HETATM   28  C   UNK N   1       2.608  -4.211  -0.430  0.00  0.00     0.001 C 
HETATM   29  C   UNK N   1       2.776  -2.971   0.462  0.00  0.00     0.002 C 
BRANCH  23  30
HETATM   30  C   UNK N   1       8.753  -4.051  -0.291  0.00  0.00     0.163 C 
HETATM   31  O   UNK N   1       9.647  -3.340  -0.723  0.00  0.00    -0.648 OA
BRANCH  30  32
HETATM   32  O   UNK N   1       9.062  -5.096   0.501  0.00  0.00    -0.775 OA
HETATM   33  H   UNK N   1       8.540  -5.645   1.051  0.00  0.00     0.167 HD
ENDBRANCH  30  32
ENDBRANCH  23  30
ENDBRANCH   1  19
TORSDOF 11
