MODEL 1
REMARK VINA RESULT:      -7.0      0.000      0.000
REMARK  11 active torsions:
REMARK  status: ('A' for Active; 'I' for Inactive)
REMARK    1  A    between atoms: O_2  and  C_17 
REMARK    2  A    between atoms: O_4  and  C_22 
REMARK    3  A    between atoms: O_4  and  C_25 
REMARK       I    between atoms: N_6  and  C_16 
REMARK    4  A    between atoms: C_18  and  N_7 
REMARK    5  A    between atoms: C_20  and  N_7 
REMARK    6  A    between atoms: C_11  and  C_17 
REMARK    7  A    between atoms: C_16  and  C_18 
REMARK    8  A    between atoms: C_20  and  C_21 
REMARK    9  A    between atoms: C_20  and  C_22 
REMARK   10  A    between atoms: C_21  and  C_23 
REMARK   11  A    between atoms: C_23  and  C_24 
ROOT
HETATM    1  C   UNK N   1      20.607  15.526   4.622  0.00  0.00     0.166 C 
HETATM    2  C   UNK N   1      20.382  14.360   3.668  0.00  0.00     0.042 C 
ENDROOT
BRANCH   1   3
HETATM    3  N   UNK N   1      19.739  15.501   5.789  0.00  0.00    -0.397 N 
HETATM    4  H   UNK N   1      18.720  15.483   5.763  0.00  0.00     0.154 HD
BRANCH   3   5
HETATM    5  C   UNK N   1      20.555  15.506   7.005  0.00  0.00     0.178 C 
BRANCH   5   6
HETATM    6  C   UNK N   1      20.747  14.065   7.429  0.00  0.00     0.039 C 
BRANCH   6   7
HETATM    7  C   UNK N   1      22.206  13.879   7.797  0.00  0.00     0.041 C 
BRANCH   7   8
HETATM    8  C   UNK N   1      22.339  13.217   9.118  0.00  0.00    -0.058 A 
HETATM    9  C   UNK N   1      21.210  12.941   9.899  0.00  0.00     0.007 A 
HETATM   10  C   UNK N   1      21.358  12.321  11.142  0.00  0.00     0.001 A 
HETATM   11  C   UNK N   1      22.632  11.975  11.604  0.00  0.00     0.000 A 
HETATM   12  C   UNK N   1      23.759  12.253  10.826  0.00  0.00     0.001 A 
HETATM   13  C   UNK N   1      23.611  12.877   9.585  0.00  0.00     0.007 A 
ENDBRANCH   7   8
ENDBRANCH   6   7
ENDBRANCH   5   6
BRANCH   5  14
HETATM   14  C   UNK N   1      19.915  16.346   8.099  0.00  0.00     0.281 C 
HETATM   15  O   UNK N   1      20.627  16.904   8.920  0.00  0.00    -0.263 OA
BRANCH  14  16
HETATM   16  O   UNK N   1      18.565  16.487   8.207  0.00  0.00    -0.320 OA
BRANCH  16  17
HETATM   17  C   UNK N   1      17.883  16.480   9.403  0.00  0.00     0.174 C 
HETATM   18  C   UNK N   1      17.421  17.888   9.732  0.00  0.00     0.034 C 
ENDBRANCH  16  17
ENDBRANCH  14  16
ENDBRANCH   5  14
ENDBRANCH   3   5
ENDBRANCH   1   3
BRANCH   1  19
HETATM   19  C   UNK N   1      20.632  16.883   3.965  0.00  0.00     0.243 C 
HETATM   20  O   UNK N   1      19.533  17.353   3.720  0.00  0.00    -0.271 OA
HETATM   21  N   UNK N   1      21.776  17.591   3.608  0.00  0.00    -0.331 N 
HETATM   22  C   UNK N   1      23.164  17.242   3.866  0.00  0.00     0.092 C 
HETATM   23  C   UNK N   1      21.770  18.931   3.022  0.00  0.00     0.186 C 
HETATM   24  C   UNK N   1      23.670  18.540   4.473  0.00  0.00     0.011 C 
HETATM   25  C   UNK N   1      23.543  16.049   4.749  0.00  0.00     0.026 C 
HETATM   26  C   UNK N   1      23.011  19.623   3.616  0.00  0.00     0.043 C 
HETATM   27  C   UNK N   1      25.199  18.595   4.485  0.00  0.00     0.007 C 
HETATM   28  C   UNK N   1      25.838  17.226   4.785  0.00  0.00     0.001 C 
HETATM   29  C   UNK N   1      24.886  16.244   5.485  0.00  0.00     0.002 C 
BRANCH  23  30
HETATM   30  C   UNK N   1      20.516  19.771   3.051  0.00  0.00     0.163 C 
HETATM   31  O   UNK N   1      20.302  20.514   3.996  0.00  0.00    -0.648 OA
BRANCH  30  32
HETATM   32  O   UNK N   1      19.571  19.617   2.103  0.00  0.00    -0.775 OA
HETATM   33  H   UNK N   1      18.675  19.884   2.058  0.00  0.00     0.167 HD
ENDBRANCH  30  32
ENDBRANCH  23  30
ENDBRANCH   1  19
TORSDOF 11
ENDMDL
MODEL 2
REMARK VINA RESULT:      -6.9      3.815      6.636
REMARK  11 active torsions:
REMARK  status: ('A' for Active; 'I' for Inactive)
REMARK    1  A    between atoms: O_2  and  C_17 
REMARK    2  A    between atoms: O_4  and  C_22 
REMARK    3  A    between atoms: O_4  and  C_25 
REMARK       I    between atoms: N_6  and  C_16 
REMARK    4  A    between atoms: C_18  and  N_7 
REMARK    5  A    between atoms: C_20  and  N_7 
REMARK    6  A    between atoms: C_11  and  C_17 
REMARK    7  A    between atoms: C_16  and  C_18 
REMARK    8  A    between atoms: C_20  and  C_21 
REMARK    9  A    between atoms: C_20  and  C_22 
REMARK   10  A    between atoms: C_21  and  C_23 
REMARK   11  A    between atoms: C_23  and  C_24 
ROOT
HETATM    1  C   UNK N   1      23.896  17.252   4.725  0.00  0.00     0.166 C 
HETATM    2  C   UNK N   1      24.794  16.388   5.601  0.00  0.00     0.042 C 
ENDROOT
BRANCH   1   3
HETATM    3  N   UNK N   1      24.003  18.675   5.006  0.00  0.00    -0.397 N 
HETATM    4  H   UNK N   1      23.631  19.142   5.832  0.00  0.00     0.154 HD
BRANCH   3   5
HETATM    5  C   UNK N   1      24.727  19.334   3.917  0.00  0.00     0.178 C 
BRANCH   5   6
HETATM    6  C   UNK N   1      25.875  20.105   4.536  0.00  0.00     0.039 C 
BRANCH   6   7
HETATM    7  C   UNK N   1      27.168  19.445   4.099  0.00  0.00     0.041 C 
BRANCH   7   8
HETATM    8  C   UNK N   1      27.883  18.860   5.261  0.00  0.00    -0.058 A 
HETATM    9  C   UNK N   1      28.742  17.767   5.098  0.00  0.00     0.007 A 
HETATM   10  C   UNK N   1      29.402  17.230   6.206  0.00  0.00     0.001 A 
HETATM   11  C   UNK N   1      29.204  17.784   7.475  0.00  0.00     0.000 A 
HETATM   12  C   UNK N   1      28.344  18.873   7.637  0.00  0.00     0.001 A 
HETATM   13  C   UNK N   1      27.681  19.407   6.530  0.00  0.00     0.007 A 
ENDBRANCH   7   8
ENDBRANCH   6   7
ENDBRANCH   5   6
BRANCH   5  14
HETATM   14  C   UNK N   1      23.808  20.229   3.101  0.00  0.00     0.281 C 
HETATM   15  O   UNK N   1      24.275  20.898   2.192  0.00  0.00    -0.263 OA
BRANCH  14  16
HETATM   16  O   UNK N   1      22.474  20.326   3.360  0.00  0.00    -0.320 OA
BRANCH  16  17
HETATM   17  C   UNK N   1      21.496  19.731   2.595  0.00  0.00     0.174 C 
HETATM   18  C   UNK N   1      20.793  20.786   1.760  0.00  0.00     0.034 C 
ENDBRANCH  16  17
ENDBRANCH  14  16
ENDBRANCH   5  14
ENDBRANCH   3   5
ENDBRANCH   1   3
BRANCH   1  19
HETATM   19  C   UNK N   1      22.461  16.796   4.651  0.00  0.00     0.243 C 
HETATM   20  O   UNK N   1      21.687  17.428   5.351  0.00  0.00    -0.271 OA
HETATM   21  N   UNK N   1      21.986  15.731   3.892  0.00  0.00    -0.331 N 
HETATM   22  C   UNK N   1      22.723  14.901   2.952  0.00  0.00     0.092 C 
HETATM   23  C   UNK N   1      20.578  15.346   3.796  0.00  0.00     0.186 C 
HETATM   24  C   UNK N   1      21.806  14.968   1.742  0.00  0.00     0.011 C 
HETATM   25  C   UNK N   1      24.166  15.222   2.554  0.00  0.00     0.026 C 
HETATM   26  C   UNK N   1      20.401  14.867   2.343  0.00  0.00     0.043 C 
HETATM   27  C   UNK N   1      22.133  13.871   0.727  0.00  0.00     0.007 C 
HETATM   28  C   UNK N   1      23.645  13.600   0.617  0.00  0.00     0.001 C 
HETATM   29  C   UNK N   1      24.516  14.761   1.123  0.00  0.00     0.002 C 
BRANCH  23  30
HETATM   30  C   UNK N   1      19.497  16.283   4.277  0.00  0.00     0.163 C 
HETATM   31  O   UNK N   1      18.864  16.016   5.287  0.00  0.00    -0.648 OA
BRANCH  30  32
HETATM   32  O   UNK N   1      19.140  17.350   3.535  0.00  0.00    -0.775 OA
HETATM   33  H   UNK N   1      18.898  18.224   3.766  0.00  0.00     0.167 HD
ENDBRANCH  30  32
ENDBRANCH  23  30
ENDBRANCH   1  19
TORSDOF 11
ENDMDL
MODEL 3
REMARK VINA RESULT:      -6.8      2.964      6.276
REMARK  11 active torsions:
REMARK  status: ('A' for Active; 'I' for Inactive)
REMARK    1  A    between atoms: O_2  and  C_17 
REMARK    2  A    between atoms: O_4  and  C_22 
REMARK    3  A    between atoms: O_4  and  C_25 
REMARK       I    between atoms: N_6  and  C_16 
REMARK    4  A    between atoms: C_18  and  N_7 
REMARK    5  A    between atoms: C_20  and  N_7 
REMARK    6  A    between atoms: C_11  and  C_17 
REMARK    7  A    between atoms: C_16  and  C_18 
REMARK    8  A    between atoms: C_20  and  C_21 
REMARK    9  A    between atoms: C_20  and  C_22 
REMARK   10  A    between atoms: C_21  and  C_23 
REMARK   11  A    between atoms: C_23  and  C_24 
ROOT
HETATM    1  C   UNK N   1      21.927  16.240   6.074  0.00  0.00     0.166 C 
HETATM    2  C   UNK N   1      21.274  16.068   7.439  0.00  0.00     0.042 C 
ENDROOT
BRANCH   1   3
HETATM    3  N   UNK N   1      23.381  16.206   6.115  0.00  0.00    -0.397 N 
HETATM    4  H   UNK N   1      23.942  16.032   6.948  0.00  0.00     0.154 HD
BRANCH   3   5
HETATM    5  C   UNK N   1      23.912  16.460   4.774  0.00  0.00     0.178 C 
BRANCH   5   6
HETATM    6  C   UNK N   1      24.482  15.156   4.256  0.00  0.00     0.039 C 
BRANCH   6   7
HETATM    7  C   UNK N   1      24.823  15.346   2.791  0.00  0.00     0.041 C 
BRANCH   7   8
HETATM    8  C   UNK N   1      24.430  14.156   1.997  0.00  0.00    -0.058 A 
HETATM    9  C   UNK N   1      23.934  14.295   0.695  0.00  0.00     0.007 A 
HETATM   10  C   UNK N   1      23.566  13.161  -0.034  0.00  0.00     0.001 A 
HETATM   11  C   UNK N   1      23.695  11.890   0.536  0.00  0.00     0.000 A 
HETATM   12  C   UNK N   1      24.188  11.753   1.837  0.00  0.00     0.001 A 
HETATM   13  C   UNK N   1      24.551  12.887   2.567  0.00  0.00     0.007 A 
ENDBRANCH   7   8
ENDBRANCH   6   7
ENDBRANCH   5   6
BRANCH   5  14
HETATM   14  C   UNK N   1      24.949  17.573   4.790  0.00  0.00     0.281 C 
HETATM   15  O   UNK N   1      26.006  17.399   5.378  0.00  0.00    -0.263 OA
BRANCH  14  16
HETATM   16  O   UNK N   1      24.734  18.772   4.182  0.00  0.00    -0.320 OA
BRANCH  16  17
HETATM   17  C   UNK N   1      25.659  19.791   4.139  0.00  0.00     0.174 C 
HETATM   18  C   UNK N   1      25.585  20.486   2.791  0.00  0.00     0.034 C 
ENDBRANCH  16  17
ENDBRANCH  14  16
ENDBRANCH   5  14
ENDBRANCH   3   5
ENDBRANCH   1   3
BRANCH   1  19
HETATM   19  C   UNK N   1      21.411  17.407   5.271  0.00  0.00     0.243 C 
HETATM   20  O   UNK N   1      21.693  18.504   5.724  0.00  0.00    -0.271 OA
HETATM   21  N   UNK N   1      20.644  17.319   4.113  0.00  0.00    -0.331 N 
HETATM   22  C   UNK N   1      20.258  16.122   3.381  0.00  0.00     0.092 C 
HETATM   23  C   UNK N   1      20.204  18.468   3.322  0.00  0.00     0.186 C 
HETATM   24  C   UNK N   1      20.670  16.512   1.972  0.00  0.00     0.011 C 
HETATM   25  C   UNK N   1      20.815  14.743   3.744  0.00  0.00     0.026 C 
HETATM   26  C   UNK N   1      20.251  17.981   1.863  0.00  0.00     0.043 C 
HETATM   27  C   UNK N   1      20.028  15.598   0.926  0.00  0.00     0.007 C 
HETATM   28  C   UNK N   1      19.937  14.135   1.396  0.00  0.00     0.001 C 
HETATM   29  C   UNK N   1      20.914  13.792   2.532  0.00  0.00     0.002 C 
BRANCH  23  30
HETATM   30  C   UNK N   1      20.822  19.828   3.544  0.00  0.00     0.163 C 
HETATM   31  O   UNK N   1      20.114  20.778   3.836  0.00  0.00    -0.648 OA
BRANCH  30  32
HETATM   32  O   UNK N   1      22.132  20.028   3.301  0.00  0.00    -0.775 OA
HETATM   33  H   UNK N   1      22.689  19.765   2.596  0.00  0.00     0.167 HD
ENDBRANCH  30  32
ENDBRANCH  23  30
ENDBRANCH   1  19
TORSDOF 11
ENDMDL
MODEL 4
REMARK VINA RESULT:      -6.8     14.833     17.267
REMARK  11 active torsions:
REMARK  status: ('A' for Active; 'I' for Inactive)
REMARK    1  A    between atoms: O_2  and  C_17 
REMARK    2  A    between atoms: O_4  and  C_22 
REMARK    3  A    between atoms: O_4  and  C_25 
REMARK       I    between atoms: N_6  and  C_16 
REMARK    4  A    between atoms: C_18  and  N_7 
REMARK    5  A    between atoms: C_20  and  N_7 
REMARK    6  A    between atoms: C_11  and  C_17 
REMARK    7  A    between atoms: C_16  and  C_18 
REMARK    8  A    between atoms: C_20  and  C_21 
REMARK    9  A    between atoms: C_20  and  C_22 
REMARK   10  A    between atoms: C_21  and  C_23 
REMARK   11  A    between atoms: C_23  and  C_24 
ROOT
HETATM    1  C   UNK N   1      30.130  26.744  -4.743  0.00  0.00     0.166 C 
HETATM    2  C   UNK N   1      31.376  27.509  -5.170  0.00  0.00     0.042 C 
ENDROOT
BRANCH   1   3
HETATM    3  N   UNK N   1      29.199  27.538  -3.955  0.00  0.00    -0.397 N 
HETATM    4  H   UNK N   1      29.453  28.335  -3.373  0.00  0.00     0.154 HD
BRANCH   3   5
HETATM    5  C   UNK N   1      27.842  27.015  -4.131  0.00  0.00     0.178 C 
BRANCH   5   6
HETATM    6  C   UNK N   1      27.445  27.256  -5.573  0.00  0.00     0.039 C 
BRANCH   6   7
HETATM    7  C   UNK N   1      25.987  26.871  -5.724  0.00  0.00     0.041 C 
BRANCH   7   8
HETATM    8  C   UNK N   1      25.853  25.543  -6.372  0.00  0.00    -0.058 A 
HETATM    9  C   UNK N   1      25.928  24.366  -5.617  0.00  0.00     0.007 A 
HETATM   10  C   UNK N   1      25.804  23.126  -6.248  0.00  0.00     0.001 A 
HETATM   11  C   UNK N   1      25.605  23.061  -7.631  0.00  0.00     0.000 A 
HETATM   12  C   UNK N   1      25.534  24.236  -8.384  0.00  0.00     0.001 A 
HETATM   13  C   UNK N   1      25.662  25.475  -7.754  0.00  0.00     0.007 A 
ENDBRANCH   7   8
ENDBRANCH   6   7
ENDBRANCH   5   6
BRANCH   5  14
HETATM   14  C   UNK N   1      26.870  27.658  -3.153  0.00  0.00     0.281 C 
HETATM   15  O   UNK N   1      26.020  26.967  -2.612  0.00  0.00    -0.263 OA
BRANCH  14  16
HETATM   16  O   UNK N   1      26.903  28.989  -2.869  0.00  0.00    -0.320 OA
BRANCH  16  17
HETATM   17  C   UNK N   1      26.308  29.957  -3.646  0.00  0.00     0.174 C 
HETATM   18  C   UNK N   1      27.377  30.738  -4.390  0.00  0.00     0.034 C 
ENDBRANCH  16  17
ENDBRANCH  14  16
ENDBRANCH   5  14
ENDBRANCH   3   5
ENDBRANCH   1   3
BRANCH   1  19
HETATM   19  C   UNK N   1      30.399  25.401  -4.114  0.00  0.00     0.243 C 
HETATM   20  O   UNK N   1      30.540  25.422  -2.903  0.00  0.00    -0.271 OA
HETATM   21  N   UNK N   1      30.520  24.194  -4.798  0.00  0.00    -0.331 N 
HETATM   22  C   UNK N   1      30.325  23.945  -6.218  0.00  0.00     0.092 C 
HETATM   23  C   UNK N   1      30.726  22.896  -4.156  0.00  0.00     0.186 C 
HETATM   24  C   UNK N   1      29.379  22.757  -6.164  0.00  0.00     0.011 C 
HETATM   25  C   UNK N   1      29.783  25.025  -7.157  0.00  0.00     0.026 C 
HETATM   26  C   UNK N   1      29.933  21.901  -5.023  0.00  0.00     0.043 C 
HETATM   27  C   UNK N   1      29.308  22.034  -7.511  0.00  0.00     0.007 C 
HETATM   28  C   UNK N   1      29.367  23.004  -8.706  0.00  0.00     0.001 C 
HETATM   29  C   UNK N   1      28.983  24.448  -8.345  0.00  0.00     0.002 C 
BRANCH  23  30
HETATM   30  C   UNK N   1      30.509  22.737  -2.670  0.00  0.00     0.163 C 
HETATM   31  O   UNK N   1      31.426  22.357  -1.959  0.00  0.00    -0.648 OA
BRANCH  30  32
HETATM   32  O   UNK N   1      29.280  22.892  -2.141  0.00  0.00    -0.775 OA
HETATM   33  H   UNK N   1      28.675  23.607  -2.153  0.00  0.00     0.167 HD
ENDBRANCH  30  32
ENDBRANCH  23  30
ENDBRANCH   1  19
TORSDOF 11
ENDMDL
MODEL 5
REMARK VINA RESULT:      -6.7     14.555     17.332
REMARK  11 active torsions:
REMARK  status: ('A' for Active; 'I' for Inactive)
REMARK    1  A    between atoms: O_2  and  C_17 
REMARK    2  A    between atoms: O_4  and  C_22 
REMARK    3  A    between atoms: O_4  and  C_25 
REMARK       I    between atoms: N_6  and  C_16 
REMARK    4  A    between atoms: C_18  and  N_7 
REMARK    5  A    between atoms: C_20  and  N_7 
REMARK    6  A    between atoms: C_11  and  C_17 
REMARK    7  A    between atoms: C_16  and  C_18 
REMARK    8  A    between atoms: C_20  and  C_21 
REMARK    9  A    between atoms: C_20  and  C_22 
REMARK   10  A    between atoms: C_21  and  C_23 
REMARK   11  A    between atoms: C_23  and  C_24 
ROOT
HETATM    1  C   UNK N   1      30.388  24.275  -5.455  0.00  0.00     0.166 C 
HETATM    2  C   UNK N   1      31.879  24.582  -5.435  0.00  0.00     0.042 C 
ENDROOT
BRANCH   1   3
HETATM    3  N   UNK N   1      30.057  22.957  -4.935  0.00  0.00    -0.397 N 
HETATM    4  H   UNK N   1      30.219  22.076  -5.420  0.00  0.00     0.154 HD
BRANCH   3   5
HETATM    5  C   UNK N   1      29.456  23.094  -3.606  0.00  0.00     0.178 C 
BRANCH   5   6
HETATM    6  C   UNK N   1      28.814  24.464  -3.537  0.00  0.00     0.039 C 
BRANCH   6   7
HETATM    7  C   UNK N   1      27.333  24.271  -3.279  0.00  0.00     0.041 C 
BRANCH   7   8
HETATM    8  C   UNK N   1      26.538  25.348  -3.921  0.00  0.00    -0.058 A 
HETATM    9  C   UNK N   1      26.403  26.601  -3.311  0.00  0.00     0.007 A 
HETATM   10  C   UNK N   1      25.647  27.598  -3.932  0.00  0.00     0.001 A 
HETATM   11  C   UNK N   1      25.029  27.346  -5.160  0.00  0.00     0.000 A 
HETATM   12  C   UNK N   1      25.162  26.094  -5.767  0.00  0.00     0.001 A 
HETATM   13  C   UNK N   1      25.914  25.095  -5.144  0.00  0.00     0.007 A 
ENDBRANCH   7   8
ENDBRANCH   6   7
ENDBRANCH   5   6
BRANCH   5  14
HETATM   14  C   UNK N   1      30.487  22.887  -2.508  0.00  0.00     0.281 C 
HETATM   15  O   UNK N   1      30.175  23.097  -1.345  0.00  0.00    -0.263 OA
BRANCH  14  16
HETATM   16  O   UNK N   1      31.761  22.487  -2.776  0.00  0.00    -0.320 OA
BRANCH  16  17
HETATM   17  C   UNK N   1      32.126  21.179  -3.000  0.00  0.00     0.174 C 
HETATM   18  C   UNK N   1      33.634  21.046  -2.878  0.00  0.00     0.034 C 
ENDBRANCH  16  17
ENDBRANCH  14  16
ENDBRANCH   5  14
ENDBRANCH   3   5
ENDBRANCH   1   3
BRANCH   1  19
HETATM   19  C   UNK N   1      29.705  24.551  -6.770  0.00  0.00     0.243 C 
HETATM   20  O   UNK N   1      29.475  23.562  -7.445  0.00  0.00    -0.271 OA
HETATM   21  N   UNK N   1      29.360  25.809  -7.256  0.00  0.00    -0.331 N 
HETATM   22  C   UNK N   1      29.486  27.095  -6.588  0.00  0.00     0.092 C 
HETATM   23  C   UNK N   1      28.647  26.043  -8.512  0.00  0.00     0.186 C 
HETATM   24  C   UNK N   1      28.087  27.652  -6.790  0.00  0.00     0.011 C 
HETATM   25  C   UNK N   1      29.903  27.200  -5.119  0.00  0.00     0.026 C 
HETATM   26  C   UNK N   1      27.740  27.255  -8.227  0.00  0.00     0.043 C 
HETATM   27  C   UNK N   1      28.040  29.159  -6.528  0.00  0.00     0.007 C 
HETATM   28  C   UNK N   1      28.951  29.586  -5.362  0.00  0.00     0.001 C 
HETATM   29  C   UNK N   1      29.307  28.434  -4.408  0.00  0.00     0.002 C 
BRANCH  23  30
HETATM   30  C   UNK N   1      27.956  24.904  -9.221  0.00  0.00     0.163 C 
HETATM   31  O   UNK N   1      28.322  24.572 -10.338  0.00  0.00    -0.648 OA
BRANCH  30  32
HETATM   32  O   UNK N   1      26.862  24.330  -8.684  0.00  0.00    -0.775 OA
HETATM   33  H   UNK N   1      26.019  24.129  -9.038  0.00  0.00     0.167 HD
ENDBRANCH  30  32
ENDBRANCH  23  30
ENDBRANCH   1  19
TORSDOF 11
ENDMDL
MODEL 6
REMARK VINA RESULT:      -6.7     14.615     17.710
REMARK  11 active torsions:
REMARK  status: ('A' for Active; 'I' for Inactive)
REMARK    1  A    between atoms: O_2  and  C_17 
REMARK    2  A    between atoms: O_4  and  C_22 
REMARK    3  A    between atoms: O_4  and  C_25 
REMARK       I    between atoms: N_6  and  C_16 
REMARK    4  A    between atoms: C_18  and  N_7 
REMARK    5  A    between atoms: C_20  and  N_7 
REMARK    6  A    between atoms: C_11  and  C_17 
REMARK    7  A    between atoms: C_16  and  C_18 
REMARK    8  A    between atoms: C_20  and  C_21 
REMARK    9  A    between atoms: C_20  and  C_22 
REMARK   10  A    between atoms: C_21  and  C_23 
REMARK   11  A    between atoms: C_23  and  C_24 
ROOT
HETATM    1  C   UNK N   1      29.576  25.924  -4.333  0.00  0.00     0.166 C 
HETATM    2  C   UNK N   1      30.446  27.173  -4.383  0.00  0.00     0.042 C 
ENDROOT
BRANCH   1   3
HETATM    3  N   UNK N   1      28.336  26.106  -3.594  0.00  0.00    -0.397 N 
HETATM    4  H   UNK N   1      28.270  26.396  -2.619  0.00  0.00     0.154 HD
BRANCH   3   5
HETATM    5  C   UNK N   1      27.199  25.807  -4.467  0.00  0.00     0.178 C 
BRANCH   5   6
HETATM    6  C   UNK N   1      26.245  26.982  -4.389  0.00  0.00     0.039 C 
BRANCH   6   7
HETATM    7  C   UNK N   1      25.854  27.357  -5.805  0.00  0.00     0.041 C 
BRANCH   7   8
HETATM    8  C   UNK N   1      27.009  27.931  -6.539  0.00  0.00    -0.058 A 
HETATM    9  C   UNK N   1      27.678  29.061  -6.053  0.00  0.00     0.007 A 
HETATM   10  C   UNK N   1      28.761  29.587  -6.762  0.00  0.00     0.001 A 
HETATM   11  C   UNK N   1      29.175  28.985  -7.955  0.00  0.00     0.000 A 
HETATM   12  C   UNK N   1      28.505  27.859  -8.441  0.00  0.00     0.001 A 
HETATM   13  C   UNK N   1      27.420  27.336  -7.734  0.00  0.00     0.007 A 
ENDBRANCH   7   8
ENDBRANCH   6   7
ENDBRANCH   5   6
BRANCH   5  14
HETATM   14  C   UNK N   1      26.530  24.498  -4.078  0.00  0.00     0.281 C 
HETATM   15  O   UNK N   1      26.638  24.088  -2.932  0.00  0.00    -0.263 OA
BRANCH  14  16
HETATM   16  O   UNK N   1      25.823  23.753  -4.971  0.00  0.00    -0.320 OA
BRANCH  16  17
HETATM   17  C   UNK N   1      26.357  23.218  -6.122  0.00  0.00     0.174 C 
HETATM   18  C   UNK N   1      25.795  23.949  -7.328  0.00  0.00     0.034 C 
ENDBRANCH  16  17
ENDBRANCH  14  16
ENDBRANCH   5  14
ENDBRANCH   3   5
ENDBRANCH   1   3
BRANCH   1  19
HETATM   19  C   UNK N   1      30.300  24.667  -3.921  0.00  0.00     0.243 C 
HETATM   20  O   UNK N   1      30.425  24.521  -2.717  0.00  0.00    -0.271 OA
HETATM   21  N   UNK N   1      30.836  23.719  -4.788  0.00  0.00    -0.331 N 
HETATM   22  C   UNK N   1      30.740  23.674  -6.239  0.00  0.00     0.092 C 
HETATM   23  C   UNK N   1      31.485  22.480  -4.360  0.00  0.00     0.186 C 
HETATM   24  C   UNK N   1      30.271  22.243  -6.442  0.00  0.00     0.011 C 
HETATM   25  C   UNK N   1      29.853  24.649  -7.017  0.00  0.00     0.026 C 
HETATM   26  C   UNK N   1      31.091  21.443  -5.427  0.00  0.00     0.043 C 
HETATM   27  C   UNK N   1      30.458  21.792  -7.893  0.00  0.00     0.007 C 
HETATM   28  C   UNK N   1      30.172  22.918  -8.903  0.00  0.00     0.001 C 
HETATM   29  C   UNK N   1      29.305  24.051  -8.331  0.00  0.00     0.002 C 
BRANCH  23  30
HETATM   30  C   UNK N   1      31.339  21.995  -2.938  0.00  0.00     0.163 C 
HETATM   31  O   UNK N   1      32.334  21.766  -2.268  0.00  0.00    -0.648 OA
BRANCH  30  32
HETATM   32  O   UNK N   1      30.123  21.695  -2.441  0.00  0.00    -0.775 OA
HETATM   33  H   UNK N   1      29.351  21.343  -2.837  0.00  0.00     0.167 HD
ENDBRANCH  30  32
ENDBRANCH  23  30
ENDBRANCH   1  19
TORSDOF 11
ENDMDL
MODEL 7
REMARK VINA RESULT:      -6.6      2.160      4.492
REMARK  11 active torsions:
REMARK  status: ('A' for Active; 'I' for Inactive)
REMARK    1  A    between atoms: O_2  and  C_17 
REMARK    2  A    between atoms: O_4  and  C_22 
REMARK    3  A    between atoms: O_4  and  C_25 
REMARK       I    between atoms: N_6  and  C_16 
REMARK    4  A    between atoms: C_18  and  N_7 
REMARK    5  A    between atoms: C_20  and  N_7 
REMARK    6  A    between atoms: C_11  and  C_17 
REMARK    7  A    between atoms: C_16  and  C_18 
REMARK    8  A    between atoms: C_20  and  C_21 
REMARK    9  A    between atoms: C_20  and  C_22 
REMARK   10  A    between atoms: C_21  and  C_23 
REMARK   11  A    between atoms: C_23  and  C_24 
ROOT
HETATM    1  C   UNK N   1      21.455  16.998   6.020  0.00  0.00     0.166 C 
HETATM    2  C   UNK N   1      20.621  17.007   7.294  0.00  0.00     0.042 C 
ENDROOT
BRANCH   1   3
HETATM    3  N   UNK N   1      22.890  16.967   6.261  0.00  0.00    -0.397 N 
HETATM    4  H   UNK N   1      23.423  17.701   6.727  0.00  0.00     0.154 HD
BRANCH   3   5
HETATM    5  C   UNK N   1      23.447  15.720   5.733  0.00  0.00     0.178 C 
BRANCH   5   6
HETATM    6  C   UNK N   1      23.697  14.800   6.910  0.00  0.00     0.039 C 
BRANCH   6   7
HETATM    7  C   UNK N   1      22.671  13.684   6.854  0.00  0.00     0.041 C 
BRANCH   7   8
HETATM    8  C   UNK N   1      22.362  13.180   8.215  0.00  0.00    -0.058 A 
HETATM    9  C   UNK N   1      23.133  12.166   8.796  0.00  0.00     0.007 A 
HETATM   10  C   UNK N   1      22.822  11.704  10.077  0.00  0.00     0.001 A 
HETATM   11  C   UNK N   1      21.742  12.254  10.777  0.00  0.00     0.000 A 
HETATM   12  C   UNK N   1      20.971  13.263  10.194  0.00  0.00     0.001 A 
HETATM   13  C   UNK N   1      21.280  13.722   8.912  0.00  0.00     0.007 A 
ENDBRANCH   7   8
ENDBRANCH   6   7
ENDBRANCH   5   6
BRANCH   5  14
HETATM   14  C   UNK N   1      24.710  15.976   4.926  0.00  0.00     0.281 C 
HETATM   15  O   UNK N   1      25.122  15.110   4.169  0.00  0.00    -0.263 OA
BRANCH  14  16
HETATM   16  O   UNK N   1      25.413  17.137   5.029  0.00  0.00    -0.320 OA
BRANCH  16  17
HETATM   17  C   UNK N   1      25.702  17.960   3.964  0.00  0.00     0.174 C 
HETATM   18  C   UNK N   1      24.588  18.979   3.794  0.00  0.00     0.034 C 
ENDBRANCH  16  17
ENDBRANCH  14  16
ENDBRANCH   5  14
ENDBRANCH   3   5
ENDBRANCH   1   3
BRANCH   1  19
HETATM   19  C   UNK N   1      21.075  18.051   5.010  0.00  0.00     0.243 C 
HETATM   20  O   UNK N   1      21.394  19.188   5.312  0.00  0.00    -0.271 OA
HETATM   21  N   UNK N   1      20.387  17.823   3.821  0.00  0.00    -0.331 N 
HETATM   22  C   UNK N   1      19.977  16.550   3.251  0.00  0.00     0.092 C 
HETATM   23  C   UNK N   1      20.080  18.857   2.833  0.00  0.00     0.186 C 
HETATM   24  C   UNK N   1      20.512  16.692   1.837  0.00  0.00     0.011 C 
HETATM   25  C   UNK N   1      20.415  15.216   3.863  0.00  0.00     0.026 C 
HETATM   26  C   UNK N   1      20.198  18.145   1.472  0.00  0.00     0.043 C 
HETATM   27  C   UNK N   1      19.888  15.661   0.894  0.00  0.00     0.007 C 
HETATM   28  C   UNK N   1      19.668  14.296   1.572  0.00  0.00     0.001 C 
HETATM   29  C   UNK N   1      20.538  14.084   2.821  0.00  0.00     0.002 C 
BRANCH  23  30
HETATM   30  C   UNK N   1      20.769  20.199   2.894  0.00  0.00     0.163 C 
HETATM   31  O   UNK N   1      21.783  20.393   2.242  0.00  0.00    -0.648 OA
BRANCH  30  32
HETATM   32  O   UNK N   1      20.344  21.144   3.755  0.00  0.00    -0.775 OA
HETATM   33  H   UNK N   1      19.547  21.244   4.236  0.00  0.00     0.167 HD
ENDBRANCH  30  32
ENDBRANCH  23  30
ENDBRANCH   1  19
TORSDOF 11
ENDMDL
MODEL 8
REMARK VINA RESULT:      -6.6     14.751     16.817
REMARK  11 active torsions:
REMARK  status: ('A' for Active; 'I' for Inactive)
REMARK    1  A    between atoms: O_2  and  C_17 
REMARK    2  A    between atoms: O_4  and  C_22 
REMARK    3  A    between atoms: O_4  and  C_25 
REMARK       I    between atoms: N_6  and  C_16 
REMARK    4  A    between atoms: C_18  and  N_7 
REMARK    5  A    between atoms: C_20  and  N_7 
REMARK    6  A    between atoms: C_11  and  C_17 
REMARK    7  A    between atoms: C_16  and  C_18 
REMARK    8  A    between atoms: C_20  and  C_21 
REMARK    9  A    between atoms: C_20  and  C_22 
REMARK   10  A    between atoms: C_21  and  C_23 
REMARK   11  A    between atoms: C_23  and  C_24 
ROOT
HETATM    1  C   UNK N   1      30.120  25.238  -5.686  0.00  0.00     0.166 C 
HETATM    2  C   UNK N   1      31.126  26.300  -6.112  0.00  0.00     0.042 C 
ENDROOT
BRANCH   1   3
HETATM    3  N   UNK N   1      28.875  25.786  -5.171  0.00  0.00    -0.397 N 
HETATM    4  H   UNK N   1      28.716  26.766  -4.936  0.00  0.00     0.154 HD
BRANCH   3   5
HETATM    5  C   UNK N   1      27.886  24.714  -5.042  0.00  0.00     0.178 C 
BRANCH   5   6
HETATM    6  C   UNK N   1      26.873  24.895  -6.153  0.00  0.00     0.039 C 
BRANCH   6   7
HETATM    7  C   UNK N   1      25.890  23.742  -6.077  0.00  0.00     0.041 C 
BRANCH   7   8
HETATM    8  C   UNK N   1      25.854  22.992  -7.357  0.00  0.00    -0.058 A 
HETATM    9  C   UNK N   1      26.011  23.654  -8.581  0.00  0.00     0.007 A 
HETATM   10  C   UNK N   1      25.970  22.928  -9.774  0.00  0.00     0.001 A 
HETATM   11  C   UNK N   1      25.774  21.543  -9.745  0.00  0.00     0.000 A 
HETATM   12  C   UNK N   1      25.615  20.884  -8.523  0.00  0.00     0.001 A 
HETATM   13  C   UNK N   1      25.652  21.610  -7.331  0.00  0.00     0.007 A 
ENDBRANCH   7   8
ENDBRANCH   6   7
ENDBRANCH   5   6
BRANCH   5  14
HETATM   14  C   UNK N   1      27.238  24.721  -3.666  0.00  0.00     0.281 C 
HETATM   15  O   UNK N   1      27.629  23.936  -2.815  0.00  0.00    -0.263 OA
BRANCH  14  16
HETATM   16  O   UNK N   1      26.218  25.566  -3.350  0.00  0.00    -0.320 OA
BRANCH  16  17
HETATM   17  C   UNK N   1      26.388  26.897  -3.042  0.00  0.00     0.174 C 
HETATM   18  C   UNK N   1      25.608  27.749  -4.029  0.00  0.00     0.034 C 
ENDBRANCH  16  17
ENDBRANCH  14  16
ENDBRANCH   5  14
ENDBRANCH   3   5
ENDBRANCH   1   3
BRANCH   1  19
HETATM   19  C   UNK N   1      30.680  24.165  -4.787  0.00  0.00     0.243 C 
HETATM   20  O   UNK N   1      30.893  24.518  -3.640  0.00  0.00    -0.271 OA
HETATM   21  N   UNK N   1      30.983  22.862  -5.172  0.00  0.00    -0.331 N 
HETATM   22  C   UNK N   1      30.747  22.228  -6.460  0.00  0.00     0.092 C 
HETATM   23  C   UNK N   1      31.472  21.824  -4.265  0.00  0.00     0.186 C 
HETATM   24  C   UNK N   1      30.049  20.952  -6.020  0.00  0.00     0.011 C 
HETATM   25  C   UNK N   1      29.950  22.926  -7.565  0.00  0.00     0.026 C 
HETATM   26  C   UNK N   1      30.828  20.522  -4.775  0.00  0.00     0.043 C 
HETATM   27  C   UNK N   1      30.029  19.909  -7.138  0.00  0.00     0.007 C 
HETATM   28  C   UNK N   1      29.825  20.537  -8.530  0.00  0.00     0.001 C 
HETATM   29  C   UNK N   1      29.198  21.939  -8.485  0.00  0.00     0.002 C 
BRANCH  23  30
HETATM   30  C   UNK N   1      31.387  22.016  -2.770  0.00  0.00     0.163 C 
HETATM   31  O   UNK N   1      32.355  21.768  -2.068  0.00  0.00    -0.648 OA
BRANCH  30  32
HETATM   32  O   UNK N   1      30.215  22.341  -2.190  0.00  0.00    -0.775 OA
HETATM   33  H   UNK N   1      29.989  22.567  -1.311  0.00  0.00     0.167 HD
ENDBRANCH  30  32
ENDBRANCH  23  30
ENDBRANCH   1  19
TORSDOF 11
ENDMDL
MODEL 9
REMARK VINA RESULT:      -6.6     11.855     15.494
REMARK  11 active torsions:
REMARK  status: ('A' for Active; 'I' for Inactive)
REMARK    1  A    between atoms: O_2  and  C_17 
REMARK    2  A    between atoms: O_4  and  C_22 
REMARK    3  A    between atoms: O_4  and  C_25 
REMARK       I    between atoms: N_6  and  C_16 
REMARK    4  A    between atoms: C_18  and  N_7 
REMARK    5  A    between atoms: C_20  and  N_7 
REMARK    6  A    between atoms: C_11  and  C_17 
REMARK    7  A    between atoms: C_16  and  C_18 
REMARK    8  A    between atoms: C_20  and  C_21 
REMARK    9  A    between atoms: C_20  and  C_22 
REMARK   10  A    between atoms: C_21  and  C_23 
REMARK   11  A    between atoms: C_23  and  C_24 
ROOT
HETATM    1  C   UNK N   1      34.758  15.045  10.693  0.00  0.00     0.166 C 
HETATM    2  C   UNK N   1      35.199  16.489  10.897  0.00  0.00     0.042 C 
ENDROOT
BRANCH   1   3
HETATM    3  N   UNK N   1      33.325  14.896  10.494  0.00  0.00    -0.397 N 
HETATM    4  H   UNK N   1      32.649  14.676  11.226  0.00  0.00     0.154 HD
BRANCH   3   5
HETATM    5  C   UNK N   1      33.003  15.110   9.082  0.00  0.00     0.178 C 
BRANCH   5   6
HETATM    6  C   UNK N   1      31.829  16.065   9.023  0.00  0.00     0.039 C 
BRANCH   6   7
HETATM    7  C   UNK N   1      32.323  17.375   8.441  0.00  0.00     0.041 C 
BRANCH   7   8
HETATM    8  C   UNK N   1      32.236  17.362   6.959  0.00  0.00    -0.058 A 
HETATM    9  C   UNK N   1      31.007  17.179   6.315  0.00  0.00     0.007 A 
HETATM   10  C   UNK N   1      30.948  17.166   4.919  0.00  0.00     0.001 A 
HETATM   11  C   UNK N   1      32.116  17.337   4.168  0.00  0.00     0.000 A 
HETATM   12  C   UNK N   1      33.343  17.516   4.812  0.00  0.00     0.001 A 
HETATM   13  C   UNK N   1      33.402  17.525   6.207  0.00  0.00     0.007 A 
ENDBRANCH   7   8
ENDBRANCH   6   7
ENDBRANCH   5   6
BRANCH   5  14
HETATM   14  C   UNK N   1      32.710  13.796   8.375  0.00  0.00     0.281 C 
HETATM   15  O   UNK N   1      32.326  13.813   7.215  0.00  0.00    -0.263 OA
BRANCH  14  16
HETATM   16  O   UNK N   1      32.845  12.593   8.997  0.00  0.00    -0.320 OA
BRANCH  16  17
HETATM   17  C   UNK N   1      33.927  11.757   8.832  0.00  0.00     0.174 C 
HETATM   18  C   UNK N   1      34.108  10.909  10.078  0.00  0.00     0.034 C 
ENDBRANCH  16  17
ENDBRANCH  14  16
ENDBRANCH   5  14
ENDBRANCH   3   5
ENDBRANCH   1   3
BRANCH   1  19
HETATM   19  C   UNK N   1      35.291  14.072  11.714  0.00  0.00     0.243 C 
HETATM   20  O   UNK N   1      34.588  13.929  12.700  0.00  0.00    -0.271 OA
HETATM   21  N   UNK N   1      36.495  13.380  11.623  0.00  0.00    -0.331 N 
HETATM   22  C   UNK N   1      37.437  13.360  10.515  0.00  0.00     0.092 C 
HETATM   23  C   UNK N   1      36.961  12.399  12.603  0.00  0.00     0.186 C 
HETATM   24  C   UNK N   1      37.627  11.863  10.337  0.00  0.00     0.011 C 
HETATM   25  C   UNK N   1      37.117  14.027   9.175  0.00  0.00     0.026 C 
HETATM   26  C   UNK N   1      37.693  11.330  11.770  0.00  0.00     0.043 C 
HETATM   27  C   UNK N   1      38.865  11.550   9.494  0.00  0.00     0.007 C 
HETATM   28  C   UNK N   1      39.075  12.562   8.352  0.00  0.00     0.001 C 
HETATM   29  C   UNK N   1      37.801  13.336   7.976  0.00  0.00     0.002 C 
BRANCH  23  30
HETATM   30  C   UNK N   1      36.011  11.839  13.634  0.00  0.00     0.163 C 
HETATM   31  O   UNK N   1      35.342  10.851  13.373  0.00  0.00    -0.648 OA
BRANCH  30  32
HETATM   32  O   UNK N   1      35.802  12.492  14.794  0.00  0.00    -0.775 OA
HETATM   33  H   UNK N   1      35.410  13.320  14.988  0.00  0.00     0.167 HD
ENDBRANCH  30  32
ENDBRANCH  23  30
ENDBRANCH   1  19
TORSDOF 11
ENDMDL
