MODEL 1
REMARK VINA RESULT:      -5.8      0.000      0.000
REMARK  7 active torsions:
REMARK  status: ('A' for Active; 'I' for Inactive)
REMARK    1  A    between atoms: O_1  and  C_13 
REMARK    2  A    between atoms: O_1  and  C_15 
REMARK    3  A    between atoms: O_2  and  C_8 
REMARK    4  A    between atoms: N_4  and  C_6 
REMARK    5  A    between atoms: N_4  and  C_7 
REMARK    6  A    between atoms: C_7  and  C_8 
REMARK    7  A    between atoms: C_8  and  C_13 
ROOT
HETATM    1  O   UNK N   1      34.293  17.705   6.568  0.00  0.00    -0.273 OA
HETATM    2  N   UNK N   1      32.435  18.007   7.745  0.00  0.00    -0.327 N 
HETATM    3  C   UNK N   1      30.243  17.164   6.997  0.00  0.00     0.002 A 
HETATM    4  C   UNK N   1      30.866  16.618   5.742  0.00  0.00     0.053 A 
HETATM    5  C   UNK N   1      28.847  17.006   7.249  0.00  0.00     0.077 A 
HETATM    6  C   UNK N   1      31.045  17.828   7.950  0.00  0.00     0.043 A 
HETATM    7  C   UNK N   1      32.385  16.741   5.598  0.00  0.00     0.108 A 
HETATM    8  C   UNK N   1      33.090  17.520   6.669  0.00  0.00     0.222 A 
HETATM    9  C   UNK N   1      28.316  17.491   8.450  0.00  0.00     0.037 A 
HETATM   10  C   UNK N   1      30.477  18.323   9.124  0.00  0.00     0.030 A 
HETATM   11  C   UNK N   1      29.120  18.150   9.378  0.00  0.00     0.005 A 
HETATM   12  H   UNK N   1      32.947  18.511   8.418  0.00  0.00     0.169 HD
ENDROOT
BRANCH   5  13
HETATM   13  O   UNK N   1      27.981  16.409   6.383  0.00  0.00    -0.348 OA
BRANCH  13  14
HETATM   14  C   UNK N   1      26.790  15.800   6.736  0.00  0.00     0.209 C 
BRANCH  14  15
HETATM   15  C   UNK N   1      25.681  16.046   5.714  0.00  0.00     0.159 C 
BRANCH  15  16
HETATM   16  O   UNK N   1      24.452  16.191   6.352  0.00  0.00    -0.392 OA
HETATM   17  H   UNK N   1      24.023  16.823   6.950  0.00  0.00     0.210 HD
ENDBRANCH  15  16
BRANCH  15  18
HETATM   18  C   UNK N   1      25.959  17.256   4.835  0.00  0.00     0.148 C 
BRANCH  18  19
HETATM   19  N   UNK N   1      25.984  18.467   5.654  0.00  0.00    -0.411 N 
HETATM   20  H   UNK N   1      25.516  18.554   6.556  0.00  0.00     0.154 HD
BRANCH  19  21
HETATM   21  C   UNK N   1      26.758  19.540   5.024  0.00  0.00     0.014 C 
HETATM   22  C   UNK N   1      25.876  20.437   4.168  0.00  0.00     0.037 C 
HETATM   23  C   UNK N   1      27.800  18.909   4.124  0.00  0.00     0.037 C 
HETATM   24  C   UNK N   1      27.481  20.372   6.071  0.00  0.00     0.037 C 
ENDBRANCH  19  21
ENDBRANCH  18  19
ENDBRANCH  15  18
ENDBRANCH  14  15
ENDBRANCH  13  14
ENDBRANCH   5  13
TORSDOF 7
ENDMDL
MODEL 2
REMARK VINA RESULT:      -5.6      8.760     11.267
REMARK  7 active torsions:
REMARK  status: ('A' for Active; 'I' for Inactive)
REMARK    1  A    between atoms: O_1  and  C_13 
REMARK    2  A    between atoms: O_1  and  C_15 
REMARK    3  A    between atoms: O_2  and  C_8 
REMARK    4  A    between atoms: N_4  and  C_6 
REMARK    5  A    between atoms: N_4  and  C_7 
REMARK    6  A    between atoms: C_7  and  C_8 
REMARK    7  A    between atoms: C_8  and  C_13 
ROOT
HETATM    1  O   UNK N   1      35.070  11.290  18.908  0.00  0.00    -0.273 OA
HETATM    2  N   UNK N   1      36.131  10.828  17.013  0.00  0.00    -0.327 N 
HETATM    3  C   UNK N   1      36.291  12.442  15.158  0.00  0.00     0.002 A 
HETATM    4  C   UNK N   1      35.473  13.437  15.936  0.00  0.00     0.053 A 
HETATM    5  C   UNK N   1      36.782  12.758  13.856  0.00  0.00     0.077 A 
HETATM    6  C   UNK N   1      36.594  11.185  15.724  0.00  0.00     0.043 A 
HETATM    7  C   UNK N   1      35.074  13.058  17.364  0.00  0.00     0.108 A 
HETATM    8  C   UNK N   1      35.424  11.667  17.802  0.00  0.00     0.222 A 
HETATM    9  C   UNK N   1      37.576  11.820  13.185  0.00  0.00     0.037 A 
HETATM   10  C   UNK N   1      37.366  10.264  15.015  0.00  0.00     0.030 A 
HETATM   11  C   UNK N   1      37.861  10.581  13.754  0.00  0.00     0.005 A 
HETATM   12  H   UNK N   1      36.335   9.925  17.352  0.00  0.00     0.169 HD
ENDROOT
BRANCH   5  13
HETATM   13  O   UNK N   1      36.522  13.929  13.209  0.00  0.00    -0.348 OA
BRANCH  13  14
HETATM   14  C   UNK N   1      35.592  14.095  12.198  0.00  0.00     0.209 C 
BRANCH  14  15
HETATM   15  C   UNK N   1      35.585  15.515  11.635  0.00  0.00     0.159 C 
BRANCH  15  16
HETATM   16  O   UNK N   1      36.864  15.886  11.228  0.00  0.00    -0.392 OA
HETATM   17  H   UNK N   1      37.493  16.604  11.401  0.00  0.00     0.210 HD
ENDBRANCH  15  16
BRANCH  15  18
HETATM   18  C   UNK N   1      34.603  15.678  10.485  0.00  0.00     0.148 C 
BRANCH  18  19
HETATM   19  N   UNK N   1      34.558  17.078  10.067  0.00  0.00    -0.411 N 
HETATM   20  H   UNK N   1      34.822  17.861  10.666  0.00  0.00     0.154 HD
BRANCH  19  21
HETATM   21  C   UNK N   1      34.087  17.225   8.687  0.00  0.00     0.014 C 
HETATM   22  C   UNK N   1      34.615  16.110   7.795  0.00  0.00     0.037 C 
HETATM   23  C   UNK N   1      34.604  18.542   8.146  0.00  0.00     0.037 C 
HETATM   24  C   UNK N   1      32.569  17.256   8.632  0.00  0.00     0.037 C 
ENDBRANCH  19  21
ENDBRANCH  18  19
ENDBRANCH  15  18
ENDBRANCH  14  15
ENDBRANCH  13  14
ENDBRANCH   5  13
TORSDOF 7
ENDMDL
MODEL 3
REMARK VINA RESULT:      -5.6      1.571      2.714
REMARK  7 active torsions:
REMARK  status: ('A' for Active; 'I' for Inactive)
REMARK    1  A    between atoms: O_1  and  C_13 
REMARK    2  A    between atoms: O_1  and  C_15 
REMARK    3  A    between atoms: O_2  and  C_8 
REMARK    4  A    between atoms: N_4  and  C_6 
REMARK    5  A    between atoms: N_4  and  C_7 
REMARK    6  A    between atoms: C_7  and  C_8 
REMARK    7  A    between atoms: C_8  and  C_13 
ROOT
HETATM    1  O   UNK N   1      34.835  18.172   7.555  0.00  0.00    -0.273 OA
HETATM    2  N   UNK N   1      33.658  17.600   5.761  0.00  0.00    -0.327 N 
HETATM    3  C   UNK N   1      31.275  16.987   5.883  0.00  0.00     0.002 A 
HETATM    4  C   UNK N   1      31.289  17.172   7.375  0.00  0.00     0.053 A 
HETATM    5  C   UNK N   1      30.079  16.600   5.205  0.00  0.00     0.077 A 
HETATM    6  C   UNK N   1      32.449  17.213   5.133  0.00  0.00     0.043 A 
HETATM    7  C   UNK N   1      32.584  17.688   8.009  0.00  0.00     0.108 A 
HETATM    8  C   UNK N   1      33.760  17.828   7.089  0.00  0.00     0.222 A 
HETATM    9  C   UNK N   1      30.099  16.481   3.810  0.00  0.00     0.037 A 
HETATM   10  C   UNK N   1      32.439  17.059   3.747  0.00  0.00     0.030 A 
HETATM   11  C   UNK N   1      31.268  16.701   3.086  0.00  0.00     0.005 A 
HETATM   12  H   UNK N   1      34.463  17.709   5.203  0.00  0.00     0.169 HD
ENDROOT
BRANCH   5  13
HETATM   13  O   UNK N   1      28.902  16.329   5.835  0.00  0.00    -0.348 OA
BRANCH  13  14
HETATM   14  C   UNK N   1      27.856  15.601   5.298  0.00  0.00     0.209 C 
BRANCH  14  15
HETATM   15  C   UNK N   1      26.497  16.251   5.552  0.00  0.00     0.159 C 
BRANCH  15  16
HETATM   16  O   UNK N   1      26.393  16.663   6.878  0.00  0.00    -0.392 OA
HETATM   17  H   UNK N   1      25.710  17.017   7.470  0.00  0.00     0.210 HD
ENDBRANCH  15  16
BRANCH  15  18
HETATM   18  C   UNK N   1      26.230  17.423   4.619  0.00  0.00     0.148 C 
BRANCH  18  19
HETATM   19  N   UNK N   1      25.825  18.593   5.397  0.00  0.00    -0.411 N 
HETATM   20  H   UNK N   1      25.182  18.556   6.188  0.00  0.00     0.154 HD
BRANCH  19  21
HETATM   21  C   UNK N   1      26.451  19.823   4.905  0.00  0.00     0.014 C 
HETATM   22  C   UNK N   1      25.769  20.331   3.643  0.00  0.00     0.037 C 
HETATM   23  C   UNK N   1      27.896  19.519   4.567  0.00  0.00     0.037 C 
HETATM   24  C   UNK N   1      26.434  20.905   5.973  0.00  0.00     0.037 C 
ENDBRANCH  19  21
ENDBRANCH  18  19
ENDBRANCH  15  18
ENDBRANCH  14  15
ENDBRANCH  13  14
ENDBRANCH   5  13
TORSDOF 7
ENDMDL
MODEL 4
REMARK VINA RESULT:      -5.6     11.100     14.025
REMARK  7 active torsions:
REMARK  status: ('A' for Active; 'I' for Inactive)
REMARK    1  A    between atoms: O_1  and  C_13 
REMARK    2  A    between atoms: O_1  and  C_15 
REMARK    3  A    between atoms: O_2  and  C_8 
REMARK    4  A    between atoms: N_4  and  C_6 
REMARK    5  A    between atoms: N_4  and  C_7 
REMARK    6  A    between atoms: C_7  and  C_8 
REMARK    7  A    between atoms: C_8  and  C_13 
ROOT
HETATM    1  O   UNK N   1      24.563  22.854  -8.516  0.00  0.00    -0.273 OA
HETATM    2  N   UNK N   1      25.311  23.674  -6.593  0.00  0.00    -0.327 N 
HETATM    3  C   UNK N   1      27.601  23.262  -5.780  0.00  0.00     0.002 A 
HETATM    4  C   UNK N   1      27.892  22.414  -6.988  0.00  0.00     0.053 A 
HETATM    5  C   UNK N   1      28.599  23.483  -4.784  0.00  0.00     0.077 A 
HETATM    6  C   UNK N   1      26.332  23.863  -5.630  0.00  0.00     0.043 A 
HETATM    7  C   UNK N   1      26.800  22.312  -8.057  0.00  0.00     0.108 A 
HETATM    8  C   UNK N   1      25.490  22.962  -7.727  0.00  0.00     0.222 A 
HETATM    9  C   UNK N   1      28.300  24.315  -3.698  0.00  0.00     0.037 A 
HETATM   10  C   UNK N   1      26.061  24.664  -4.521  0.00  0.00     0.030 A 
HETATM   11  C   UNK N   1      27.042  24.895  -3.562  0.00  0.00     0.005 A 
HETATM   12  H   UNK N   1      24.429  24.080  -6.427  0.00  0.00     0.169 HD
ENDROOT
BRANCH   5  13
HETATM   13  O   UNK N   1      29.843  22.928  -4.818  0.00  0.00    -0.348 OA
BRANCH  13  14
HETATM   14  C   UNK N   1      30.314  21.968  -3.940  0.00  0.00     0.209 C 
BRANCH  14  15
HETATM   15  C   UNK N   1      31.367  22.518  -2.979  0.00  0.00     0.159 C 
BRANCH  15  16
HETATM   16  O   UNK N   1      30.790  22.834  -1.752  0.00  0.00    -0.392 OA
HETATM   17  H   UNK N   1      31.072  23.197  -0.898  0.00  0.00     0.210 HD
ENDBRANCH  15  16
BRANCH  15  18
HETATM   18  C   UNK N   1      32.528  21.556  -2.778  0.00  0.00     0.148 C 
BRANCH  18  19
HETATM   19  N   UNK N   1      32.344  20.376  -3.624  0.00  0.00    -0.411 N 
HETATM   20  H   UNK N   1      31.476  19.844  -3.679  0.00  0.00     0.154 HD
BRANCH  19  21
HETATM   21  C   UNK N   1      33.556  20.049  -4.380  0.00  0.00     0.014 C 
HETATM   22  C   UNK N   1      33.950  18.590  -4.199  0.00  0.00     0.037 C 
HETATM   23  C   UNK N   1      34.689  20.909  -3.859  0.00  0.00     0.037 C 
HETATM   24  C   UNK N   1      33.372  20.356  -5.857  0.00  0.00     0.037 C 
ENDBRANCH  19  21
ENDBRANCH  18  19
ENDBRANCH  15  18
ENDBRANCH  14  15
ENDBRANCH  13  14
ENDBRANCH   5  13
TORSDOF 7
ENDMDL
MODEL 5
REMARK VINA RESULT:      -5.5     11.377     13.560
REMARK  7 active torsions:
REMARK  status: ('A' for Active; 'I' for Inactive)
REMARK    1  A    between atoms: O_1  and  C_13 
REMARK    2  A    between atoms: O_1  and  C_15 
REMARK    3  A    between atoms: O_2  and  C_8 
REMARK    4  A    between atoms: N_4  and  C_6 
REMARK    5  A    between atoms: N_4  and  C_7 
REMARK    6  A    between atoms: C_7  and  C_8 
REMARK    7  A    between atoms: C_8  and  C_13 
ROOT
HETATM    1  O   UNK N   1      32.585  21.469  -2.119  0.00  0.00    -0.273 OA
HETATM    2  N   UNK N   1      31.549  20.987  -4.023  0.00  0.00    -0.327 N 
HETATM    3  C   UNK N   1      29.699  22.355  -4.905  0.00  0.00     0.002 A 
HETATM    4  C   UNK N   1      29.780  23.262  -3.707  0.00  0.00     0.053 A 
HETATM    5  C   UNK N   1      28.746  22.594  -5.940  0.00  0.00     0.077 A 
HETATM    6  C   UNK N   1      30.585  21.263  -5.022  0.00  0.00     0.043 A 
HETATM    7  C   UNK N   1      30.898  22.995  -2.696  0.00  0.00     0.108 A 
HETATM    8  C   UNK N   1      31.723  21.765  -2.932  0.00  0.00     0.222 A 
HETATM    9  C   UNK N   1      28.733  21.752  -7.058  0.00  0.00     0.037 A 
HETATM   10  C   UNK N   1      30.526  20.428  -6.138  0.00  0.00     0.030 A 
HETATM   11  C   UNK N   1      29.610  20.674  -7.155  0.00  0.00     0.005 A 
HETATM   12  H   UNK N   1      32.120  20.191  -4.128  0.00  0.00     0.169 HD
ENDROOT
BRANCH   5  13
HETATM   13  O   UNK N   1      27.828  23.601  -5.910  0.00  0.00    -0.348 OA
BRANCH  13  14
HETATM   14  C   UNK N   1      27.543  24.455  -6.960  0.00  0.00     0.209 C 
BRANCH  14  15
HETATM   15  C   UNK N   1      26.044  24.700  -7.127  0.00  0.00     0.159 C 
BRANCH  15  16
HETATM   16  O   UNK N   1      25.323  23.550  -6.818  0.00  0.00    -0.392 OA
HETATM   17  H   UNK N   1      24.594  23.034  -7.197  0.00  0.00     0.210 HD
ENDBRANCH  15  16
BRANCH  15  18
HETATM   18  C   UNK N   1      25.550  25.868  -6.287  0.00  0.00     0.148 C 
BRANCH  18  19
HETATM   19  N   UNK N   1      26.381  26.002  -5.091  0.00  0.00    -0.411 N 
HETATM   20  H   UNK N   1      26.682  25.216  -4.515  0.00  0.00     0.154 HD
BRANCH  19  21
HETATM   21  C   UNK N   1      26.727  27.400  -4.816  0.00  0.00     0.014 C 
HETATM   22  C   UNK N   1      27.082  28.148  -6.093  0.00  0.00     0.037 C 
HETATM   23  C   UNK N   1      27.940  27.419  -3.909  0.00  0.00     0.037 C 
HETATM   24  C   UNK N   1      25.590  28.110  -4.100  0.00  0.00     0.037 C 
ENDBRANCH  19  21
ENDBRANCH  18  19
ENDBRANCH  15  18
ENDBRANCH  14  15
ENDBRANCH  13  14
ENDBRANCH   5  13
TORSDOF 7
ENDMDL
MODEL 6
REMARK VINA RESULT:      -5.3     10.667     13.070
REMARK  7 active torsions:
REMARK  status: ('A' for Active; 'I' for Inactive)
REMARK    1  A    between atoms: O_1  and  C_13 
REMARK    2  A    between atoms: O_1  and  C_15 
REMARK    3  A    between atoms: O_2  and  C_8 
REMARK    4  A    between atoms: N_4  and  C_6 
REMARK    5  A    between atoms: N_4  and  C_7 
REMARK    6  A    between atoms: C_7  and  C_8 
REMARK    7  A    between atoms: C_8  and  C_13 
ROOT
HETATM    1  O   UNK N   1      35.505   7.516  17.884  0.00  0.00    -0.273 OA
HETATM    2  N   UNK N   1      35.447   9.675  18.400  0.00  0.00    -0.327 N 
HETATM    3  C   UNK N   1      35.221  11.438  16.693  0.00  0.00     0.002 A 
HETATM    4  C   UNK N   1      35.212  10.400  15.604  0.00  0.00     0.053 A 
HETATM    5  C   UNK N   1      35.104  12.826  16.382  0.00  0.00     0.077 A 
HETATM    6  C   UNK N   1      35.331  11.040  18.043  0.00  0.00     0.043 A 
HETATM    7  C   UNK N   1      35.239   8.930  16.030  0.00  0.00     0.108 A 
HETATM    8  C   UNK N   1      35.410   8.671  17.497  0.00  0.00     0.222 A 
HETATM    9  C   UNK N   1      35.073  13.754  17.429  0.00  0.00     0.037 A 
HETATM   10  C   UNK N   1      35.323  11.996  19.059  0.00  0.00     0.030 A 
HETATM   11  C   UNK N   1      35.189  13.346  18.756  0.00  0.00     0.005 A 
HETATM   12  H   UNK N   1      35.560   9.447  19.351  0.00  0.00     0.169 HD
ENDROOT
BRANCH   5  13
HETATM   13  O   UNK N   1      35.023  13.316  15.113  0.00  0.00    -0.348 OA
BRANCH  13  14
HETATM   14  C   UNK N   1      36.094  13.751  14.354  0.00  0.00     0.209 C 
BRANCH  14  15
HETATM   15  C   UNK N   1      35.663  14.319  13.002  0.00  0.00     0.159 C 
BRANCH  15  16
HETATM   16  O   UNK N   1      36.543  15.315  12.588  0.00  0.00    -0.392 OA
HETATM   17  H   UNK N   1      37.189  15.453  11.878  0.00  0.00     0.210 HD
ENDBRANCH  15  16
BRANCH  15  18
HETATM   18  C   UNK N   1      35.549  13.244  11.932  0.00  0.00     0.148 C 
BRANCH  18  19
HETATM   19  N   UNK N   1      34.508  12.286  12.302  0.00  0.00    -0.411 N 
HETATM   20  H   UNK N   1      33.705  12.514  12.888  0.00  0.00     0.154 HD
BRANCH  19  21
HETATM   21  C   UNK N   1      34.755  10.958  11.731  0.00  0.00     0.014 C 
HETATM   22  C   UNK N   1      36.161  10.468  12.046  0.00  0.00     0.037 C 
HETATM   23  C   UNK N   1      34.618  11.055  10.226  0.00  0.00     0.037 C 
HETATM   24  C   UNK N   1      33.732   9.953  12.234  0.00  0.00     0.037 C 
ENDBRANCH  19  21
ENDBRANCH  18  19
ENDBRANCH  15  18
ENDBRANCH  14  15
ENDBRANCH  13  14
ENDBRANCH   5  13
TORSDOF 7
ENDMDL
MODEL 7
REMARK VINA RESULT:      -5.3      7.109      8.739
REMARK  7 active torsions:
REMARK  status: ('A' for Active; 'I' for Inactive)
REMARK    1  A    between atoms: O_1  and  C_13 
REMARK    2  A    between atoms: O_1  and  C_15 
REMARK    3  A    between atoms: O_2  and  C_8 
REMARK    4  A    between atoms: N_4  and  C_6 
REMARK    5  A    between atoms: N_4  and  C_7 
REMARK    6  A    between atoms: C_7  and  C_8 
REMARK    7  A    between atoms: C_8  and  C_13 
ROOT
HETATM    1  O   UNK N   1      22.994  11.644  13.002  0.00  0.00    -0.273 OA
HETATM    2  N   UNK N   1      23.876  12.400  11.110  0.00  0.00    -0.327 N 
HETATM    3  C   UNK N   1      22.493  13.131   9.205  0.00  0.00     0.002 A 
HETATM    4  C   UNK N   1      21.242  12.781   9.962  0.00  0.00     0.053 A 
HETATM    5  C   UNK N   1      22.423  13.676   7.888  0.00  0.00     0.077 A 
HETATM    6  C   UNK N   1      23.756  12.936   9.804  0.00  0.00     0.043 A 
HETATM    7  C   UNK N   1      21.402  12.298  11.406  0.00  0.00     0.108 A 
HETATM    8  C   UNK N   1      22.810  12.091  11.881  0.00  0.00     0.222 A 
HETATM    9  C   UNK N   1      23.611  14.029   7.236  0.00  0.00     0.037 A 
HETATM   10  C   UNK N   1      24.921  13.274   9.115  0.00  0.00     0.030 A 
HETATM   11  C   UNK N   1      24.850  13.824   7.839  0.00  0.00     0.005 A 
HETATM   12  H   UNK N   1      24.778  12.245  11.473  0.00  0.00     0.169 HD
ENDROOT
BRANCH   5  13
HETATM   13  O   UNK N   1      21.259  13.876   7.209  0.00  0.00    -0.348 OA
BRANCH  13  14
HETATM   14  C   UNK N   1      21.148  14.492   5.976  0.00  0.00     0.209 C 
BRANCH  14  15
HETATM   15  C   UNK N   1      19.696  14.645   5.524  0.00  0.00     0.159 C 
BRANCH  15  16
HETATM   16  O   UNK N   1      19.002  15.487   6.389  0.00  0.00    -0.392 OA
HETATM   17  H   UNK N   1      19.208  16.161   7.056  0.00  0.00     0.210 HD
ENDBRANCH  15  16
BRANCH  15  18
HETATM   18  C   UNK N   1      19.583  15.155   4.096  0.00  0.00     0.148 C 
BRANCH  18  19
HETATM   19  N   UNK N   1      19.185  16.562   4.103  0.00  0.00    -0.411 N 
HETATM   20  H   UNK N   1      18.373  16.922   4.604  0.00  0.00     0.154 HD
BRANCH  19  21
HETATM   21  C   UNK N   1      20.091  17.393   3.305  0.00  0.00     0.014 C 
HETATM   22  C   UNK N   1      20.747  16.592   2.190  0.00  0.00     0.037 C 
HETATM   23  C   UNK N   1      21.184  17.914   4.215  0.00  0.00     0.037 C 
HETATM   24  C   UNK N   1      19.355  18.588   2.720  0.00  0.00     0.037 C 
ENDBRANCH  19  21
ENDBRANCH  18  19
ENDBRANCH  15  18
ENDBRANCH  14  15
ENDBRANCH  13  14
ENDBRANCH   5  13
TORSDOF 7
ENDMDL
MODEL 8
REMARK VINA RESULT:      -5.2      9.642     12.109
REMARK  7 active torsions:
REMARK  status: ('A' for Active; 'I' for Inactive)
REMARK    1  A    between atoms: O_1  and  C_13 
REMARK    2  A    between atoms: O_1  and  C_15 
REMARK    3  A    between atoms: O_2  and  C_8 
REMARK    4  A    between atoms: N_4  and  C_6 
REMARK    5  A    between atoms: N_4  and  C_7 
REMARK    6  A    between atoms: C_7  and  C_8 
REMARK    7  A    between atoms: C_8  and  C_13 
ROOT
HETATM    1  O   UNK N   1      35.457  12.937  20.197  0.00  0.00    -0.273 OA
HETATM    2  N   UNK N   1      35.357  11.415  18.583  0.00  0.00    -0.327 N 
HETATM    3  C   UNK N   1      34.861  12.001  16.241  0.00  0.00     0.002 A 
HETATM    4  C   UNK N   1      34.714  13.448  16.620  0.00  0.00     0.053 A 
HETATM    5  C   UNK N   1      34.698  11.578  14.887  0.00  0.00     0.077 A 
HETATM    6  C   UNK N   1      35.183  11.044  17.227  0.00  0.00     0.043 A 
HETATM    7  C   UNK N   1      35.007  13.830  18.073  0.00  0.00     0.108 A 
HETATM    8  C   UNK N   1      35.283  12.694  19.012  0.00  0.00     0.222 A 
HETATM    9  C   UNK N   1      34.887  10.228  14.571  0.00  0.00     0.037 A 
HETATM   10  C   UNK N   1      35.338   9.701  16.880  0.00  0.00     0.030 A 
HETATM   11  C   UNK N   1      35.197   9.295  15.557  0.00  0.00     0.005 A 
HETATM   12  H   UNK N   1      35.542  10.708  19.243  0.00  0.00     0.169 HD
ENDROOT
BRANCH   5  13
HETATM   13  O   UNK N   1      34.359  12.415  13.866  0.00  0.00    -0.348 OA
BRANCH  13  14
HETATM   14  C   UNK N   1      35.079  12.582  12.697  0.00  0.00     0.209 C 
BRANCH  14  15
HETATM   15  C   UNK N   1      36.295  13.490  12.881  0.00  0.00     0.159 C 
BRANCH  15  16
HETATM   16  O   UNK N   1      37.472  12.752  12.802  0.00  0.00    -0.392 OA
HETATM   17  H   UNK N   1      38.374  12.871  12.465  0.00  0.00     0.210 HD
ENDBRANCH  15  16
BRANCH  15  18
HETATM   18  C   UNK N   1      36.324  14.630  11.875  0.00  0.00     0.148 C 
BRANCH  18  19
HETATM   19  N   UNK N   1      35.779  14.175  10.596  0.00  0.00    -0.411 N 
HETATM   20  H   UNK N   1      35.926  13.242  10.214  0.00  0.00     0.154 HD
BRANCH  19  21
HETATM   21  C   UNK N   1      34.997  15.221   9.930  0.00  0.00     0.014 C 
HETATM   22  C   UNK N   1      35.307  16.598  10.498  0.00  0.00     0.037 C 
HETATM   23  C   UNK N   1      33.527  14.937  10.164  0.00  0.00     0.037 C 
HETATM   24  C   UNK N   1      35.246  15.211   8.431  0.00  0.00     0.037 C 
ENDBRANCH  19  21
ENDBRANCH  18  19
ENDBRANCH  15  18
ENDBRANCH  14  15
ENDBRANCH  13  14
ENDBRANCH   5  13
TORSDOF 7
ENDMDL
MODEL 9
REMARK VINA RESULT:      -5.2     11.813     13.491
REMARK  7 active torsions:
REMARK  status: ('A' for Active; 'I' for Inactive)
REMARK    1  A    between atoms: O_1  and  C_13 
REMARK    2  A    between atoms: O_1  and  C_15 
REMARK    3  A    between atoms: O_2  and  C_8 
REMARK    4  A    between atoms: N_4  and  C_6 
REMARK    5  A    between atoms: N_4  and  C_7 
REMARK    6  A    between atoms: C_7  and  C_8 
REMARK    7  A    between atoms: C_8  and  C_13 
ROOT
HETATM    1  O   UNK N   1      29.659  18.905  -8.237  0.00  0.00    -0.273 OA
HETATM    2  N   UNK N   1      30.600  19.750  -6.412  0.00  0.00    -0.327 N 
HETATM    3  C   UNK N   1      30.004  21.969  -5.521  0.00  0.00     0.002 A 
HETATM    4  C   UNK N   1      29.038  22.179  -6.655  0.00  0.00     0.053 A 
HETATM    5  C   UNK N   1      30.177  22.965  -4.514  0.00  0.00     0.077 A 
HETATM    6  C   UNK N   1      30.740  20.768  -5.437  0.00  0.00     0.043 A 
HETATM    7  C   UNK N   1      28.837  21.019  -7.634  0.00  0.00     0.108 A 
HETATM    8  C   UNK N   1      29.731  19.831  -7.443  0.00  0.00     0.222 A 
HETATM    9  C   UNK N   1      31.054  22.711  -3.453  0.00  0.00     0.037 A 
HETATM   10  C   UNK N   1      31.626  20.559  -4.379  0.00  0.00     0.030 A 
HETATM   11  C   UNK N   1      31.778  21.523  -3.388  0.00  0.00     0.005 A 
HETATM   12  H   UNK N   1      31.163  18.945  -6.334  0.00  0.00     0.169 HD
ENDROOT
BRANCH   5  13
HETATM   13  O   UNK N   1      29.538  24.169  -4.517  0.00  0.00    -0.348 OA
BRANCH  13  14
HETATM   14  C   UNK N   1      28.534  24.545  -3.643  0.00  0.00     0.209 C 
BRANCH  14  15
HETATM   15  C   UNK N   1      27.148  24.120  -4.124  0.00  0.00     0.159 C 
BRANCH  15  16
HETATM   16  O   UNK N   1      26.267  24.020  -3.050  0.00  0.00    -0.392 OA
HETATM   17  H   UNK N   1      25.598  23.398  -2.725  0.00  0.00     0.210 HD
ENDBRANCH  15  16
BRANCH  15  18
HETATM   18  C   UNK N   1      26.584  25.063  -5.176  0.00  0.00     0.148 C 
BRANCH  18  19
HETATM   19  N   UNK N   1      27.237  26.368  -5.070  0.00  0.00    -0.411 N 
HETATM   20  H   UNK N   1      28.247  26.505  -5.114  0.00  0.00     0.154 HD
BRANCH  19  21
HETATM   21  C   UNK N   1      26.269  27.454  -4.892  0.00  0.00     0.014 C 
HETATM   22  C   UNK N   1      26.851  28.796  -5.312  0.00  0.00     0.037 C 
HETATM   23  C   UNK N   1      25.913  27.537  -3.422  0.00  0.00     0.037 C 
HETATM   24  C   UNK N   1      24.994  27.176  -5.671  0.00  0.00     0.037 C 
ENDBRANCH  19  21
ENDBRANCH  18  19
ENDBRANCH  15  18
ENDBRANCH  14  15
ENDBRANCH  13  14
ENDBRANCH   5  13
TORSDOF 7
ENDMDL
