MODEL 1
REMARK VINA RESULT:      -7.1      0.000      0.000
REMARK  6 active torsions:
REMARK  status: ('A' for Active; 'I' for Inactive)
REMARK    1  A    between atoms: O_1  and  C_22 
REMARK    2  A    between atoms: C_6  and  C_11 
REMARK    3  A    between atoms: C_13  and  C_14 
REMARK    4  A    between atoms: C_16  and  C_17 
REMARK    5  A    between atoms: C_18  and  C_19 
REMARK    6  A    between atoms: C_21  and  C_22 
ROOT
HETATM    1  C   UNK N   1      25.996  23.654  -7.400  0.00  0.00    -0.062 C 
HETATM    2  C   UNK N   1      25.415  22.537  -8.196  0.00  0.00     0.048 C 
HETATM    3  C   UNK N   1      25.759  24.913  -7.819  0.00  0.00     0.007 C 
ENDROOT
BRANCH   1   4
HETATM    4  C   UNK N   1      26.814  23.288  -6.207  0.00  0.00     0.007 C 
HETATM    5  C   UNK N   1      28.133  23.499  -6.091  0.00  0.00     0.009 C 
BRANCH   5   6
HETATM    6  C   UNK N   1      28.945  23.080  -4.905  0.00  0.00    -0.048 C 
HETATM    7  C   UNK N   1      28.912  23.905  -3.610  0.00  0.00    -0.020 C 
HETATM    8  C   UNK N   1      29.659  23.241  -2.450  0.00  0.00     0.014 C 
HETATM    9  C   UNK N   1      29.524  25.274  -3.865  0.00  0.00     0.020 C 
HETATM   10  C   UNK N   1      27.483  24.090  -3.131  0.00  0.00     0.020 C 
HETATM   11  C   UNK N   1      30.954  22.614  -2.916  0.00  0.00     0.005 C 
HETATM   12  C   UNK N   1      30.602  21.493  -3.877  0.00  0.00     0.034 C 
HETATM   13  C   UNK N   1      29.722  21.966  -5.005  0.00  0.00    -0.077 C 
HETATM   14  C   UNK N   1      29.762  21.159  -6.260  0.00  0.00     0.044 C 
ENDBRANCH   5   6
ENDBRANCH   1   4
BRANCH   3  15
HETATM   15  C   UNK N   1      26.283  26.104  -7.140  0.00  0.00     0.001 C 
HETATM   16  C   UNK N   1      25.721  26.609  -6.041  0.00  0.00     0.007 C 
BRANCH  16  17
HETATM   17  C   UNK N   1      26.297  27.807  -5.399  0.00  0.00    -0.056 C 
HETATM   18  C   UNK N   1      27.358  28.589  -6.112  0.00  0.00     0.048 C 
HETATM   19  C   UNK N   1      25.859  28.173  -4.184  0.00  0.00     0.087 C 
BRANCH  19  20
HETATM   20  C   UNK N   1      26.348  29.343  -3.408  0.00  0.00     0.165 C 
HETATM   21  O   UNK N   1      27.129  29.211  -2.479  0.00  0.00    -0.647 OA
BRANCH  20  22
HETATM   22  O   UNK N   1      25.914  30.573  -3.734  0.00  0.00    -0.773 OA
HETATM   23  H   UNK N   1      25.565  30.737  -4.588  0.00  0.00     0.167 HD
ENDBRANCH  20  22
ENDBRANCH  19  20
ENDBRANCH  16  17
ENDBRANCH   3  15
TORSDOF 6
ENDMDL
MODEL 2
REMARK VINA RESULT:      -6.9      2.900      6.001
REMARK  6 active torsions:
REMARK  status: ('A' for Active; 'I' for Inactive)
REMARK    1  A    between atoms: O_1  and  C_22 
REMARK    2  A    between atoms: C_6  and  C_11 
REMARK    3  A    between atoms: C_13  and  C_14 
REMARK    4  A    between atoms: C_16  and  C_17 
REMARK    5  A    between atoms: C_18  and  C_19 
REMARK    6  A    between atoms: C_21  and  C_22 
ROOT
HETATM    1  C   UNK N   1      27.588  21.695  -7.904  0.00  0.00    -0.062 C 
HETATM    2  C   UNK N   1      26.910  21.275  -9.162  0.00  0.00     0.048 C 
HETATM    3  C   UNK N   1      28.685  21.010  -7.523  0.00  0.00     0.007 C 
ENDROOT
BRANCH   1   4
HETATM    4  C   UNK N   1      26.987  22.835  -7.151  0.00  0.00     0.007 C 
HETATM    5  C   UNK N   1      27.451  24.092  -7.169  0.00  0.00     0.009 C 
BRANCH   5   6
HETATM    6  C   UNK N   1      26.863  25.211  -6.368  0.00  0.00    -0.048 C 
HETATM    7  C   UNK N   1      27.142  25.321  -4.862  0.00  0.00    -0.020 C 
HETATM    8  C   UNK N   1      26.609  26.614  -4.239  0.00  0.00     0.014 C 
HETATM    9  C   UNK N   1      26.515  24.137  -4.143  0.00  0.00     0.020 C 
HETATM   10  C   UNK N   1      28.637  25.318  -4.595  0.00  0.00     0.020 C 
HETATM   11  C   UNK N   1      25.242  26.964  -4.783  0.00  0.00     0.005 C 
HETATM   12  C   UNK N   1      25.397  27.252  -6.265  0.00  0.00     0.034 C 
HETATM   13  C   UNK N   1      26.064  26.117  -6.999  0.00  0.00    -0.077 C 
HETATM   14  C   UNK N   1      25.785  26.017  -8.462  0.00  0.00     0.044 C 
ENDBRANCH   5   6
ENDBRANCH   1   4
BRANCH   3  15
HETATM   15  C   UNK N   1      29.440  21.305  -6.300  0.00  0.00     0.001 C 
HETATM   16  C   UNK N   1      30.380  22.250  -6.247  0.00  0.00     0.007 C 
BRANCH  16  17
HETATM   17  C   UNK N   1      31.103  22.505  -4.986  0.00  0.00    -0.056 C 
HETATM   18  C   UNK N   1      32.367  23.308  -5.009  0.00  0.00     0.048 C 
HETATM   19  C   UNK N   1      30.613  22.008  -3.838  0.00  0.00     0.087 C 
BRANCH  19  20
HETATM   20  C   UNK N   1      31.232  22.169  -2.496  0.00  0.00     0.165 C 
HETATM   21  O   UNK N   1      30.810  22.987  -1.693  0.00  0.00    -0.647 OA
BRANCH  20  22
HETATM   22  O   UNK N   1      32.284  21.401  -2.163  0.00  0.00    -0.773 OA
HETATM   23  H   UNK N   1      32.953  21.739  -1.600  0.00  0.00     0.167 HD
ENDBRANCH  20  22
ENDBRANCH  19  20
ENDBRANCH  16  17
ENDBRANCH   3  15
TORSDOF 6
ENDMDL
MODEL 3
REMARK VINA RESULT:      -6.6     13.922     16.998
REMARK  6 active torsions:
REMARK  status: ('A' for Active; 'I' for Inactive)
REMARK    1  A    between atoms: O_1  and  C_22 
REMARK    2  A    between atoms: C_6  and  C_11 
REMARK    3  A    between atoms: C_13  and  C_14 
REMARK    4  A    between atoms: C_16  and  C_17 
REMARK    5  A    between atoms: C_18  and  C_19 
REMARK    6  A    between atoms: C_21  and  C_22 
ROOT
HETATM    1  C   UNK N   1      33.180  16.342   4.522  0.00  0.00    -0.062 C 
HETATM    2  C   UNK N   1      32.753  16.353   3.095  0.00  0.00     0.048 C 
HETATM    3  C   UNK N   1      34.286  15.640   4.841  0.00  0.00     0.007 C 
ENDROOT
BRANCH   1   4
HETATM    4  C   UNK N   1      32.334  17.096   5.494  0.00  0.00     0.007 C 
HETATM    5  C   UNK N   1      31.275  16.588   6.140  0.00  0.00     0.009 C 
BRANCH   5   6
HETATM    6  C   UNK N   1      30.411  17.375   7.074  0.00  0.00    -0.048 C 
HETATM    7  C   UNK N   1      30.859  17.630   8.521  0.00  0.00    -0.020 C 
HETATM    8  C   UNK N   1      29.942  18.594   9.278  0.00  0.00     0.014 C 
HETATM    9  C   UNK N   1      30.910  16.310   9.275  0.00  0.00     0.020 C 
HETATM   10  C   UNK N   1      32.239  18.262   8.548  0.00  0.00     0.020 C 
HETATM   11  C   UNK N   1      28.486  18.323   8.973  0.00  0.00     0.005 C 
HETATM   12  C   UNK N   1      28.264  18.612   7.500  0.00  0.00     0.034 C 
HETATM   13  C   UNK N   1      29.215  17.846   6.619  0.00  0.00    -0.077 C 
HETATM   14  C   UNK N   1      28.771  17.601   5.216  0.00  0.00     0.044 C 
ENDBRANCH   5   6
ENDBRANCH   1   4
BRANCH   3  15
HETATM   15  C   UNK N   1      34.808  15.530   6.207  0.00  0.00     0.001 C 
HETATM   16  C   UNK N   1      34.311  14.673   7.099  0.00  0.00     0.007 C 
BRANCH  16  17
HETATM   17  C   UNK N   1      34.882  14.603   8.459  0.00  0.00    -0.056 C 
HETATM   18  C   UNK N   1      35.261  13.273   9.034  0.00  0.00     0.048 C 
HETATM   19  C   UNK N   1      35.049  15.738   9.157  0.00  0.00     0.087 C 
BRANCH  19  20
HETATM   20  C   UNK N   1      35.598  15.829  10.536  0.00  0.00     0.165 C 
HETATM   21  O   UNK N   1      34.894  15.645  11.516  0.00  0.00    -0.647 OA
BRANCH  20  22
HETATM   22  O   UNK N   1      36.899  16.126  10.705  0.00  0.00    -0.773 OA
HETATM   23  H   UNK N   1      37.492  16.065   9.982  0.00  0.00     0.167 HD
ENDBRANCH  20  22
ENDBRANCH  19  20
ENDBRANCH  16  17
ENDBRANCH   3  15
TORSDOF 6
ENDMDL
MODEL 4
REMARK VINA RESULT:      -6.5     11.905     14.482
REMARK  6 active torsions:
REMARK  status: ('A' for Active; 'I' for Inactive)
REMARK    1  A    between atoms: O_1  and  C_22 
REMARK    2  A    between atoms: C_6  and  C_11 
REMARK    3  A    between atoms: C_13  and  C_14 
REMARK    4  A    between atoms: C_16  and  C_17 
REMARK    5  A    between atoms: C_18  and  C_19 
REMARK    6  A    between atoms: C_21  and  C_22 
ROOT
HETATM    1  C   UNK N   1      25.883  19.865   4.031  0.00  0.00    -0.062 C 
HETATM    2  C   UNK N   1      25.405  20.458   2.751  0.00  0.00     0.048 C 
HETATM    3  C   UNK N   1      27.125  20.184   4.445  0.00  0.00     0.007 C 
ENDROOT
BRANCH   1   4
HETATM    4  C   UNK N   1      24.951  18.946   4.748  0.00  0.00     0.007 C 
HETATM    5  C   UNK N   1      24.781  17.649   4.455  0.00  0.00     0.009 C 
BRANCH   5   6
HETATM    6  C   UNK N   1      23.805  16.756   5.154  0.00  0.00    -0.048 C 
HETATM    7  C   UNK N   1      22.296  16.915   4.917  0.00  0.00    -0.020 C 
HETATM    8  C   UNK N   1      21.460  15.814   5.572  0.00  0.00     0.014 C 
HETATM    9  C   UNK N   1      21.839  18.262   5.456  0.00  0.00     0.020 C 
HETATM   10  C   UNK N   1      21.979  16.850   3.433  0.00  0.00     0.020 C 
HETATM   11  C   UNK N   1      21.978  15.476   6.952  0.00  0.00     0.005 C 
HETATM   12  C   UNK N   1      23.371  14.897   6.791  0.00  0.00     0.034 C 
HETATM   13  C   UNK N   1      24.282  15.812   6.014  0.00  0.00    -0.077 C 
HETATM   14  C   UNK N   1      25.746  15.651   6.252  0.00  0.00     0.044 C 
ENDBRANCH   5   6
ENDBRANCH   1   4
BRANCH   3  15
HETATM   15  C   UNK N   1      27.727  19.660   5.676  0.00  0.00     0.001 C 
HETATM   16  C   UNK N   1      28.326  18.470   5.732  0.00  0.00     0.007 C 
BRANCH  16  17
HETATM   17  C   UNK N   1      28.918  17.998   7.000  0.00  0.00    -0.056 C 
HETATM   18  C   UNK N   1      30.119  17.102   6.965  0.00  0.00     0.048 C 
HETATM   19  C   UNK N   1      28.366  18.380   8.163  0.00  0.00     0.087 C 
BRANCH  19  20
HETATM   20  C   UNK N   1      28.840  17.979   9.514  0.00  0.00     0.165 C 
HETATM   21  O   UNK N   1      28.347  17.033  10.109  0.00  0.00    -0.647 OA
BRANCH  20  22
HETATM   22  O   UNK N   1      29.829  18.680  10.096  0.00  0.00    -0.773 OA
HETATM   23  H   UNK N   1      29.657  19.533  10.445  0.00  0.00     0.167 HD
ENDBRANCH  20  22
ENDBRANCH  19  20
ENDBRANCH  16  17
ENDBRANCH   3  15
TORSDOF 6
ENDMDL
MODEL 5
REMARK VINA RESULT:      -6.5     21.506     25.128
REMARK  6 active torsions:
REMARK  status: ('A' for Active; 'I' for Inactive)
REMARK    1  A    between atoms: O_1  and  C_22 
REMARK    2  A    between atoms: C_6  and  C_11 
REMARK    3  A    between atoms: C_13  and  C_14 
REMARK    4  A    between atoms: C_16  and  C_17 
REMARK    5  A    between atoms: C_18  and  C_19 
REMARK    6  A    between atoms: C_21  and  C_22 
ROOT
HETATM    1  C   UNK N   1      38.243   9.803  13.694  0.00  0.00    -0.062 C 
HETATM    2  C   UNK N   1      39.141   8.666  14.039  0.00  0.00     0.048 C 
HETATM    3  C   UNK N   1      37.997  10.035  12.389  0.00  0.00     0.007 C 
ENDROOT
BRANCH   1   4
HETATM    4  C   UNK N   1      37.698  10.611  14.824  0.00  0.00     0.007 C 
HETATM    5  C   UNK N   1      36.509  10.404  15.408  0.00  0.00     0.009 C 
BRANCH   5   6
HETATM    6  C   UNK N   1      35.960  11.257  16.508  0.00  0.00    -0.048 C 
HETATM    7  C   UNK N   1      35.407  12.658  16.205  0.00  0.00    -0.020 C 
HETATM    8  C   UNK N   1      34.730  13.316  17.410  0.00  0.00     0.014 C 
HETATM    9  C   UNK N   1      36.538  13.556  15.728  0.00  0.00     0.020 C 
HETATM   10  C   UNK N   1      34.347  12.589  15.120  0.00  0.00     0.020 C 
HETATM   11  C   UNK N   1      35.509  13.068  18.682  0.00  0.00     0.005 C 
HETATM   12  C   UNK N   1      35.481  11.576  18.956  0.00  0.00     0.034 C 
HETATM   13  C   UNK N   1      35.976  10.772  17.782  0.00  0.00    -0.077 C 
HETATM   14  C   UNK N   1      36.513   9.413  18.086  0.00  0.00     0.044 C 
ENDBRANCH   5   6
ENDBRANCH   1   4
BRANCH   3  15
HETATM   15  C   UNK N   1      37.146  11.128  11.907  0.00  0.00     0.001 C 
HETATM   16  C   UNK N   1      37.643  12.291  11.485  0.00  0.00     0.007 C 
BRANCH  16  17
HETATM   17  C   UNK N   1      36.737  13.354  11.006  0.00  0.00    -0.056 C 
HETATM   18  C   UNK N   1      36.728  13.718   9.553  0.00  0.00     0.048 C 
HETATM   19  C   UNK N   1      35.936  13.978  11.886  0.00  0.00     0.087 C 
BRANCH  19  20
HETATM   20  C   UNK N   1      34.983  15.070  11.559  0.00  0.00     0.165 C 
HETATM   21  O   UNK N   1      35.342  16.236  11.503  0.00  0.00    -0.647 OA
BRANCH  20  22
HETATM   22  O   UNK N   1      33.693  14.767  11.328  0.00  0.00    -0.773 OA
HETATM   23  H   UNK N   1      33.132  14.530  12.040  0.00  0.00     0.167 HD
ENDBRANCH  20  22
ENDBRANCH  19  20
ENDBRANCH  16  17
ENDBRANCH   3  15
TORSDOF 6
ENDMDL
MODEL 6
REMARK VINA RESULT:      -6.4      2.892      6.394
REMARK  6 active torsions:
REMARK  status: ('A' for Active; 'I' for Inactive)
REMARK    1  A    between atoms: O_1  and  C_22 
REMARK    2  A    between atoms: C_6  and  C_11 
REMARK    3  A    between atoms: C_13  and  C_14 
REMARK    4  A    between atoms: C_16  and  C_17 
REMARK    5  A    between atoms: C_18  and  C_19 
REMARK    6  A    between atoms: C_21  and  C_22 
ROOT
HETATM    1  C   UNK N   1      27.615  24.268  -7.966  0.00  0.00    -0.062 C 
HETATM    2  C   UNK N   1      27.131  24.603  -9.334  0.00  0.00     0.048 C 
HETATM    3  C   UNK N   1      28.164  23.052  -7.773  0.00  0.00     0.007 C 
ENDROOT
BRANCH   1   4
HETATM    4  C   UNK N   1      27.437  25.304  -6.906  0.00  0.00     0.007 C 
HETATM    5  C   UNK N   1      27.098  26.581  -7.135  0.00  0.00     0.009 C 
BRANCH   5   6
HETATM    6  C   UNK N   1      26.972  27.616  -6.062  0.00  0.00    -0.048 C 
HETATM    7  C   UNK N   1      26.021  27.397  -4.877  0.00  0.00    -0.020 C 
HETATM    8  C   UNK N   1      26.147  28.469  -3.792  0.00  0.00     0.014 C 
HETATM    9  C   UNK N   1      24.585  27.374  -5.377  0.00  0.00     0.020 C 
HETATM   10  C   UNK N   1      26.321  26.076  -4.190  0.00  0.00     0.020 C 
HETATM   11  C   UNK N   1      26.299  29.848  -4.395  0.00  0.00     0.005 C 
HETATM   12  C   UNK N   1      27.611  29.874  -5.157  0.00  0.00     0.034 C 
HETATM   13  C   UNK N   1      27.705  28.761  -6.168  0.00  0.00    -0.077 C 
HETATM   14  C   UNK N   1      28.630  28.984  -7.318  0.00  0.00     0.044 C 
ENDBRANCH   5   6
ENDBRANCH   1   4
BRANCH   3  15
HETATM   15  C   UNK N   1      28.666  22.586  -6.476  0.00  0.00     0.001 C 
HETATM   16  C   UNK N   1      29.967  22.449  -6.217  0.00  0.00     0.007 C 
BRANCH  16  17
HETATM   17  C   UNK N   1      30.412  21.980  -4.890  0.00  0.00    -0.056 C 
HETATM   18  C   UNK N   1      30.607  20.514  -4.651  0.00  0.00     0.048 C 
HETATM   19  C   UNK N   1      30.632  22.880  -3.917  0.00  0.00     0.087 C 
BRANCH  19  20
HETATM   20  C   UNK N   1      31.070  22.563  -2.533  0.00  0.00     0.165 C 
HETATM   21  O   UNK N   1      32.100  21.945  -2.315  0.00  0.00    -0.647 OA
BRANCH  20  22
HETATM   22  O   UNK N   1      30.308  22.960  -1.498  0.00  0.00    -0.773 OA
HETATM   23  H   UNK N   1      30.551  22.731  -0.622  0.00  0.00     0.167 HD
ENDBRANCH  20  22
ENDBRANCH  19  20
ENDBRANCH  16  17
ENDBRANCH   3  15
TORSDOF 6
ENDMDL
MODEL 7
REMARK VINA RESULT:      -6.3     22.022     25.651
REMARK  6 active torsions:
REMARK  status: ('A' for Active; 'I' for Inactive)
REMARK    1  A    between atoms: O_1  and  C_22 
REMARK    2  A    between atoms: C_6  and  C_11 
REMARK    3  A    between atoms: C_13  and  C_14 
REMARK    4  A    between atoms: C_16  and  C_17 
REMARK    5  A    between atoms: C_18  and  C_19 
REMARK    6  A    between atoms: C_21  and  C_22 
ROOT
HETATM    1  C   UNK N   1      36.849  14.704  15.057  0.00  0.00    -0.062 C 
HETATM    2  C   UNK N   1      37.545  15.764  15.838  0.00  0.00     0.048 C 
HETATM    3  C   UNK N   1      36.431  15.012  13.813  0.00  0.00     0.007 C 
ENDROOT
BRANCH   1   4
HETATM    4  C   UNK N   1      36.652  13.383  15.724  0.00  0.00     0.007 C 
HETATM    5  C   UNK N   1      35.517  12.990  16.320  0.00  0.00     0.009 C 
BRANCH   5   6
HETATM    6  C   UNK N   1      35.355  11.681  17.026  0.00  0.00    -0.048 C 
HETATM    7  C   UNK N   1      35.332  10.366  16.232  0.00  0.00    -0.020 C 
HETATM    8  C   UNK N   1      35.334   9.121  17.122  0.00  0.00     0.014 C 
HETATM    9  C   UNK N   1      34.096  10.332  15.346  0.00  0.00     0.020 C 
HETATM   10  C   UNK N   1      36.566  10.252  15.355  0.00  0.00     0.020 C 
HETATM   11  C   UNK N   1      34.428   9.298  18.319  0.00  0.00     0.005 C 
HETATM   12  C   UNK N   1      35.003  10.415  19.170  0.00  0.00     0.034 C 
HETATM   13  C   UNK N   1      35.212  11.681  18.381  0.00  0.00    -0.077 C 
HETATM   14  C   UNK N   1      35.231  12.954  19.161  0.00  0.00     0.044 C 
ENDBRANCH   5   6
ENDBRANCH   1   4
BRANCH   3  15
HETATM   15  C   UNK N   1      35.720  14.070  12.942  0.00  0.00     0.001 C 
HETATM   16  C   UNK N   1      36.328  13.045  12.345  0.00  0.00     0.007 C 
BRANCH  16  17
HETATM   17  C   UNK N   1      35.558  12.127  11.482  0.00  0.00    -0.056 C 
HETATM   18  C   UNK N   1      34.990  12.630  10.190  0.00  0.00     0.048 C 
HETATM   19  C   UNK N   1      35.377  10.856  11.875  0.00  0.00     0.087 C 
BRANCH  19  20
HETATM   20  C   UNK N   1      34.618   9.822  11.125  0.00  0.00     0.165 C 
HETATM   21  O   UNK N   1      35.176   9.048  10.362  0.00  0.00    -0.647 OA
BRANCH  20  22
HETATM   22  O   UNK N   1      33.285   9.742  11.285  0.00  0.00    -0.773 OA
HETATM   23  H   UNK N   1      32.712  10.020  10.597  0.00  0.00     0.167 HD
ENDBRANCH  20  22
ENDBRANCH  19  20
ENDBRANCH  16  17
ENDBRANCH   3  15
TORSDOF 6
ENDMDL
MODEL 8
REMARK VINA RESULT:      -6.3     25.651     29.163
REMARK  6 active torsions:
REMARK  status: ('A' for Active; 'I' for Inactive)
REMARK    1  A    between atoms: O_1  and  C_22 
REMARK    2  A    between atoms: C_6  and  C_11 
REMARK    3  A    between atoms: C_13  and  C_14 
REMARK    4  A    between atoms: C_16  and  C_17 
REMARK    5  A    between atoms: C_18  and  C_19 
REMARK    6  A    between atoms: C_21  and  C_22 
ROOT
HETATM    1  C   UNK N   1      36.224   7.453  17.770  0.00  0.00    -0.062 C 
HETATM    2  C   UNK N   1      36.984   6.538  16.872  0.00  0.00     0.048 C 
HETATM    3  C   UNK N   1      35.564   6.906  18.810  0.00  0.00     0.007 C 
ENDROOT
BRANCH   1   4
HETATM    4  C   UNK N   1      36.238   8.907  17.434  0.00  0.00     0.007 C 
HETATM    5  C   UNK N   1      35.146   9.645  17.190  0.00  0.00     0.009 C 
BRANCH   5   6
HETATM    6  C   UNK N   1      35.184  11.091  16.806  0.00  0.00    -0.048 C 
HETATM    7  C   UNK N   1      35.160  11.505  15.328  0.00  0.00    -0.020 C 
HETATM    8  C   UNK N   1      35.028  13.016  15.123  0.00  0.00     0.014 C 
HETATM    9  C   UNK N   1      36.433  11.028  14.647  0.00  0.00     0.020 C 
HETATM   10  C   UNK N   1      33.967  10.886  14.620  0.00  0.00     0.020 C 
HETATM   11  C   UNK N   1      35.883  13.781  16.109  0.00  0.00     0.005 C 
HETATM   12  C   UNK N   1      35.341  13.503  17.499  0.00  0.00     0.034 C 
HETATM   13  C   UNK N   1      35.258  12.028  17.793  0.00  0.00    -0.077 C 
HETATM   14  C   UNK N   1      35.284  11.635  19.233  0.00  0.00     0.044 C 
ENDBRANCH   5   6
ENDBRANCH   1   4
BRANCH   3  15
HETATM   15  C   UNK N   1      34.765   7.686  19.762  0.00  0.00     0.001 C 
HETATM   16  C   UNK N   1      33.472   7.949  19.567  0.00  0.00     0.007 C 
BRANCH  16  17
HETATM   17  C   UNK N   1      32.718   8.736  20.563  0.00  0.00    -0.056 C 
HETATM   18  C   UNK N   1      31.223   8.793  20.482  0.00  0.00     0.048 C 
HETATM   19  C   UNK N   1      33.389   9.390  21.526  0.00  0.00     0.087 C 
BRANCH  19  20
HETATM   20  C   UNK N   1      32.774  10.228  22.587  0.00  0.00     0.165 C 
HETATM   21  O   UNK N   1      32.195   9.729  23.539  0.00  0.00    -0.647 OA
BRANCH  20  22
HETATM   22  O   UNK N   1      32.852  11.567  22.493  0.00  0.00    -0.773 OA
HETATM   23  H   UNK N   1      32.130  12.056  22.149  0.00  0.00     0.167 HD
ENDBRANCH  20  22
ENDBRANCH  19  20
ENDBRANCH  16  17
ENDBRANCH   3  15
TORSDOF 6
ENDMDL
MODEL 9
REMARK VINA RESULT:      -6.3      2.693      4.538
REMARK  6 active torsions:
REMARK  status: ('A' for Active; 'I' for Inactive)
REMARK    1  A    between atoms: O_1  and  C_22 
REMARK    2  A    between atoms: C_6  and  C_11 
REMARK    3  A    between atoms: C_13  and  C_14 
REMARK    4  A    between atoms: C_16  and  C_17 
REMARK    5  A    between atoms: C_18  and  C_19 
REMARK    6  A    between atoms: C_21  and  C_22 
ROOT
HETATM    1  C   UNK N   1      29.487  19.971  -8.084  0.00  0.00    -0.062 C 
HETATM    2  C   UNK N   1      30.021  19.157  -9.211  0.00  0.00     0.048 C 
HETATM    3  C   UNK N   1      28.341  20.651  -8.289  0.00  0.00     0.007 C 
ENDROOT
BRANCH   1   4
HETATM    4  C   UNK N   1      30.277  19.986  -6.818  0.00  0.00     0.007 C 
HETATM    5  C   UNK N   1      31.357  20.750  -6.600  0.00  0.00     0.009 C 
BRANCH   5   6
HETATM    6  C   UNK N   1      32.165  20.714  -5.341  0.00  0.00    -0.048 C 
HETATM    7  C   UNK N   1      31.727  21.525  -4.113  0.00  0.00    -0.020 C 
HETATM    8  C   UNK N   1      32.566  21.237  -2.865  0.00  0.00     0.014 C 
HETATM    9  C   UNK N   1      31.816  23.010  -4.429  0.00  0.00     0.020 C 
HETATM   10  C   UNK N   1      30.295  21.191  -3.736  0.00  0.00     0.020 C 
HETATM   11  C   UNK N   1      34.034  21.111  -3.206  0.00  0.00     0.005 C 
HETATM   12  C   UNK N   1      34.196  19.898  -4.103  0.00  0.00     0.034 C 
HETATM   13  C   UNK N   1      33.301  19.961  -5.313  0.00  0.00    -0.077 C 
HETATM   14  C   UNK N   1      33.735  19.171  -6.503  0.00  0.00     0.044 C 
ENDBRANCH   5   6
ENDBRANCH   1   4
BRANCH   3  15
HETATM   15  C   UNK N   1      27.713  21.503  -7.273  0.00  0.00     0.001 C 
HETATM   16  C   UNK N   1      28.063  22.777  -7.089  0.00  0.00     0.007 C 
BRANCH  16  17
HETATM   17  C   UNK N   1      27.391  23.587  -6.054  0.00  0.00    -0.056 C 
HETATM   18  C   UNK N   1      26.044  24.178  -6.337  0.00  0.00     0.048 C 
HETATM   19  C   UNK N   1      28.004  23.782  -4.875  0.00  0.00     0.087 C 
BRANCH  19  20
HETATM   20  C   UNK N   1      27.462  24.580  -3.744  0.00  0.00     0.165 C 
HETATM   21  O   UNK N   1      27.580  25.795  -3.706  0.00  0.00    -0.647 OA
BRANCH  20  22
HETATM   22  O   UNK N   1      26.835  23.948  -2.737  0.00  0.00    -0.773 OA
HETATM   23  H   UNK N   1      26.328  23.178  -2.909  0.00  0.00     0.167 HD
ENDBRANCH  20  22
ENDBRANCH  19  20
ENDBRANCH  16  17
ENDBRANCH   3  15
TORSDOF 6
ENDMDL
