MODEL 1
REMARK VINA RESULT:      -7.1      0.000      0.000
REMARK  3 active torsions:
REMARK  status: ('A' for Active; 'I' for Inactive)
REMARK    1  A    between atoms: S_2  and  N_8 
REMARK    2  A    between atoms: S_2  and  C_17 
REMARK    3  A    between atoms: N_6  and  C_13 
ROOT
HETATM    1 Cl   UNK N   1      19.937  17.343   2.593  0.00  0.00    -0.083 Cl
HETATM    2  O   UNK N   1      26.049  19.059   4.719  0.00  0.00    -0.267 OA
HETATM    3  N   UNK N   1      26.192  16.867   5.295  0.00  0.00    -0.292 N 
HETATM    4  N   UNK N   1      24.230  15.469   4.722  0.00  0.00    -0.368 N 
HETATM    5  C   UNK N   1      25.525  15.554   5.372  0.00  0.00     0.188 C 
HETATM    6  C   UNK N   1      23.546  16.589   4.215  0.00  0.00     0.047 A 
HETATM    7  C   UNK N   1      24.150  17.834   4.258  0.00  0.00     0.060 A 
HETATM    8  C   UNK N   1      25.516  17.959   4.782  0.00  0.00     0.262 C 
HETATM    9  C   UNK N   1      25.348  15.145   6.829  0.00  0.00     0.056 C 
HETATM   10  C   UNK N   1      23.461  18.958   3.795  0.00  0.00     0.046 A 
HETATM   11  C   UNK N   1      22.257  16.451   3.689  0.00  0.00     0.055 A 
HETATM   12  C   UNK N   1      22.168  18.844   3.287  0.00  0.00     0.102 A 
HETATM   13  C   UNK N   1      21.560  17.572   3.220  0.00  0.00     0.059 A 
HETATM   14  H   UNK N   1      23.809  14.584   4.632  0.00  0.00     0.161 HD
ENDROOT
BRANCH   3  15
HETATM   15  C   UNK N   1      27.563  16.997   5.785  0.00  0.00     0.045 A 
HETATM   16  C   UNK N   1      28.715  16.787   4.957  0.00  0.00    -0.035 A 
HETATM   17  C   UNK N   1      30.000  16.938   5.494  0.00  0.00     0.009 A 
HETATM   18  C   UNK N   1      28.646  16.464   3.503  0.00  0.00     0.050 C 
HETATM   19  C   UNK N   1      30.186  17.285   6.829  0.00  0.00     0.001 A 
HETATM   20  C   UNK N   1      29.084  17.495   7.647  0.00  0.00     0.002 A 
HETATM   21  C   UNK N   1      27.798  17.354   7.131  0.00  0.00     0.030 A 
ENDBRANCH   3  15
BRANCH  12  22
HETATM   22  S   UNK N   1      21.335  20.361   2.806  0.00  0.00     0.258 S 
HETATM   23  O   UNK N   1      20.270  20.746   3.843  0.00  0.00    -0.201 OA
HETATM   24  O   UNK N   1      22.266  21.582   2.861  0.00  0.00    -0.201 OA
BRANCH  22  25
HETATM   25  N   UNK N   1      20.507  20.491   1.254  0.00  0.00    -0.324 N 
HETATM   26  H   UNK N   1      19.919  19.737   0.899  0.00  0.00     0.169 HD
HETATM   27  H   UNK N   1      20.619  21.340   0.699  0.00  0.00     0.169 HD
ENDBRANCH  22  25
ENDBRANCH  12  22
TORSDOF 3
ENDMDL
MODEL 2
REMARK VINA RESULT:      -7.0      9.418     12.502
REMARK  3 active torsions:
REMARK  status: ('A' for Active; 'I' for Inactive)
REMARK    1  A    between atoms: S_2  and  N_8 
REMARK    2  A    between atoms: S_2  and  C_17 
REMARK    3  A    between atoms: N_6  and  C_13 
ROOT
HETATM    1 Cl   UNK N   1      36.392  14.931  13.394  0.00  0.00    -0.083 Cl
HETATM    2  O   UNK N   1      33.171  14.278   7.561  0.00  0.00    -0.267 OA
HETATM    3  N   UNK N   1      33.470  16.525   7.429  0.00  0.00    -0.292 N 
HETATM    4  N   UNK N   1      34.728  17.559   9.295  0.00  0.00    -0.368 N 
HETATM    5  C   UNK N   1      33.970  17.754   8.073  0.00  0.00     0.188 C 
HETATM    6  C   UNK N   1      34.832  16.317   9.949  0.00  0.00     0.047 A 
HETATM    7  C   UNK N   1      34.254  15.196   9.378  0.00  0.00     0.060 A 
HETATM    8  C   UNK N   1      33.589  15.307   8.074  0.00  0.00     0.262 C 
HETATM    9  C   UNK N   1      32.807  18.688   8.385  0.00  0.00     0.056 C 
HETATM   10  C   UNK N   1      34.317  13.967  10.042  0.00  0.00     0.046 A 
HETATM   11  C   UNK N   1      35.497  16.219  11.176  0.00  0.00     0.055 A 
HETATM   12  C   UNK N   1      34.957  13.853  11.275  0.00  0.00     0.102 A 
HETATM   13  C   UNK N   1      35.566  14.991  11.847  0.00  0.00     0.059 A 
HETATM   14  H   UNK N   1      35.192  18.333   9.687  0.00  0.00     0.161 HD
ENDROOT
BRANCH   3  15
HETATM   15  C   UNK N   1      32.833  16.619   6.117  0.00  0.00     0.045 A 
HETATM   16  C   UNK N   1      31.411  16.604   5.932  0.00  0.00    -0.035 A 
HETATM   17  C   UNK N   1      30.872  16.707   4.643  0.00  0.00     0.009 A 
HETATM   18  C   UNK N   1      30.429  16.540   7.051  0.00  0.00     0.050 C 
HETATM   19  C   UNK N   1      31.695  16.819   3.526  0.00  0.00     0.001 A 
HETATM   20  C   UNK N   1      33.074  16.839   3.683  0.00  0.00     0.002 A 
HETATM   21  C   UNK N   1      33.630  16.742   4.957  0.00  0.00     0.030 A 
ENDBRANCH   3  15
BRANCH  12  22
HETATM   22  S   UNK N   1      34.899  12.253  12.088  0.00  0.00     0.258 S 
HETATM   23  O   UNK N   1      36.316  11.689  12.274  0.00  0.00    -0.201 OA
HETATM   24  O   UNK N   1      34.419  12.352  13.543  0.00  0.00    -0.201 OA
BRANCH  22  25
HETATM   25  N   UNK N   1      33.981  10.915  11.397  0.00  0.00    -0.324 N 
HETATM   26  H   UNK N   1      34.265   9.945  11.536  0.00  0.00     0.169 HD
HETATM   27  H   UNK N   1      33.146  11.115  10.845  0.00  0.00     0.169 HD
ENDBRANCH  22  25
ENDBRANCH  12  22
TORSDOF 3
ENDMDL
MODEL 3
REMARK VINA RESULT:      -6.9      9.044     12.709
REMARK  3 active torsions:
REMARK  status: ('A' for Active; 'I' for Inactive)
REMARK    1  A    between atoms: S_2  and  N_8 
REMARK    2  A    between atoms: S_2  and  C_17 
REMARK    3  A    between atoms: N_6  and  C_13 
ROOT
HETATM    1 Cl   UNK N   1      38.435  13.182  10.539  0.00  0.00    -0.083 Cl
HETATM    2  O   UNK N   1      32.051  14.999   9.666  0.00  0.00    -0.267 OA
HETATM    3  N   UNK N   1      32.768  15.611   7.600  0.00  0.00    -0.292 N 
HETATM    4  N   UNK N   1      35.151  15.154   7.104  0.00  0.00    -0.368 N 
HETATM    5  C   UNK N   1      33.899  15.743   6.663  0.00  0.00     0.188 C 
HETATM    6  C   UNK N   1      35.354  14.656   8.404  0.00  0.00     0.047 A 
HETATM    7  C   UNK N   1      34.301  14.647   9.303  0.00  0.00     0.060 A 
HETATM    8  C   UNK N   1      32.975  15.107   8.872  0.00  0.00     0.262 C 
HETATM    9  C   UNK N   1      34.154  17.215   6.360  0.00  0.00     0.056 C 
HETATM   10  C   UNK N   1      34.506  14.193  10.609  0.00  0.00     0.046 A 
HETATM   11  C   UNK N   1      36.615  14.191   8.793  0.00  0.00     0.055 A 
HETATM   12  C   UNK N   1      35.760  13.745  11.022  0.00  0.00     0.102 A 
HETATM   13  C   UNK N   1      36.828  13.732  10.099  0.00  0.00     0.059 A 
HETATM   14  H   UNK N   1      35.894  15.100   6.462  0.00  0.00     0.161 HD
ENDROOT
BRANCH   3  15
HETATM   15  C   UNK N   1      31.437  16.036   7.170  0.00  0.00     0.045 A 
HETATM   16  C   UNK N   1      30.778  17.199   7.692  0.00  0.00    -0.035 A 
HETATM   17  C   UNK N   1      29.506  17.551   7.226  0.00  0.00     0.009 A 
HETATM   18  C   UNK N   1      31.392  18.124   8.687  0.00  0.00     0.050 C 
HETATM   19  C   UNK N   1      28.856  16.785   6.261  0.00  0.00     0.001 A 
HETATM   20  C   UNK N   1      29.477  15.658   5.741  0.00  0.00     0.002 A 
HETATM   21  C   UNK N   1      30.744  15.294   6.189  0.00  0.00     0.030 A 
ENDBRANCH   3  15
BRANCH  12  22
HETATM   22  S   UNK N   1      35.939  13.272  12.745  0.00  0.00     0.258 S 
HETATM   23  O   UNK N   1      34.563  13.063  13.395  0.00  0.00    -0.201 OA
HETATM   24  O   UNK N   1      36.564  11.879  12.907  0.00  0.00    -0.201 OA
BRANCH  22  25
HETATM   25  N   UNK N   1      36.813  14.297  13.884  0.00  0.00    -0.324 N 
HETATM   26  H   UNK N   1      36.649  15.303  13.929  0.00  0.00     0.169 HD
HETATM   27  H   UNK N   1      37.498  13.875  14.511  0.00  0.00     0.169 HD
ENDBRANCH  22  25
ENDBRANCH  12  22
TORSDOF 3
ENDMDL
MODEL 4
REMARK VINA RESULT:      -6.8     11.148     13.347
REMARK  3 active torsions:
REMARK  status: ('A' for Active; 'I' for Inactive)
REMARK    1  A    between atoms: S_2  and  N_8 
REMARK    2  A    between atoms: S_2  and  C_17 
REMARK    3  A    between atoms: N_6  and  C_13 
ROOT
HETATM    1 Cl   UNK N   1      35.301  15.285   5.944  0.00  0.00    -0.083 Cl
HETATM    2  O   UNK N   1      34.751  13.968  12.486  0.00  0.00    -0.267 OA
HETATM    3  N   UNK N   1      35.211  11.840  11.842  0.00  0.00    -0.292 N 
HETATM    4  N   UNK N   1      35.643  11.511   9.425  0.00  0.00    -0.368 N 
HETATM    5  C   UNK N   1      35.472  10.903  10.733  0.00  0.00     0.188 C 
HETATM    6  C   UNK N   1      35.392  12.872   9.168  0.00  0.00     0.047 A 
HETATM    7  C   UNK N   1      35.037  13.709  10.212  0.00  0.00     0.060 A 
HETATM    8  C   UNK N   1      34.979  13.178  11.580  0.00  0.00     0.262 C 
HETATM    9  C   UNK N   1      34.342   9.886  10.634  0.00  0.00     0.056 C 
HETATM   10  C   UNK N   1      34.746  15.052   9.958  0.00  0.00     0.046 A 
HETATM   11  C   UNK N   1      35.482  13.372   7.864  0.00  0.00     0.055 A 
HETATM   12  C   UNK N   1      34.809  15.565   8.663  0.00  0.00     0.102 A 
HETATM   13  C   UNK N   1      35.194  14.717   7.601  0.00  0.00     0.059 A 
HETATM   14  H   UNK N   1      35.949  10.944   8.682  0.00  0.00     0.161 HD
ENDROOT
BRANCH   3  15
HETATM   15  C   UNK N   1      35.181  11.328  13.211  0.00  0.00     0.045 A 
HETATM   16  C   UNK N   1      36.362  11.133  14.000  0.00  0.00    -0.035 A 
HETATM   17  C   UNK N   1      36.256  10.647  15.310  0.00  0.00     0.009 A 
HETATM   18  C   UNK N   1      37.738  11.472  13.536  0.00  0.00     0.050 C 
HETATM   19  C   UNK N   1      35.017  10.341  15.865  0.00  0.00     0.001 A 
HETATM   20  C   UNK N   1      33.861  10.525  15.119  0.00  0.00     0.002 A 
HETATM   21  C   UNK N   1      33.945  11.011  13.817  0.00  0.00     0.030 A 
ENDBRANCH   3  15
BRANCH  12  22
HETATM   22  S   UNK N   1      34.325  17.278   8.431  0.00  0.00     0.258 S 
HETATM   23  O   UNK N   1      35.209  18.209   9.273  0.00  0.00    -0.201 OA
HETATM   24  O   UNK N   1      34.621  17.783   7.011  0.00  0.00    -0.201 OA
BRANCH  22  25
HETATM   25  N   UNK N   1      32.678  17.812   8.767  0.00  0.00    -0.324 N 
HETATM   26  H   UNK N   1      32.050  18.105   8.020  0.00  0.00     0.169 HD
HETATM   27  H   UNK N   1      32.346  17.827   9.732  0.00  0.00     0.169 HD
ENDBRANCH  22  25
ENDBRANCH  12  22
TORSDOF 3
ENDMDL
MODEL 5
REMARK VINA RESULT:      -6.8      3.999      5.142
REMARK  3 active torsions:
REMARK  status: ('A' for Active; 'I' for Inactive)
REMARK    1  A    between atoms: S_2  and  N_8 
REMARK    2  A    between atoms: S_2  and  C_17 
REMARK    3  A    between atoms: N_6  and  C_13 
ROOT
HETATM    1 Cl   UNK N   1      20.287  16.916   0.537  0.00  0.00    -0.083 Cl
HETATM    2  O   UNK N   1      21.919  16.178   6.988  0.00  0.00    -0.267 OA
HETATM    3  N   UNK N   1      21.922  13.966   6.477  0.00  0.00    -0.292 N 
HETATM    4  N   UNK N   1      21.454  13.403   4.110  0.00  0.00    -0.368 N 
HETATM    5  C   UNK N   1      21.691  12.922   5.460  0.00  0.00     0.188 C 
HETATM    6  C   UNK N   1      21.262  14.761   3.798  0.00  0.00     0.047 A 
HETATM    7  C   UNK N   1      21.372  15.713   4.796  0.00  0.00     0.060 A 
HETATM    8  C   UNK N   1      21.742  15.299   6.155  0.00  0.00     0.262 C 
HETATM    9  C   UNK N   1      20.505  12.055   5.864  0.00  0.00     0.056 C 
HETATM   10  C   UNK N   1      21.140  17.060   4.502  0.00  0.00     0.046 A 
HETATM   11  C   UNK N   1      20.941  15.146   2.491  0.00  0.00     0.055 A 
HETATM   12  C   UNK N   1      20.799  17.461   3.211  0.00  0.00     0.102 A 
HETATM   13  C   UNK N   1      20.709  16.493   2.187  0.00  0.00     0.059 A 
HETATM   14  H   UNK N   1      21.428  12.746   3.378  0.00  0.00     0.161 HD
ENDROOT
BRANCH   3  15
HETATM   15  C   UNK N   1      22.321  13.567   7.825  0.00  0.00     0.045 A 
HETATM   16  C   UNK N   1      23.681  13.300   8.194  0.00  0.00    -0.035 A 
HETATM   17  C   UNK N   1      23.990  12.931   9.509  0.00  0.00     0.009 A 
HETATM   18  C   UNK N   1      24.837  13.446   7.265  0.00  0.00     0.050 C 
HETATM   19  C   UNK N   1      22.994  12.809  10.475  0.00  0.00     0.001 A 
HETATM   20  C   UNK N   1      21.672  13.065  10.139  0.00  0.00     0.002 A 
HETATM   21  C   UNK N   1      21.345  13.438   8.838  0.00  0.00     0.030 A 
ENDBRANCH   3  15
BRANCH  12  22
HETATM   22  S   UNK N   1      20.430  19.200   2.960  0.00  0.00     0.258 S 
HETATM   23  O   UNK N   1      18.931  19.403   2.693  0.00  0.00    -0.201 OA
HETATM   24  O   UNK N   1      20.625  20.030   4.237  0.00  0.00    -0.201 OA
BRANCH  22  25
HETATM   25  N   UNK N   1      21.232  20.126   1.690  0.00  0.00    -0.324 N 
HETATM   26  H   UNK N   1      20.922  21.063   1.437  0.00  0.00     0.169 HD
HETATM   27  H   UNK N   1      22.025  19.713   1.197  0.00  0.00     0.169 HD
ENDBRANCH  22  25
ENDBRANCH  12  22
TORSDOF 3
ENDMDL
MODEL 6
REMARK VINA RESULT:      -6.7     11.317     13.752
REMARK  3 active torsions:
REMARK  status: ('A' for Active; 'I' for Inactive)
REMARK    1  A    between atoms: S_2  and  N_8 
REMARK    2  A    between atoms: S_2  and  C_17 
REMARK    3  A    between atoms: N_6  and  C_13 
ROOT
HETATM    1 Cl   UNK N   1      36.898  14.304   5.810  0.00  0.00    -0.083 Cl
HETATM    2  O   UNK N   1      34.549  14.717  12.067  0.00  0.00    -0.267 OA
HETATM    3  N   UNK N   1      36.308  13.365  12.550  0.00  0.00    -0.292 N 
HETATM    4  N   UNK N   1      37.788  12.794  10.648  0.00  0.00    -0.368 N 
HETATM    5  C   UNK N   1      37.461  12.594  12.048  0.00  0.00     0.188 C 
HETATM    6  C   UNK N   1      36.968  13.513   9.760  0.00  0.00     0.047 A 
HETATM    7  C   UNK N   1      35.826  14.134  10.236  0.00  0.00     0.060 A 
HETATM    8  C   UNK N   1      35.516  14.080  11.670  0.00  0.00     0.262 C 
HETATM    9  C   UNK N   1      37.228  11.105  12.269  0.00  0.00     0.056 C 
HETATM   10  C   UNK N   1      34.984  14.816   9.353  0.00  0.00     0.046 A 
HETATM   11  C   UNK N   1      37.292  13.584   8.400  0.00  0.00     0.055 A 
HETATM   12  C   UNK N   1      35.278  14.880   7.992  0.00  0.00     0.102 A 
HETATM   13  C   UNK N   1      36.455  14.267   7.508  0.00  0.00     0.059 A 
HETATM   14  H   UNK N   1      38.624  12.407  10.303  0.00  0.00     0.161 HD
ENDROOT
BRANCH   3  15
HETATM   15  C   UNK N   1      36.009  13.343  13.981  0.00  0.00     0.045 A 
HETATM   16  C   UNK N   1      35.002  12.501  14.559  0.00  0.00    -0.035 A 
HETATM   17  C   UNK N   1      34.776  12.527  15.941  0.00  0.00     0.009 A 
HETATM   18  C   UNK N   1      34.188  11.525  13.779  0.00  0.00     0.050 C 
HETATM   19  C   UNK N   1      35.511  13.366  16.774  0.00  0.00     0.001 A 
HETATM   20  C   UNK N   1      36.492  14.187  16.235  0.00  0.00     0.002 A 
HETATM   21  C   UNK N   1      36.734  14.173  14.864  0.00  0.00     0.030 A 
ENDBRANCH   3  15
BRANCH  12  22
HETATM   22  S   UNK N   1      34.084  15.698   6.929  0.00  0.00     0.258 S 
HETATM   23  O   UNK N   1      32.817  16.062   7.717  0.00  0.00    -0.201 OA
HETATM   24  O   UNK N   1      34.562  17.083   6.469  0.00  0.00    -0.201 OA
BRANCH  22  25
HETATM   25  N   UNK N   1      33.483  14.917   5.466  0.00  0.00    -0.324 N 
HETATM   26  H   UNK N   1      32.918  14.069   5.509  0.00  0.00     0.169 HD
HETATM   27  H   UNK N   1      33.707  15.322   4.557  0.00  0.00     0.169 HD
ENDBRANCH  22  25
ENDBRANCH  12  22
TORSDOF 3
ENDMDL
MODEL 7
REMARK VINA RESULT:      -6.5      6.231      9.368
REMARK  3 active torsions:
REMARK  status: ('A' for Active; 'I' for Inactive)
REMARK    1  A    between atoms: S_2  and  N_8 
REMARK    2  A    between atoms: S_2  and  C_17 
REMARK    3  A    between atoms: N_6  and  C_13 
ROOT
HETATM    1 Cl   UNK N   1      34.672  15.019   8.934  0.00  0.00    -0.083 Cl
HETATM    2  O   UNK N   1      30.009  17.567   4.861  0.00  0.00    -0.267 OA
HETATM    3  N   UNK N   1      28.969  18.117   6.803  0.00  0.00    -0.292 N 
HETATM    4  N   UNK N   1      30.185  17.538   8.881  0.00  0.00    -0.368 N 
HETATM    5  C   UNK N   1      28.973  18.061   8.277  0.00  0.00     0.188 C 
HETATM    6  C   UNK N   1      31.222  16.942   8.141  0.00  0.00     0.047 A 
HETATM    7  C   UNK N   1      31.139  16.906   6.759  0.00  0.00     0.060 A 
HETATM    8  C   UNK N   1      30.000  17.539   6.084  0.00  0.00     0.262 C 
HETATM    9  C   UNK N   1      27.802  17.220   8.769  0.00  0.00     0.056 C 
HETATM   10  C   UNK N   1      32.145  16.277   6.019  0.00  0.00     0.046 A 
HETATM   11  C   UNK N   1      32.318  16.370   8.795  0.00  0.00     0.055 A 
HETATM   12  C   UNK N   1      33.235  15.683   6.653  0.00  0.00     0.102 A 
HETATM   13  C   UNK N   1      33.331  15.740   8.060  0.00  0.00     0.059 A 
HETATM   14  H   UNK N   1      30.287  17.605   9.858  0.00  0.00     0.161 HD
ENDROOT
BRANCH   3  15
HETATM   15  C   UNK N   1      27.855  18.773   6.121  0.00  0.00     0.045 A 
HETATM   16  C   UNK N   1      26.811  18.052   5.452  0.00  0.00    -0.035 A 
HETATM   17  C   UNK N   1      25.769  18.748   4.827  0.00  0.00     0.009 A 
HETATM   18  C   UNK N   1      26.718  16.564   5.420  0.00  0.00     0.050 C 
HETATM   19  C   UNK N   1      25.727  20.139   4.834  0.00  0.00     0.001 A 
HETATM   20  C   UNK N   1      26.727  20.857   5.478  0.00  0.00     0.002 A 
HETATM   21  C   UNK N   1      27.769  20.183   6.109  0.00  0.00     0.030 A 
ENDBRANCH   3  15
BRANCH  12  22
HETATM   22  S   UNK N   1      34.421  14.821   5.617  0.00  0.00     0.258 S 
HETATM   23  O   UNK N   1      34.118  15.063   4.131  0.00  0.00    -0.201 OA
HETATM   24  O   UNK N   1      35.836  15.406   5.737  0.00  0.00    -0.201 OA
BRANCH  22  25
HETATM   25  N   UNK N   1      34.639  13.075   5.743  0.00  0.00    -0.324 N 
HETATM   26  H   UNK N   1      34.247  12.438   5.051  0.00  0.00     0.169 HD
HETATM   27  H   UNK N   1      35.169  12.695   6.528  0.00  0.00     0.169 HD
ENDBRANCH  22  25
ENDBRANCH  12  22
TORSDOF 3
ENDMDL
MODEL 8
REMARK VINA RESULT:      -6.4      8.324     11.661
REMARK  3 active torsions:
REMARK  status: ('A' for Active; 'I' for Inactive)
REMARK    1  A    between atoms: S_2  and  N_8 
REMARK    2  A    between atoms: S_2  and  C_17 
REMARK    3  A    between atoms: N_6  and  C_13 
ROOT
HETATM    1 Cl   UNK N   1      36.084  14.172  12.151  0.00  0.00    -0.083 Cl
HETATM    2  O   UNK N   1      31.854  14.091   6.962  0.00  0.00    -0.267 OA
HETATM    3  N   UNK N   1      31.819  16.340   7.276  0.00  0.00    -0.292 N 
HETATM    4  N   UNK N   1      33.284  17.203   9.076  0.00  0.00    -0.368 N 
HETATM    5  C   UNK N   1      32.273  17.493   8.076  0.00  0.00     0.188 C 
HETATM    6  C   UNK N   1      33.683  15.897   9.414  0.00  0.00     0.047 A 
HETATM    7  C   UNK N   1      33.154  14.821   8.722  0.00  0.00     0.060 A 
HETATM    8  C   UNK N   1      32.228  15.061   7.608  0.00  0.00     0.262 C 
HETATM    9  C   UNK N   1      31.085  18.136   8.781  0.00  0.00     0.056 C 
HETATM   10  C   UNK N   1      33.513  13.519   9.079  0.00  0.00     0.046 A 
HETATM   11  C   UNK N   1      34.592  15.684  10.457  0.00  0.00     0.055 A 
HETATM   12  C   UNK N   1      34.401  13.285  10.129  0.00  0.00     0.102 A 
HETATM   13  C   UNK N   1      34.958  14.381  10.821  0.00  0.00     0.059 A 
HETATM   14  H   UNK N   1      33.712  17.957   9.541  0.00  0.00     0.161 HD
ENDROOT
BRANCH   3  15
HETATM   15  C   UNK N   1      30.921  16.570   6.146  0.00  0.00     0.045 A 
HETATM   16  C   UNK N   1      31.374  17.021   4.862  0.00  0.00    -0.035 A 
HETATM   17  C   UNK N   1      30.456  17.211   3.822  0.00  0.00     0.009 A 
HETATM   18  C   UNK N   1      32.807  17.259   4.524  0.00  0.00     0.050 C 
HETATM   19  C   UNK N   1      29.097  16.975   4.010  0.00  0.00     0.001 A 
HETATM   20  C   UNK N   1      28.637  16.535   5.244  0.00  0.00     0.002 A 
HETATM   21  C   UNK N   1      29.535  16.336   6.290  0.00  0.00     0.030 A 
ENDBRANCH   3  15
BRANCH  12  22
HETATM   22  S   UNK N   1      34.723  11.574  10.569  0.00  0.00     0.258 S 
HETATM   23  O   UNK N   1      34.188  10.626   9.485  0.00  0.00    -0.201 OA
HETATM   24  O   UNK N   1      36.222  11.237  10.552  0.00  0.00    -0.201 OA
BRANCH  22  25
HETATM   25  N   UNK N   1      34.123  10.895  12.082  0.00  0.00    -0.324 N 
HETATM   26  H   UNK N   1      34.156  11.424  12.953  0.00  0.00     0.169 HD
HETATM   27  H   UNK N   1      33.734   9.952  12.086  0.00  0.00     0.169 HD
ENDBRANCH  22  25
ENDBRANCH  12  22
TORSDOF 3
ENDMDL
MODEL 9
REMARK VINA RESULT:      -6.3      3.026      3.926
REMARK  3 active torsions:
REMARK  status: ('A' for Active; 'I' for Inactive)
REMARK    1  A    between atoms: S_2  and  N_8 
REMARK    2  A    between atoms: S_2  and  C_17 
REMARK    3  A    between atoms: N_6  and  C_13 
ROOT
HETATM    1 Cl   UNK N   1      21.154  17.969   3.305  0.00  0.00    -0.083 Cl
HETATM    2  O   UNK N   1      27.084  15.733   5.466  0.00  0.00    -0.267 OA
HETATM    3  N   UNK N   1      27.485  17.932   5.869  0.00  0.00    -0.292 N 
HETATM    4  N   UNK N   1      25.619  19.480   5.368  0.00  0.00    -0.368 N 
HETATM    5  C   UNK N   1      27.001  19.322   5.781  0.00  0.00     0.188 C 
HETATM    6  C   UNK N   1      24.829  18.418   4.893  0.00  0.00     0.047 A 
HETATM    7  C   UNK N   1      25.348  17.135   4.879  0.00  0.00     0.060 A 
HETATM    8  C   UNK N   1      26.695  16.892   5.411  0.00  0.00     0.262 C 
HETATM    9  C   UNK N   1      27.874  20.117   4.818  0.00  0.00     0.056 C 
HETATM   10  C   UNK N   1      24.585  16.081   4.369  0.00  0.00     0.046 A 
HETATM   11  C   UNK N   1      23.534  18.658   4.419  0.00  0.00     0.055 A 
HETATM   12  C   UNK N   1      23.302  16.302   3.873  0.00  0.00     0.102 A 
HETATM   13  C   UNK N   1      22.762  17.606   3.908  0.00  0.00     0.059 A 
HETATM   14  H   UNK N   1      25.214  20.376   5.424  0.00  0.00     0.161 HD
ENDROOT
BRANCH   3  15
HETATM   15  C   UNK N   1      28.812  17.675   6.425  0.00  0.00     0.045 A 
HETATM   16  C   UNK N   1      29.096  17.721   7.830  0.00  0.00    -0.035 A 
HETATM   17  C   UNK N   1      30.391  17.455   8.292  0.00  0.00     0.009 A 
HETATM   18  C   UNK N   1      28.068  17.984   8.877  0.00  0.00     0.050 C 
HETATM   19  C   UNK N   1      31.422  17.150   7.407  0.00  0.00     0.001 A 
HETATM   20  C   UNK N   1      31.168  17.099   6.043  0.00  0.00     0.002 A 
HETATM   21  C   UNK N   1      29.886  17.356   5.564  0.00  0.00     0.030 A 
ENDBRANCH   3  15
BRANCH  12  22
HETATM   22  S   UNK N   1      22.442  14.898   3.155  0.00  0.00     0.258 S 
HETATM   23  O   UNK N   1      23.251  13.608   3.356  0.00  0.00    -0.201 OA
HETATM   24  O   UNK N   1      21.145  14.561   3.904  0.00  0.00    -0.201 OA
BRANCH  22  25
HETATM   25  N   UNK N   1      22.000  14.879   1.448  0.00  0.00    -0.324 N 
HETATM   26  H   UNK N   1      22.597  14.440   0.747  0.00  0.00     0.169 HD
HETATM   27  H   UNK N   1      21.127  15.318   1.154  0.00  0.00     0.169 HD
ENDBRANCH  22  25
ENDBRANCH  12  22
TORSDOF 3
ENDMDL
