MODEL 1
REMARK VINA RESULT:      -7.0      0.000      0.000
REMARK  4 active torsions:
REMARK  status: ('A' for Active; 'I' for Inactive)
REMARK    1  A    between atoms: O_2  and  C_7 
REMARK    2  A    between atoms: O_2  and  C_16 
REMARK    3  A    between atoms: N_3  and  C_6 
REMARK    4  A    between atoms: N_3  and  C_16 
ROOT
HETATM    1  O   UNK N   1      25.317  24.132  -7.798  0.00  0.00    -0.284 OA
ENDROOT
BRANCH   1   2
HETATM    2  C   UNK N   1      25.828  25.332  -7.389  0.00  0.00     0.079 A 
HETATM    3  C   UNK N   1      25.366  25.891  -6.192  0.00  0.00     0.049 A 
HETATM    4  C   UNK N   1      25.909  27.090  -5.719  0.00  0.00    -0.023 A 
HETATM    5  C   UNK N   1      26.920  27.748  -6.457  0.00  0.00    -0.026 A 
HETATM    6  C   UNK N   1      25.474  27.631  -4.507  0.00  0.00     0.012 A 
HETATM    7  C   UNK N   1      27.355  27.213  -7.666  0.00  0.00     0.015 A 
HETATM    8  C   UNK N   1      27.485  28.928  -5.972  0.00  0.00     0.012 A 
HETATM    9  C   UNK N   1      26.810  26.017  -8.129  0.00  0.00     0.038 A 
HETATM   10  C   UNK N   1      27.050  29.460  -4.756  0.00  0.00     0.001 A 
HETATM   11  C   UNK N   1      26.045  28.815  -4.026  0.00  0.00     0.001 A 
ENDBRANCH   1   2
BRANCH   1  12
HETATM   12  C   UNK N   1      25.814  22.866  -7.594  0.00  0.00     0.222 C 
HETATM   13  S   UNK N   1      24.911  21.751  -7.358  0.00  0.00    -0.032 SA
BRANCH  12  14
HETATM   14  N   UNK N   1      27.230  22.643  -7.771  0.00  0.00    -0.322 N 
HETATM   15  C   UNK N   1      27.716  22.550  -9.132  0.00  0.00     0.159 C 
BRANCH  14  16
HETATM   16  C   UNK N   1      28.186  22.517  -6.695  0.00  0.00     0.037 A 
HETATM   17  C   UNK N   1      29.149  21.492  -6.718  0.00  0.00     0.036 A 
HETATM   18  C   UNK N   1      30.089  21.370  -5.687  0.00  0.00    -0.060 A 
HETATM   19  C   UNK N   1      30.091  22.280  -4.630  0.00  0.00     0.007 A 
HETATM   20  C   UNK N   1      31.083  20.267  -5.715  0.00  0.00     0.048 C 
HETATM   21  C   UNK N   1      29.158  23.312  -4.598  0.00  0.00     0.003 A 
HETATM   22  C   UNK N   1      28.218  23.430  -5.621  0.00  0.00     0.030 A 
ENDBRANCH  14  16
ENDBRANCH  12  14
ENDBRANCH   1  12
TORSDOF 4
ENDMDL
MODEL 2
REMARK VINA RESULT:      -6.8      1.092      1.945
REMARK  4 active torsions:
REMARK  status: ('A' for Active; 'I' for Inactive)
REMARK    1  A    between atoms: O_2  and  C_7 
REMARK    2  A    between atoms: O_2  and  C_16 
REMARK    3  A    between atoms: N_3  and  C_6 
REMARK    4  A    between atoms: N_3  and  C_16 
ROOT
HETATM    1  O   UNK N   1      25.986  24.917  -7.431  0.00  0.00    -0.284 OA
ENDROOT
BRANCH   1   2
HETATM    2  C   UNK N   1      26.112  26.022  -6.636  0.00  0.00     0.079 A 
HETATM    3  C   UNK N   1      27.100  26.965  -6.941  0.00  0.00     0.049 A 
HETATM    4  C   UNK N   1      27.218  28.132  -6.180  0.00  0.00    -0.023 A 
HETATM    5  C   UNK N   1      26.345  28.358  -5.092  0.00  0.00    -0.026 A 
HETATM    6  C   UNK N   1      28.182  29.090  -6.505  0.00  0.00     0.012 A 
HETATM    7  C   UNK N   1      25.385  27.405  -4.763  0.00  0.00     0.015 A 
HETATM    8  C   UNK N   1      26.441  29.536  -4.350  0.00  0.00     0.012 A 
HETATM    9  C   UNK N   1      25.273  26.245  -5.528  0.00  0.00     0.038 A 
HETATM   10  C   UNK N   1      27.402  30.493  -4.685  0.00  0.00     0.001 A 
HETATM   11  C   UNK N   1      28.272  30.270  -5.758  0.00  0.00     0.001 A 
ENDBRANCH   1   2
BRANCH   1  12
HETATM   12  C   UNK N   1      26.456  23.642  -7.220  0.00  0.00     0.222 C 
HETATM   13  S   UNK N   1      25.569  22.499  -7.362  0.00  0.00    -0.032 SA
BRANCH  12  14
HETATM   14  N   UNK N   1      27.873  23.454  -7.008  0.00  0.00    -0.322 N 
HETATM   15  C   UNK N   1      28.729  23.535  -8.174  0.00  0.00     0.159 C 
BRANCH  14  16
HETATM   16  C   UNK N   1      28.488  23.205  -5.725  0.00  0.00     0.037 A 
HETATM   17  C   UNK N   1      29.448  22.185  -5.585  0.00  0.00     0.036 A 
HETATM   18  C   UNK N   1      30.061  21.944  -4.350  0.00  0.00    -0.060 A 
HETATM   19  C   UNK N   1      29.737  22.728  -3.242  0.00  0.00     0.007 A 
HETATM   20  C   UNK N   1      31.054  20.848  -4.214  0.00  0.00     0.048 C 
HETATM   21  C   UNK N   1      28.803  23.754  -3.364  0.00  0.00     0.003 A 
HETATM   22  C   UNK N   1      28.189  23.989  -4.593  0.00  0.00     0.030 A 
ENDBRANCH  14  16
ENDBRANCH  12  14
ENDBRANCH   1  12
TORSDOF 4
ENDMDL
MODEL 3
REMARK VINA RESULT:      -6.7     28.001     30.737
REMARK  4 active torsions:
REMARK  status: ('A' for Active; 'I' for Inactive)
REMARK    1  A    between atoms: O_2  and  C_7 
REMARK    2  A    between atoms: O_2  and  C_16 
REMARK    3  A    between atoms: N_3  and  C_6 
REMARK    4  A    between atoms: N_3  and  C_16 
ROOT
HETATM    1  O   UNK N   1      35.852   9.912  20.834  0.00  0.00    -0.284 OA
ENDROOT
BRANCH   1   2
HETATM    2  C   UNK N   1      35.615  10.679  19.729  0.00  0.00     0.079 A 
HETATM    3  C   UNK N   1      35.397  10.046  18.500  0.00  0.00     0.049 A 
HETATM    4  C   UNK N   1      35.097  10.801  17.361  0.00  0.00    -0.023 A 
HETATM    5  C   UNK N   1      35.025  12.211  17.448  0.00  0.00    -0.026 A 
HETATM    6  C   UNK N   1      34.845  10.168  16.142  0.00  0.00     0.012 A 
HETATM    7  C   UNK N   1      35.277  12.846  18.660  0.00  0.00     0.015 A 
HETATM    8  C   UNK N   1      34.696  12.965  16.320  0.00  0.00     0.012 A 
HETATM    9  C   UNK N   1      35.574  12.085  19.790  0.00  0.00     0.038 A 
HETATM   10  C   UNK N   1      34.437  12.324  15.106  0.00  0.00     0.001 A 
HETATM   11  C   UNK N   1      34.515  10.930  15.016  0.00  0.00     0.001 A 
ENDBRANCH   1   2
BRANCH   1  12
HETATM   12  C   UNK N   1      34.982   9.540  21.832  0.00  0.00     0.222 C 
HETATM   13  S   UNK N   1      35.481   9.210  23.157  0.00  0.00    -0.032 SA
BRANCH  12  14
HETATM   14  N   UNK N   1      33.562   9.634  21.581  0.00  0.00    -0.322 N 
HETATM   15  C   UNK N   1      32.881  10.807  22.086  0.00  0.00     0.159 C 
BRANCH  14  16
HETATM   16  C   UNK N   1      32.787   8.652  20.858  0.00  0.00     0.037 A 
HETATM   17  C   UNK N   1      33.417   7.525  20.296  0.00  0.00     0.036 A 
HETATM   18  C   UNK N   1      32.674   6.560  19.606  0.00  0.00    -0.060 A 
HETATM   19  C   UNK N   1      31.291   6.697  19.483  0.00  0.00     0.007 A 
HETATM   20  C   UNK N   1      33.357   5.390  18.999  0.00  0.00     0.048 C 
HETATM   21  C   UNK N   1      30.646   7.795  20.047  0.00  0.00     0.003 A 
HETATM   22  C   UNK N   1      31.387   8.759  20.728  0.00  0.00     0.030 A 
ENDBRANCH  14  16
ENDBRANCH  12  14
ENDBRANCH   1  12
TORSDOF 4
ENDMDL
MODEL 4
REMARK VINA RESULT:      -6.6     22.214     25.299
REMARK  4 active torsions:
REMARK  status: ('A' for Active; 'I' for Inactive)
REMARK    1  A    between atoms: O_2  and  C_7 
REMARK    2  A    between atoms: O_2  and  C_16 
REMARK    3  A    between atoms: N_3  and  C_6 
REMARK    4  A    between atoms: N_3  and  C_16 
ROOT
HETATM    1  O   UNK N   1      34.366  12.286  13.524  0.00  0.00    -0.284 OA
ENDROOT
BRANCH   1   2
HETATM    2  C   UNK N   1      34.630  11.880  14.802  0.00  0.00     0.079 A 
HETATM    3  C   UNK N   1      34.797  12.849  15.798  0.00  0.00     0.049 A 
HETATM    4  C   UNK N   1      35.014  12.465  17.125  0.00  0.00    -0.023 A 
HETATM    5  C   UNK N   1      35.077  11.094  17.463  0.00  0.00    -0.026 A 
HETATM    6  C   UNK N   1      35.145  13.431  18.126  0.00  0.00     0.012 A 
HETATM    7  C   UNK N   1      34.949  10.128  16.469  0.00  0.00     0.015 A 
HETATM    8  C   UNK N   1      35.263  10.708  18.791  0.00  0.00     0.012 A 
HETATM    9  C   UNK N   1      34.731  10.520  15.149  0.00  0.00     0.038 A 
HETATM   10  C   UNK N   1      35.386  11.679  19.787  0.00  0.00     0.001 A 
HETATM   11  C   UNK N   1      35.330  13.038  19.455  0.00  0.00     0.001 A 
ENDBRANCH   1   2
BRANCH   1  12
HETATM   12  C   UNK N   1      35.012  11.946  12.358  0.00  0.00     0.222 C 
HETATM   13  S   UNK N   1      34.583  10.789  11.591  0.00  0.00    -0.032 SA
BRANCH  12  14
HETATM   14  N   UNK N   1      36.015  12.846  11.837  0.00  0.00    -0.322 N 
HETATM   15  C   UNK N   1      37.400  12.468  12.025  0.00  0.00     0.159 C 
BRANCH  14  16
HETATM   16  C   UNK N   1      35.733  14.080  11.139  0.00  0.00     0.037 A 
HETATM   17  C   UNK N   1      35.489  14.070   9.753  0.00  0.00     0.036 A 
HETATM   18  C   UNK N   1      35.200  15.257   9.069  0.00  0.00    -0.060 A 
HETATM   19  C   UNK N   1      35.132  16.466   9.762  0.00  0.00     0.007 A 
HETATM   20  C   UNK N   1      34.969  15.233   7.603  0.00  0.00     0.048 C 
HETATM   21  C   UNK N   1      35.353  16.494  11.137  0.00  0.00     0.003 A 
HETATM   22  C   UNK N   1      35.647  15.313  11.816  0.00  0.00     0.030 A 
ENDBRANCH  14  16
ENDBRANCH  12  14
ENDBRANCH   1  12
TORSDOF 4
ENDMDL
MODEL 5
REMARK VINA RESULT:      -6.6      1.899      2.912
REMARK  4 active torsions:
REMARK  status: ('A' for Active; 'I' for Inactive)
REMARK    1  A    between atoms: O_2  and  C_7 
REMARK    2  A    between atoms: O_2  and  C_16 
REMARK    3  A    between atoms: N_3  and  C_6 
REMARK    4  A    between atoms: N_3  and  C_16 
ROOT
HETATM    1  O   UNK N   1      27.270  22.423  -6.720  0.00  0.00    -0.284 OA
ENDROOT
BRANCH   1   2
HETATM    2  C   UNK N   1      26.744  23.645  -6.405  0.00  0.00     0.079 A 
HETATM    3  C   UNK N   1      26.871  24.118  -5.093  0.00  0.00     0.049 A 
HETATM    4  C   UNK N   1      26.393  25.387  -4.753  0.00  0.00    -0.023 A 
HETATM    5  C   UNK N   1      25.766  26.192  -5.732  0.00  0.00    -0.026 A 
HETATM    6  C   UNK N   1      26.551  25.874  -3.453  0.00  0.00     0.012 A 
HETATM    7  C   UNK N   1      25.604  25.709  -7.027  0.00  0.00     0.015 A 
HETATM    8  C   UNK N   1      25.314  27.471  -5.402  0.00  0.00     0.012 A 
HETATM    9  C   UNK N   1      26.086  24.444  -7.359  0.00  0.00     0.038 A 
HETATM   10  C   UNK N   1      25.483  27.955  -4.103  0.00  0.00     0.001 A 
HETATM   11  C   UNK N   1      26.096  27.157  -3.129  0.00  0.00     0.001 A 
ENDBRANCH   1   2
BRANCH   1  12
HETATM   12  C   UNK N   1      28.495  22.125  -7.268  0.00  0.00     0.222 C 
HETATM   13  S   UNK N   1      28.817  22.544  -8.622  0.00  0.00    -0.032 SA
BRANCH  12  14
HETATM   14  N   UNK N   1      29.504  21.528  -6.422  0.00  0.00    -0.322 N 
HETATM   15  C   UNK N   1      30.056  20.260  -6.851  0.00  0.00     0.159 C 
BRANCH  14  16
HETATM   16  C   UNK N   1      30.001  22.110  -5.197  0.00  0.00     0.037 A 
HETATM   17  C   UNK N   1      30.213  23.499  -5.106  0.00  0.00     0.036 A 
HETATM   18  C   UNK N   1      30.680  24.075  -3.919  0.00  0.00    -0.060 A 
HETATM   19  C   UNK N   1      30.925  23.277  -2.801  0.00  0.00     0.007 A 
HETATM   20  C   UNK N   1      30.921  25.539  -3.848  0.00  0.00     0.048 C 
HETATM   21  C   UNK N   1      30.704  21.903  -2.865  0.00  0.00     0.003 A 
HETATM   22  C   UNK N   1      30.245  21.329  -4.049  0.00  0.00     0.030 A 
ENDBRANCH  14  16
ENDBRANCH  12  14
ENDBRANCH   1  12
TORSDOF 4
ENDMDL
MODEL 6
REMARK VINA RESULT:      -6.6     12.072     14.942
REMARK  4 active torsions:
REMARK  status: ('A' for Active; 'I' for Inactive)
REMARK    1  A    between atoms: O_2  and  C_7 
REMARK    2  A    between atoms: O_2  and  C_16 
REMARK    3  A    between atoms: N_3  and  C_6 
REMARK    4  A    between atoms: N_3  and  C_16 
ROOT
HETATM    1  O   UNK N   1      28.674  15.028   5.551  0.00  0.00    -0.284 OA
ENDROOT
BRANCH   1   2
HETATM    2  C   UNK N   1      29.894  15.636   5.647  0.00  0.00     0.079 A 
HETATM    3  C   UNK N   1      30.210  16.337   6.817  0.00  0.00     0.049 A 
HETATM    4  C   UNK N   1      31.471  16.923   6.968  0.00  0.00    -0.023 A 
HETATM    5  C   UNK N   1      32.427  16.820   5.932  0.00  0.00    -0.026 A 
HETATM    6  C   UNK N   1      31.799  17.592   8.150  0.00  0.00     0.012 A 
HETATM    7  C   UNK N   1      32.103  16.156   4.753  0.00  0.00     0.015 A 
HETATM    8  C   UNK N   1      33.696  17.378   6.093  0.00  0.00     0.012 A 
HETATM    9  C   UNK N   1      30.845  15.573   4.611  0.00  0.00     0.038 A 
HETATM   10  C   UNK N   1      34.020  18.039   7.280  0.00  0.00     0.001 A 
HETATM   11  C   UNK N   1      33.074  18.148   8.305  0.00  0.00     0.001 A 
ENDBRANCH   1   2
BRANCH   1  12
HETATM   12  C   UNK N   1      27.438  15.596   5.348  0.00  0.00     0.222 C 
HETATM   13  S   UNK N   1      26.424  15.539   6.388  0.00  0.00    -0.032 SA
BRANCH  12  14
HETATM   14  N   UNK N   1      27.225  16.378   4.152  0.00  0.00    -0.322 N 
HETATM   15  C   UNK N   1      27.121  15.654   2.902  0.00  0.00     0.159 C 
BRANCH  14  16
HETATM   16  C   UNK N   1      27.098  17.817   4.121  0.00  0.00     0.037 A 
HETATM   17  C   UNK N   1      25.945  18.416   3.580  0.00  0.00     0.036 A 
HETATM   18  C   UNK N   1      25.805  19.809   3.558  0.00  0.00    -0.060 A 
HETATM   19  C   UNK N   1      26.806  20.622   4.091  0.00  0.00     0.007 A 
HETATM   20  C   UNK N   1      24.593  20.425   2.962  0.00  0.00     0.048 C 
HETATM   21  C   UNK N   1      27.946  20.048   4.647  0.00  0.00     0.003 A 
HETATM   22  C   UNK N   1      28.088  18.662   4.663  0.00  0.00     0.030 A 
ENDBRANCH  14  16
ENDBRANCH  12  14
ENDBRANCH   1  12
TORSDOF 4
ENDMDL
MODEL 7
REMARK VINA RESULT:      -6.6     22.416     25.171
REMARK  4 active torsions:
REMARK  status: ('A' for Active; 'I' for Inactive)
REMARK    1  A    between atoms: O_2  and  C_7 
REMARK    2  A    between atoms: O_2  and  C_16 
REMARK    3  A    between atoms: N_3  and  C_6 
REMARK    4  A    between atoms: N_3  and  C_16 
ROOT
HETATM    1  O   UNK N   1      35.475  11.639  13.055  0.00  0.00    -0.284 OA
ENDROOT
BRANCH   1   2
HETATM    2  C   UNK N   1      35.497  12.879  12.479  0.00  0.00     0.079 A 
HETATM    3  C   UNK N   1      34.911  13.050  11.220  0.00  0.00     0.049 A 
HETATM    4  C   UNK N   1      34.869  14.317  10.630  0.00  0.00    -0.023 A 
HETATM    5  C   UNK N   1      35.430  15.429  11.300  0.00  0.00    -0.026 A 
HETATM    6  C   UNK N   1      34.253  14.496   9.388  0.00  0.00     0.012 A 
HETATM    7  C   UNK N   1      36.046  15.255  12.536  0.00  0.00     0.015 A 
HETATM    8  C   UNK N   1      35.362  16.699  10.727  0.00  0.00     0.012 A 
HETATM    9  C   UNK N   1      36.082  13.989  13.118  0.00  0.00     0.038 A 
HETATM   10  C   UNK N   1      34.738  16.872   9.489  0.00  0.00     0.001 A 
HETATM   11  C   UNK N   1      34.188  15.773   8.819  0.00  0.00     0.001 A 
ENDBRANCH   1   2
BRANCH   1  12
HETATM   12  C   UNK N   1      35.019  11.271  14.299  0.00  0.00     0.222 C 
HETATM   13  S   UNK N   1      33.679  10.731  14.460  0.00  0.00    -0.032 SA
BRANCH  12  14
HETATM   14  N   UNK N   1      35.946  11.288  15.407  0.00  0.00    -0.322 N 
HETATM   15  C   UNK N   1      37.251  10.703  15.183  0.00  0.00     0.159 C 
BRANCH  14  16
HETATM   16  C   UNK N   1      35.665  11.853  16.707  0.00  0.00     0.037 A 
HETATM   17  C   UNK N   1      35.669  11.035  17.852  0.00  0.00     0.036 A 
HETATM   18  C   UNK N   1      35.412  11.574  19.118  0.00  0.00    -0.060 A 
HETATM   19  C   UNK N   1      35.166  12.940  19.261  0.00  0.00     0.007 A 
HETATM   20  C   UNK N   1      35.396  10.692  20.313  0.00  0.00     0.048 C 
HETATM   21  C   UNK N   1      35.175  13.770  18.143  0.00  0.00     0.003 A 
HETATM   22  C   UNK N   1      35.425  13.231  16.882  0.00  0.00     0.030 A 
ENDBRANCH  14  16
ENDBRANCH  12  14
ENDBRANCH   1  12
TORSDOF 4
ENDMDL
MODEL 8
REMARK VINA RESULT:      -6.6      1.693      6.210
REMARK  4 active torsions:
REMARK  status: ('A' for Active; 'I' for Inactive)
REMARK    1  A    between atoms: O_2  and  C_7 
REMARK    2  A    between atoms: O_2  and  C_16 
REMARK    3  A    between atoms: N_3  and  C_6 
REMARK    4  A    between atoms: N_3  and  C_16 
ROOT
HETATM    1  O   UNK N   1      27.073  23.684  -6.872  0.00  0.00    -0.284 OA
ENDROOT
BRANCH   1   2
HETATM    2  C   UNK N   1      27.916  23.447  -5.822  0.00  0.00     0.079 A 
HETATM    3  C   UNK N   1      28.870  22.429  -5.937  0.00  0.00     0.049 A 
HETATM    4  C   UNK N   1      29.783  22.198  -4.903  0.00  0.00    -0.023 A 
HETATM    5  C   UNK N   1      29.736  22.987  -3.730  0.00  0.00    -0.026 A 
HETATM    6  C   UNK N   1      30.757  21.206  -5.032  0.00  0.00     0.012 A 
HETATM    7  C   UNK N   1      28.765  23.975  -3.597  0.00  0.00     0.015 A 
HETATM    8  C   UNK N   1      30.665  22.779  -2.709  0.00  0.00     0.012 A 
HETATM    9  C   UNK N   1      27.860  24.199  -4.634  0.00  0.00     0.038 A 
HETATM   10  C   UNK N   1      31.641  21.790  -2.848  0.00  0.00     0.001 A 
HETATM   11  C   UNK N   1      31.686  21.003  -4.005  0.00  0.00     0.001 A 
ENDBRANCH   1   2
BRANCH   1  12
HETATM   12  C   UNK N   1      27.240  24.535  -7.938  0.00  0.00     0.222 C 
HETATM   13  S   UNK N   1      28.050  24.136  -9.077  0.00  0.00    -0.032 SA
BRANCH  12  14
HETATM   14  N   UNK N   1      26.473  25.759  -7.972  0.00  0.00    -0.322 N 
HETATM   15  C   UNK N   1      25.740  26.044  -9.188  0.00  0.00     0.159 C 
BRANCH  14  16
HETATM   16  C   UNK N   1      26.380  26.703  -6.882  0.00  0.00     0.037 A 
HETATM   17  C   UNK N   1      27.290  27.773  -6.791  0.00  0.00     0.036 A 
HETATM   18  C   UNK N   1      27.200  28.702  -5.747  0.00  0.00    -0.060 A 
HETATM   19  C   UNK N   1      26.191  28.586  -4.791  0.00  0.00     0.007 A 
HETATM   20  C   UNK N   1      28.183  29.811  -5.653  0.00  0.00     0.048 C 
HETATM   21  C   UNK N   1      25.270  27.545  -4.873  0.00  0.00     0.003 A 
HETATM   22  C   UNK N   1      25.363  26.617  -5.909  0.00  0.00     0.030 A 
ENDBRANCH  14  16
ENDBRANCH  12  14
ENDBRANCH   1  12
TORSDOF 4
ENDMDL
MODEL 9
REMARK VINA RESULT:      -6.6     12.417     15.222
REMARK  4 active torsions:
REMARK  status: ('A' for Active; 'I' for Inactive)
REMARK    1  A    between atoms: O_2  and  C_7 
REMARK    2  A    between atoms: O_2  and  C_16 
REMARK    3  A    between atoms: N_3  and  C_6 
REMARK    4  A    between atoms: N_3  and  C_16 
ROOT
HETATM    1  O   UNK N   1      27.654  17.409   7.047  0.00  0.00    -0.284 OA
ENDROOT
BRANCH   1   2
HETATM    2  C   UNK N   1      28.983  17.503   7.353  0.00  0.00     0.079 A 
HETATM    3  C   UNK N   1      29.927  17.170   6.375  0.00  0.00     0.049 A 
HETATM    4  C   UNK N   1      31.294  17.309   6.639  0.00  0.00    -0.023 A 
HETATM    5  C   UNK N   1      31.726  17.775   7.902  0.00  0.00    -0.026 A 
HETATM    6  C   UNK N   1      32.236  17.010   5.652  0.00  0.00     0.012 A 
HETATM    7  C   UNK N   1      30.790  18.071   8.889  0.00  0.00     0.015 A 
HETATM    8  C   UNK N   1      33.088  17.943   8.158  0.00  0.00     0.012 A 
HETATM    9  C   UNK N   1      29.431  17.932   8.617  0.00  0.00     0.038 A 
HETATM   10  C   UNK N   1      34.024  17.650   7.163  0.00  0.00     0.001 A 
HETATM   11  C   UNK N   1      33.599  17.181   5.914  0.00  0.00     0.001 A 
ENDBRANCH   1   2
BRANCH   1  12
HETATM   12  C   UNK N   1      27.018  16.510   6.224  0.00  0.00     0.222 C 
HETATM   13  S   UNK N   1      26.338  15.354   6.785  0.00  0.00    -0.032 SA
BRANCH  12  14
HETATM   14  N   UNK N   1      26.909  16.818   4.817  0.00  0.00    -0.322 N 
HETATM   15  C   UNK N   1      27.332  15.795   3.884  0.00  0.00     0.159 C 
BRANCH  14  16
HETATM   16  C   UNK N   1      26.401  18.061   4.283  0.00  0.00     0.037 A 
HETATM   17  C   UNK N   1      25.016  18.246   4.111  0.00  0.00     0.036 A 
HETATM   18  C   UNK N   1      24.512  19.451   3.609  0.00  0.00    -0.060 A 
HETATM   19  C   UNK N   1      25.381  20.495   3.288  0.00  0.00     0.007 A 
HETATM   20  C   UNK N   1      23.050  19.620   3.411  0.00  0.00     0.048 C 
HETATM   21  C   UNK N   1      26.753  20.339   3.468  0.00  0.00     0.003 A 
HETATM   22  C   UNK N   1      27.255  19.136   3.962  0.00  0.00     0.030 A 
ENDBRANCH  14  16
ENDBRANCH  12  14
ENDBRANCH   1  12
TORSDOF 4
ENDMDL
