MODEL 1
REMARK VINA RESULT:      -5.9      0.000      0.000
REMARK  10 active torsions:
REMARK  status: ('A' for Active; 'I' for Inactive)
REMARK    1  A    between atoms: O_1  and  C_19 
REMARK    2  A    between atoms: O_1  and  C_20 
REMARK    3  A    between atoms: N_3  and  C_7 
REMARK    4  A    between atoms: N_3  and  C_9 
REMARK    5  A    between atoms: N_3  and  C_10 
REMARK    6  A    between atoms: N_4  and  C_8 
REMARK       I    between atoms: N_4  and  C_15 
REMARK    7  A    between atoms: C_7  and  C_8 
REMARK    8  A    between atoms: C_11  and  C_15 
REMARK    9  A    between atoms: C_18  and  C_20 
REMARK   10  A    between atoms: C_18  and  C_21 
ROOT
HETATM    1  N   UNK N   1      28.379  17.692   4.308  0.00  0.00    -0.336 N 
ATOM      2  HN  UNK N   1      28.353  17.742   3.290  1.00  0.00     0.168 HD
HETATM    3  C   UNK N   1      28.460  17.546   7.100  0.00  0.00     0.048 A 
HETATM    4  C   UNK N   1      27.999  18.724   6.443  0.00  0.00     0.006 A 
HETATM    5  C   UNK N   1      27.969  18.762   5.028  0.00  0.00     0.045 A 
HETATM    6  C   UNK N   1      28.864  16.464   6.299  0.00  0.00     0.074 A 
HETATM    7  C   UNK N   1      28.824  16.552   4.901  0.00  0.00     0.143 A 
HETATM    8  C   UNK N   1      27.578  19.863   7.150  0.00  0.00     0.015 A 
HETATM    9  C   UNK N   1      27.524  19.907   4.362  0.00  0.00     0.030 A 
HETATM   10  C   UNK N   1      27.136  21.005   6.478  0.00  0.00     0.001 A 
HETATM   11  C   UNK N   1      27.107  21.026   5.085  0.00  0.00     0.002 A 
ENDROOT
BRANCH   3  12
HETATM   12  C   UNK N   1      28.511  17.451   8.610  0.00  0.00     0.252 C 
HETATM   13  O   UNK N   1      27.514  17.096   9.215  0.00  0.00    -0.268 OA
HETATM   14  N   UNK N   1      29.614  17.731   9.354  0.00  0.00    -0.355 N 
HETATM   15  H   UNK N   1      29.530  17.582  10.323  0.00  0.00     0.162 HD
BRANCH  14  16
HETATM   16  C   UNK N   1      30.889  18.220   8.899  0.00  0.00     0.153 C 
BRANCH  16  17
HETATM   17  C   UNK N   1      31.833  17.033   8.675  0.00  0.00     0.292 C 
BRANCH  17  18
HETATM   18  N   UNK N   1      32.537  17.102   7.392  0.00  0.00     0.089 N 
BRANCH  18  19
HETATM   19  C   UNK N   1      33.132  15.785   7.191  0.00  0.00     0.268 C 
HETATM   20  C   UNK N   1      32.068  14.737   6.900  0.00  0.00     0.037 C 
ENDBRANCH  18  19
BRANCH  18  21
HETATM   21  C   UNK N   1      33.638  18.054   7.522  0.00  0.00     0.268 C 
HETATM   22  C   UNK N   1      34.567  17.618   8.641  0.00  0.00     0.037 C 
ENDBRANCH  18  21
ENDBRANCH  17  18
ENDBRANCH  16  17
ENDBRANCH  14  16
ENDBRANCH   3  12
BRANCH   7  23
HETATM   23  O   UNK N   1      29.242  15.511   4.148  0.00  0.00    -0.336 OA
BRANCH  23  24
HETATM   24  C   UNK N   1      29.991  15.707   3.007  0.00  0.00     0.177 C 
BRANCH  24  25
HETATM   25  C   UNK N   1      31.464  15.507   3.290  0.00  0.00     0.026 C 
BRANCH  25  26
HETATM   26  C   UNK N   1      32.223  16.760   2.901  0.00  0.00    -0.002 C 
HETATM   27  C   UNK N   1      32.169  17.758   4.040  0.00  0.00     0.005 C 
ENDBRANCH  25  26
ENDBRANCH  24  25
ENDBRANCH  23  24
ENDBRANCH   7  23
TORSDOF 10
ENDMDL
MODEL 2
REMARK VINA RESULT:      -5.8     10.942     13.313
REMARK  10 active torsions:
REMARK  status: ('A' for Active; 'I' for Inactive)
REMARK    1  A    between atoms: O_1  and  C_19 
REMARK    2  A    between atoms: O_1  and  C_20 
REMARK    3  A    between atoms: N_3  and  C_7 
REMARK    4  A    between atoms: N_3  and  C_9 
REMARK    5  A    between atoms: N_3  and  C_10 
REMARK    6  A    between atoms: N_4  and  C_8 
REMARK       I    between atoms: N_4  and  C_15 
REMARK    7  A    between atoms: C_7  and  C_8 
REMARK    8  A    between atoms: C_11  and  C_15 
REMARK    9  A    between atoms: C_18  and  C_20 
REMARK   10  A    between atoms: C_18  and  C_21 
ROOT
HETATM    1  N   UNK N   1      25.249  25.104  -6.475  0.00  0.00    -0.336 N 
ATOM      2  HN  UNK N   1      24.660  25.390  -7.256  1.00  0.00     0.168 HD
HETATM    3  C   UNK N   1      26.871  24.311  -4.338  0.00  0.00     0.048 A 
HETATM    4  C   UNK N   1      26.338  25.633  -4.400  0.00  0.00     0.006 A 
HETATM    5  C   UNK N   1      25.519  25.998  -5.495  0.00  0.00     0.045 A 
HETATM    6  C   UNK N   1      26.549  23.425  -5.380  0.00  0.00     0.074 A 
HETATM    7  C   UNK N   1      25.740  23.835  -6.447  0.00  0.00     0.143 A 
HETATM    8  C   UNK N   1      26.604  26.597  -3.414  0.00  0.00     0.015 A 
HETATM    9  C   UNK N   1      24.987  27.288  -5.579  0.00  0.00     0.030 A 
HETATM   10  C   UNK N   1      26.071  27.885  -3.505  0.00  0.00     0.001 A 
HETATM   11  C   UNK N   1      25.262  28.230  -4.586  0.00  0.00     0.002 A 
ENDROOT
BRANCH   3  12
HETATM   12  C   UNK N   1      27.752  23.867  -3.189  0.00  0.00     0.252 C 
HETATM   13  O   UNK N   1      27.232  23.555  -2.132  0.00  0.00    -0.268 OA
HETATM   14  N   UNK N   1      29.107  23.782  -3.257  0.00  0.00    -0.355 N 
HETATM   15  H   UNK N   1      29.557  23.431  -2.456  0.00  0.00     0.162 HD
BRANCH  14  16
HETATM   16  C   UNK N   1      29.963  24.141  -4.357  0.00  0.00     0.153 C 
BRANCH  16  17
HETATM   17  C   UNK N   1      30.698  22.890  -4.853  0.00  0.00     0.292 C 
BRANCH  17  18
HETATM   18  N   UNK N   1      31.056  21.973  -3.769  0.00  0.00     0.089 N 
BRANCH  18  19
HETATM   19  C   UNK N   1      32.451  22.256  -3.449  0.00  0.00     0.268 C 
HETATM   20  C   UNK N   1      33.194  20.990  -3.048  0.00  0.00     0.037 C 
ENDBRANCH  18  19
BRANCH  18  21
HETATM   21  C   UNK N   1      31.003  20.607  -4.285  0.00  0.00     0.268 C 
HETATM   22  C   UNK N   1      30.599  20.624  -5.749  0.00  0.00     0.037 C 
ENDBRANCH  18  21
ENDBRANCH  17  18
ENDBRANCH  16  17
ENDBRANCH  14  16
ENDBRANCH   3  12
BRANCH   7  23
HETATM   23  O   UNK N   1      25.463  22.977  -7.453  0.00  0.00    -0.336 OA
BRANCH  23  24
HETATM   24  C   UNK N   1      24.901  21.742  -7.207  0.00  0.00     0.177 C 
BRANCH  24  25
HETATM   25  C   UNK N   1      25.488  20.691  -8.124  0.00  0.00     0.026 C 
BRANCH  25  26
HETATM   26  C   UNK N   1      26.713  21.258  -8.815  0.00  0.00    -0.002 C 
HETATM   27  C   UNK N   1      27.955  20.569  -8.289  0.00  0.00     0.005 C 
ENDBRANCH  25  26
ENDBRANCH  24  25
ENDBRANCH  23  24
ENDBRANCH   7  23
TORSDOF 10
ENDMDL
MODEL 3
REMARK VINA RESULT:      -5.8     12.016     14.223
REMARK  10 active torsions:
REMARK  status: ('A' for Active; 'I' for Inactive)
REMARK    1  A    between atoms: O_1  and  C_19 
REMARK    2  A    between atoms: O_1  and  C_20 
REMARK    3  A    between atoms: N_3  and  C_7 
REMARK    4  A    between atoms: N_3  and  C_9 
REMARK    5  A    between atoms: N_3  and  C_10 
REMARK    6  A    between atoms: N_4  and  C_8 
REMARK       I    between atoms: N_4  and  C_15 
REMARK    7  A    between atoms: C_7  and  C_8 
REMARK    8  A    between atoms: C_11  and  C_15 
REMARK    9  A    between atoms: C_18  and  C_20 
REMARK   10  A    between atoms: C_18  and  C_21 
ROOT
HETATM    1  N   UNK N   1      25.397  25.038  -6.640  0.00  0.00    -0.336 N 
ATOM      2  HN  UNK N   1      24.839  25.293  -7.454  1.00  0.00     0.168 HD
HETATM    3  C   UNK N   1      26.936  24.331  -4.414  0.00  0.00     0.048 A 
HETATM    4  C   UNK N   1      26.298  25.604  -4.487  0.00  0.00     0.006 A 
HETATM    5  C   UNK N   1      25.524  25.926  -5.628  0.00  0.00     0.045 A 
HETATM    6  C   UNK N   1      26.760  23.447  -5.492  0.00  0.00     0.074 A 
HETATM    7  C   UNK N   1      25.991  23.815  -6.604  0.00  0.00     0.143 A 
HETATM    8  C   UNK N   1      26.414  26.563  -3.466  0.00  0.00     0.015 A 
HETATM    9  C   UNK N   1      24.891  27.170  -5.723  0.00  0.00     0.030 A 
HETATM   10  C   UNK N   1      25.781  27.803  -3.569  0.00  0.00     0.001 A 
HETATM   11  C   UNK N   1      25.019  28.106  -4.696  0.00  0.00     0.002 A 
ENDROOT
BRANCH   3  12
HETATM   12  C   UNK N   1      27.773  23.934  -3.217  0.00  0.00     0.252 C 
HETATM   13  O   UNK N   1      27.218  23.486  -2.228  0.00  0.00    -0.268 OA
HETATM   14  N   UNK N   1      29.128  24.035  -3.167  0.00  0.00    -0.355 N 
HETATM   15  H   UNK N   1      29.556  23.696  -2.349  0.00  0.00     0.162 HD
BRANCH  14  16
HETATM   16  C   UNK N   1      30.013  24.577  -4.165  0.00  0.00     0.153 C 
BRANCH  16  17
HETATM   17  C   UNK N   1      30.514  25.950  -3.703  0.00  0.00     0.292 C 
BRANCH  17  18
HETATM   18  N   UNK N   1      29.669  27.050  -4.173  0.00  0.00     0.089 N 
BRANCH  18  19
HETATM   19  C   UNK N   1      29.673  26.963  -5.630  0.00  0.00     0.268 C 
HETATM   20  C   UNK N   1      28.642  27.901  -6.242  0.00  0.00     0.037 C 
ENDBRANCH  18  19
BRANCH  18  21
HETATM   21  C   UNK N   1      30.316  28.311  -3.818  0.00  0.00     0.268 C 
HETATM   22  C   UNK N   1      29.495  29.034  -2.765  0.00  0.00     0.037 C 
ENDBRANCH  18  21
ENDBRANCH  17  18
ENDBRANCH  16  17
ENDBRANCH  14  16
ENDBRANCH   3  12
BRANCH   7  23
HETATM   23  O   UNK N   1      25.856  22.961  -7.643  0.00  0.00    -0.336 OA
BRANCH  23  24
HETATM   24  C   UNK N   1      25.051  21.846  -7.553  0.00  0.00     0.177 C 
BRANCH  24  25
HETATM   25  C   UNK N   1      25.755  20.627  -8.110  0.00  0.00     0.026 C 
BRANCH  25  26
HETATM   26  C   UNK N   1      27.045  21.058  -8.779  0.00  0.00    -0.002 C 
HETATM   27  C   UNK N   1      28.217  20.378  -8.103  0.00  0.00     0.005 C 
ENDBRANCH  25  26
ENDBRANCH  24  25
ENDBRANCH  23  24
ENDBRANCH   7  23
TORSDOF 10
ENDMDL
MODEL 4
REMARK VINA RESULT:      -5.7      3.370      6.113
REMARK  10 active torsions:
REMARK  status: ('A' for Active; 'I' for Inactive)
REMARK    1  A    between atoms: O_1  and  C_19 
REMARK    2  A    between atoms: O_1  and  C_20 
REMARK    3  A    between atoms: N_3  and  C_7 
REMARK    4  A    between atoms: N_3  and  C_9 
REMARK    5  A    between atoms: N_3  and  C_10 
REMARK    6  A    between atoms: N_4  and  C_8 
REMARK       I    between atoms: N_4  and  C_15 
REMARK    7  A    between atoms: C_7  and  C_8 
REMARK    8  A    between atoms: C_11  and  C_15 
REMARK    9  A    between atoms: C_18  and  C_20 
REMARK   10  A    between atoms: C_18  and  C_21 
ROOT
HETATM    1  N   UNK N   1      30.866  16.656   6.665  0.00  0.00    -0.336 N 
ATOM      2  HN  UNK N   1      30.017  16.330   6.204  1.00  0.00     0.168 HD
HETATM    3  C   UNK N   1      33.188  17.552   7.940  0.00  0.00     0.048 A 
HETATM    4  C   UNK N   1      33.263  16.692   6.804  0.00  0.00     0.006 A 
HETATM    5  C   UNK N   1      32.067  16.261   6.183  0.00  0.00     0.045 A 
HETATM    6  C   UNK N   1      31.913  17.935   8.389  0.00  0.00     0.074 A 
HETATM    7  C   UNK N   1      30.757  17.476   7.745  0.00  0.00     0.143 A 
HETATM    8  C   UNK N   1      34.487  16.246   6.279  0.00  0.00     0.015 A 
HETATM    9  C   UNK N   1      32.115  15.416   5.070  0.00  0.00     0.030 A 
HETATM   10  C   UNK N   1      34.529  15.400   5.169  0.00  0.00     0.001 A 
HETATM   11  C   UNK N   1      33.343  14.987   4.563  0.00  0.00     0.002 A 
ENDROOT
BRANCH   3  12
HETATM   12  C   UNK N   1      34.436  18.044   8.643  0.00  0.00     0.252 C 
HETATM   13  O   UNK N   1      34.929  19.105   8.300  0.00  0.00    -0.268 OA
HETATM   14  N   UNK N   1      35.054  17.378   9.654  0.00  0.00    -0.355 N 
HETATM   15  H   UNK N   1      35.828  17.831  10.059  0.00  0.00     0.162 HD
BRANCH  14  16
HETATM   16  C   UNK N   1      34.715  16.092  10.205  0.00  0.00     0.153 C 
BRANCH  16  17
HETATM   17  C   UNK N   1      35.938  15.172  10.127  0.00  0.00     0.292 C 
BRANCH  17  18
HETATM   18  N   UNK N   1      36.300  14.596  11.425  0.00  0.00     0.089 N 
BRANCH  18  19
HETATM   19  C   UNK N   1      37.155  13.451  11.130  0.00  0.00     0.268 C 
HETATM   20  C   UNK N   1      38.092  13.747   9.968  0.00  0.00     0.037 C 
ENDBRANCH  18  19
BRANCH  18  21
HETATM   21  C   UNK N   1      35.088  14.075  12.051  0.00  0.00     0.268 C 
HETATM   22  C   UNK N   1      35.344  12.678  12.589  0.00  0.00     0.037 C 
ENDBRANCH  18  21
ENDBRANCH  17  18
ENDBRANCH  16  17
ENDBRANCH  14  16
ENDBRANCH   3  12
BRANCH   7  23
HETATM   23  O   UNK N   1      29.539  17.834   8.208  0.00  0.00    -0.336 OA
BRANCH  23  24
HETATM   24  C   UNK N   1      28.485  18.059   7.349  0.00  0.00     0.177 C 
BRANCH  24  25
HETATM   25  C   UNK N   1      27.996  19.488   7.460  0.00  0.00     0.026 C 
BRANCH  25  26
HETATM   26  C   UNK N   1      27.621  19.996   6.083  0.00  0.00    -0.002 C 
HETATM   27  C   UNK N   1      27.164  21.436   6.182  0.00  0.00     0.005 C 
ENDBRANCH  25  26
ENDBRANCH  24  25
ENDBRANCH  23  24
ENDBRANCH   7  23
TORSDOF 10
ENDMDL
MODEL 5
REMARK VINA RESULT:      -5.7      5.973     10.213
REMARK  10 active torsions:
REMARK  status: ('A' for Active; 'I' for Inactive)
REMARK    1  A    between atoms: O_1  and  C_19 
REMARK    2  A    between atoms: O_1  and  C_20 
REMARK    3  A    between atoms: N_3  and  C_7 
REMARK    4  A    between atoms: N_3  and  C_9 
REMARK    5  A    between atoms: N_3  and  C_10 
REMARK    6  A    between atoms: N_4  and  C_8 
REMARK       I    between atoms: N_4  and  C_15 
REMARK    7  A    between atoms: C_7  and  C_8 
REMARK    8  A    between atoms: C_11  and  C_15 
REMARK    9  A    between atoms: C_18  and  C_20 
REMARK   10  A    between atoms: C_18  and  C_21 
ROOT
HETATM    1  N   UNK N   1      37.149  12.956  12.741  0.00  0.00    -0.336 N 
ATOM      2  HN  UNK N   1      37.577  12.182  13.247  1.00  0.00     0.168 HD
HETATM    3  C   UNK N   1      35.975  15.089  11.363  0.00  0.00     0.048 A 
HETATM    4  C   UNK N   1      36.807  14.149  10.684  0.00  0.00     0.006 A 
HETATM    5  C   UNK N   1      37.382  13.081  11.413  0.00  0.00     0.045 A 
HETATM    6  C   UNK N   1      35.763  14.902  12.739  0.00  0.00     0.074 A 
HETATM    7  C   UNK N   1      36.361  13.833  13.419  0.00  0.00     0.143 A 
HETATM    8  C   UNK N   1      37.087  14.248   9.311  0.00  0.00     0.015 A 
HETATM    9  C   UNK N   1      38.203  12.149  10.771  0.00  0.00     0.030 A 
HETATM   10  C   UNK N   1      37.910  13.316   8.676  0.00  0.00     0.001 A 
HETATM   11  C   UNK N   1      38.465  12.266   9.405  0.00  0.00     0.002 A 
ENDROOT
BRANCH   3  12
HETATM   12  C   UNK N   1      35.334  16.249  10.632  0.00  0.00     0.252 C 
HETATM   13  O   UNK N   1      35.903  17.327  10.616  0.00  0.00    -0.268 OA
HETATM   14  N   UNK N   1      34.147  16.172   9.972  0.00  0.00    -0.355 N 
HETATM   15  H   UNK N   1      33.865  16.985   9.496  0.00  0.00     0.162 HD
BRANCH  14  16
HETATM   16  C   UNK N   1      33.254  15.047   9.885  0.00  0.00     0.153 C 
BRANCH  16  17
HETATM   17  C   UNK N   1      32.563  15.056   8.517  0.00  0.00     0.292 C 
BRANCH  17  18
HETATM   18  N   UNK N   1      32.364  16.408   7.990  0.00  0.00     0.089 N 
BRANCH  18  19
HETATM   19  C   UNK N   1      30.978  16.754   8.289  0.00  0.00     0.268 C 
HETATM   20  C   UNK N   1      30.860  18.191   8.775  0.00  0.00     0.037 C 
ENDBRANCH  18  19
BRANCH  18  21
HETATM   21  C   UNK N   1      32.488  16.357   6.535  0.00  0.00     0.268 C 
HETATM   22  C   UNK N   1      33.457  17.427   6.063  0.00  0.00     0.037 C 
ENDBRANCH  18  21
ENDBRANCH  17  18
ENDBRANCH  16  17
ENDBRANCH  14  16
ENDBRANCH   3  12
BRANCH   7  23
HETATM   23  O   UNK N   1      36.166  13.686  14.748  0.00  0.00    -0.336 OA
BRANCH  23  24
HETATM   24  C   UNK N   1      35.074  13.005  15.241  0.00  0.00     0.177 C 
BRANCH  24  25
HETATM   25  C   UNK N   1      35.506  11.753  15.974  0.00  0.00     0.026 C 
BRANCH  25  26
HETATM   26  C   UNK N   1      34.958  10.537  15.253  0.00  0.00    -0.002 C 
HETATM   27  C   UNK N   1      33.642  10.892  14.593  0.00  0.00     0.005 C 
ENDBRANCH  25  26
ENDBRANCH  24  25
ENDBRANCH  23  24
ENDBRANCH   7  23
TORSDOF 10
ENDMDL
MODEL 6
REMARK VINA RESULT:      -5.6      2.806      5.562
REMARK  10 active torsions:
REMARK  status: ('A' for Active; 'I' for Inactive)
REMARK    1  A    between atoms: O_1  and  C_19 
REMARK    2  A    between atoms: O_1  and  C_20 
REMARK    3  A    between atoms: N_3  and  C_7 
REMARK    4  A    between atoms: N_3  and  C_9 
REMARK    5  A    between atoms: N_3  and  C_10 
REMARK    6  A    between atoms: N_4  and  C_8 
REMARK       I    between atoms: N_4  and  C_15 
REMARK    7  A    between atoms: C_7  and  C_8 
REMARK    8  A    between atoms: C_11  and  C_15 
REMARK    9  A    between atoms: C_18  and  C_20 
REMARK   10  A    between atoms: C_18  and  C_21 
ROOT
HETATM    1  N   UNK N   1      30.500  17.028   6.820  0.00  0.00    -0.336 N 
ATOM      2  HN  UNK N   1      29.596  16.781   6.418  1.00  0.00     0.168 HD
HETATM    3  C   UNK N   1      32.975  17.706   7.933  0.00  0.00     0.048 A 
HETATM    4  C   UNK N   1      32.896  17.062   6.663  0.00  0.00     0.006 A 
HETATM    5  C   UNK N   1      31.627  16.736   6.129  0.00  0.00     0.045 A 
HETATM    6  C   UNK N   1      31.771  17.992   8.599  0.00  0.00     0.074 A 
HETATM    7  C   UNK N   1      30.538  17.642   8.033  0.00  0.00     0.143 A 
HETATM    8  C   UNK N   1      34.040  16.727   5.918  0.00  0.00     0.015 A 
HETATM    9  C   UNK N   1      31.525  16.102   4.887  0.00  0.00     0.030 A 
HETATM   10  C   UNK N   1      33.931  16.092   4.679  0.00  0.00     0.001 A 
HETATM   11  C   UNK N   1      32.674  15.781   4.163  0.00  0.00     0.002 A 
ENDROOT
BRANCH   3  12
HETATM   12  C   UNK N   1      34.306  18.078   8.550  0.00  0.00     0.252 C 
HETATM   13  O   UNK N   1      34.835  19.129   8.229  0.00  0.00    -0.268 OA
HETATM   14  N   UNK N   1      34.965  17.313   9.461  0.00  0.00    -0.355 N 
HETATM   15  H   UNK N   1      35.798  17.692   9.821  0.00  0.00     0.162 HD
BRANCH  14  16
HETATM   16  C   UNK N   1      34.593  16.016   9.963  0.00  0.00     0.153 C 
BRANCH  16  17
HETATM   17  C   UNK N   1      35.424  14.943   9.252  0.00  0.00     0.292 C 
BRANCH  17  18
HETATM   18  N   UNK N   1      34.686  13.694   9.048  0.00  0.00     0.089 N 
BRANCH  18  19
HETATM   19  C   UNK N   1      35.556  12.630   9.538  0.00  0.00     0.268 C 
HETATM   20  C   UNK N   1      34.774  11.608  10.352  0.00  0.00     0.037 C 
ENDBRANCH  18  19
BRANCH  18  21
HETATM   21  C   UNK N   1      34.522  13.486   7.612  0.00  0.00     0.268 C 
HETATM   22  C   UNK N   1      33.047  13.354   7.274  0.00  0.00     0.037 C 
ENDBRANCH  18  21
ENDBRANCH  17  18
ENDBRANCH  16  17
ENDBRANCH  14  16
ENDBRANCH   3  12
BRANCH   7  23
HETATM   23  O   UNK N   1      29.392  17.901   8.701  0.00  0.00    -0.336 OA
BRANCH  23  24
HETATM   24  C   UNK N   1      28.181  17.973   8.045  0.00  0.00     0.177 C 
BRANCH  24  25
HETATM   25  C   UNK N   1      27.906  19.386   7.576  0.00  0.00     0.026 C 
BRANCH  25  26
HETATM   26  C   UNK N   1      27.724  19.387   6.071  0.00  0.00    -0.002 C 
HETATM   27  C   UNK N   1      27.559  20.811   5.583  0.00  0.00     0.005 C 
ENDBRANCH  25  26
ENDBRANCH  24  25
ENDBRANCH  23  24
ENDBRANCH   7  23
TORSDOF 10
ENDMDL
MODEL 7
REMARK VINA RESULT:      -5.6      3.361      4.967
REMARK  10 active torsions:
REMARK  status: ('A' for Active; 'I' for Inactive)
REMARK    1  A    between atoms: O_1  and  C_19 
REMARK    2  A    between atoms: O_1  and  C_20 
REMARK    3  A    between atoms: N_3  and  C_7 
REMARK    4  A    between atoms: N_3  and  C_9 
REMARK    5  A    between atoms: N_3  and  C_10 
REMARK    6  A    between atoms: N_4  and  C_8 
REMARK       I    between atoms: N_4  and  C_15 
REMARK    7  A    between atoms: C_7  and  C_8 
REMARK    8  A    between atoms: C_11  and  C_15 
REMARK    9  A    between atoms: C_18  and  C_20 
REMARK   10  A    between atoms: C_18  and  C_21 
ROOT
HETATM    1  N   UNK N   1      31.602  16.858   5.357  0.00  0.00    -0.336 N 
ATOM      2  HN  UNK N   1      30.940  16.567   4.639  1.00  0.00     0.168 HD
HETATM    3  C   UNK N   1      33.428  17.661   7.318  0.00  0.00     0.048 A 
HETATM    4  C   UNK N   1      32.025  17.687   7.571  0.00  0.00     0.006 A 
HETATM    5  C   UNK N   1      31.131  17.271   6.557  0.00  0.00     0.045 A 
HETATM    6  C   UNK N   1      33.859  17.215   6.057  0.00  0.00     0.074 A 
HETATM    7  C   UNK N   1      32.934  16.820   5.081  0.00  0.00     0.143 A 
HETATM    8  C   UNK N   1      31.491  18.121   8.796  0.00  0.00     0.015 A 
HETATM    9  C   UNK N   1      29.751  17.290   6.781  0.00  0.00     0.030 A 
HETATM   10  C   UNK N   1      30.111  18.140   9.013  0.00  0.00     0.001 A 
HETATM   11  C   UNK N   1      29.242  17.723   8.006  0.00  0.00     0.002 A 
ENDROOT
BRANCH   3  12
HETATM   12  C   UNK N   1      34.429  18.094   8.368  0.00  0.00     0.252 C 
HETATM   13  O   UNK N   1      34.894  19.220   8.314  0.00  0.00    -0.268 OA
HETATM   14  N   UNK N   1      34.850  17.304   9.391  0.00  0.00    -0.355 N 
HETATM   15  H   UNK N   1      35.466  17.722  10.034  0.00  0.00     0.162 HD
BRANCH  14  16
HETATM   16  C   UNK N   1      34.506  15.930   9.649  0.00  0.00     0.153 C 
BRANCH  16  17
HETATM   17  C   UNK N   1      35.785  15.086   9.679  0.00  0.00     0.292 C 
BRANCH  17  18
HETATM   18  N   UNK N   1      35.740  14.022  10.685  0.00  0.00     0.089 N 
BRANCH  18  19
HETATM   19  C   UNK N   1      35.231  14.645  11.903  0.00  0.00     0.268 C 
HETATM   20  C   UNK N   1      36.117  14.323  13.098  0.00  0.00     0.037 C 
ENDBRANCH  18  19
BRANCH  18  21
HETATM   21  C   UNK N   1      37.108  13.593  10.963  0.00  0.00     0.268 C 
HETATM   22  C   UNK N   1      38.030  14.054   9.846  0.00  0.00     0.037 C 
ENDBRANCH  18  21
ENDBRANCH  17  18
ENDBRANCH  16  17
ENDBRANCH  14  16
ENDBRANCH   3  12
BRANCH   7  23
HETATM   23  O   UNK N   1      33.366  16.419   3.865  0.00  0.00    -0.336 OA
BRANCH  23  24
HETATM   24  C   UNK N   1      33.836  15.140   3.658  0.00  0.00     0.177 C 
BRANCH  24  25
HETATM   25  C   UNK N   1      32.726  14.230   3.178  0.00  0.00     0.026 C 
BRANCH  25  26
HETATM   26  C   UNK N   1      32.441  13.186   4.240  0.00  0.00    -0.002 C 
HETATM   27  C   UNK N   1      31.040  13.383   4.779  0.00  0.00     0.005 C 
ENDBRANCH  25  26
ENDBRANCH  24  25
ENDBRANCH  23  24
ENDBRANCH   7  23
TORSDOF 10
ENDMDL
MODEL 8
REMARK VINA RESULT:      -5.5      3.250      4.782
REMARK  10 active torsions:
REMARK  status: ('A' for Active; 'I' for Inactive)
REMARK    1  A    between atoms: O_1  and  C_19 
REMARK    2  A    between atoms: O_1  and  C_20 
REMARK    3  A    between atoms: N_3  and  C_7 
REMARK    4  A    between atoms: N_3  and  C_9 
REMARK    5  A    between atoms: N_3  and  C_10 
REMARK    6  A    between atoms: N_4  and  C_8 
REMARK       I    between atoms: N_4  and  C_15 
REMARK    7  A    between atoms: C_7  and  C_8 
REMARK    8  A    between atoms: C_11  and  C_15 
REMARK    9  A    between atoms: C_18  and  C_20 
REMARK   10  A    between atoms: C_18  and  C_21 
ROOT
HETATM    1  N   UNK N   1      31.976  16.445   5.429  0.00  0.00    -0.336 N 
ATOM      2  HN  UNK N   1      31.370  16.057   4.706  1.00  0.00     0.168 HD
HETATM    3  C   UNK N   1      33.646  17.510   7.404  0.00  0.00     0.048 A 
HETATM    4  C   UNK N   1      32.228  17.536   7.554  0.00  0.00     0.006 A 
HETATM    5  C   UNK N   1      31.414  16.985   6.535  0.00  0.00     0.045 A 
HETATM    6  C   UNK N   1      34.171  16.927   6.238  0.00  0.00     0.074 A 
HETATM    7  C   UNK N   1      33.324  16.401   5.254  0.00  0.00     0.143 A 
HETATM    8  C   UNK N   1      31.601  18.100   8.677  0.00  0.00     0.015 A 
HETATM    9  C   UNK N   1      30.021  17.002   6.658  0.00  0.00     0.030 A 
HETATM   10  C   UNK N   1      30.210  18.116   8.793  0.00  0.00     0.001 A 
HETATM   11  C   UNK N   1      29.420  17.566   7.785  0.00  0.00     0.002 A 
ENDROOT
BRANCH   3  12
HETATM   12  C   UNK N   1      34.563  18.083   8.463  0.00  0.00     0.252 C 
HETATM   13  O   UNK N   1      35.014  19.206   8.312  0.00  0.00    -0.268 OA
HETATM   14  N   UNK N   1      34.923  17.425   9.598  0.00  0.00    -0.355 N 
HETATM   15  H   UNK N   1      35.485  17.929  10.228  0.00  0.00     0.162 HD
BRANCH  14  16
HETATM   16  C   UNK N   1      34.581  16.083   9.989  0.00  0.00     0.153 C 
BRANCH  16  17
HETATM   17  C   UNK N   1      35.660  15.119   9.480  0.00  0.00     0.292 C 
BRANCH  17  18
HETATM   18  N   UNK N   1      35.129  14.102   8.570  0.00  0.00     0.089 N 
BRANCH  18  19
HETATM   19  C   UNK N   1      33.693  14.047   8.825  0.00  0.00     0.268 C 
HETATM   20  C   UNK N   1      32.926  13.641   7.575  0.00  0.00     0.037 C 
ENDBRANCH  18  19
BRANCH  18  21
HETATM   21  C   UNK N   1      35.683  12.806   8.954  0.00  0.00     0.268 C 
HETATM   22  C   UNK N   1      35.171  12.414  10.330  0.00  0.00     0.037 C 
ENDBRANCH  18  21
ENDBRANCH  17  18
ENDBRANCH  16  17
ENDBRANCH  14  16
ENDBRANCH   3  12
BRANCH   7  23
HETATM   23  O   UNK N   1      33.848  15.869   4.128  0.00  0.00    -0.336 OA
BRANCH  23  24
HETATM   24  C   UNK N   1      34.268  14.557   4.084  0.00  0.00     0.177 C 
BRANCH  24  25
HETATM   25  C   UNK N   1      33.414  13.750   3.129  0.00  0.00     0.026 C 
BRANCH  25  26
HETATM   26  C   UNK N   1      34.313  13.003   2.165  0.00  0.00    -0.002 C 
HETATM   27  C   UNK N   1      35.146  13.994   1.378  0.00  0.00     0.005 C 
ENDBRANCH  25  26
ENDBRANCH  24  25
ENDBRANCH  23  24
ENDBRANCH   7  23
TORSDOF 10
ENDMDL
MODEL 9
REMARK VINA RESULT:      -5.3     12.237     15.314
REMARK  10 active torsions:
REMARK  status: ('A' for Active; 'I' for Inactive)
REMARK    1  A    between atoms: O_1  and  C_19 
REMARK    2  A    between atoms: O_1  and  C_20 
REMARK    3  A    between atoms: N_3  and  C_7 
REMARK    4  A    between atoms: N_3  and  C_9 
REMARK    5  A    between atoms: N_3  and  C_10 
REMARK    6  A    between atoms: N_4  and  C_8 
REMARK       I    between atoms: N_4  and  C_15 
REMARK    7  A    between atoms: C_7  and  C_8 
REMARK    8  A    between atoms: C_11  and  C_15 
REMARK    9  A    between atoms: C_18  and  C_20 
REMARK   10  A    between atoms: C_18  and  C_21 
ROOT
HETATM    1  N   UNK N   1      28.171  25.787  -3.720  0.00  0.00    -0.336 N 
ATOM      2  HN  UNK N   1      28.636  26.389  -3.042  1.00  0.00     0.168 HD
HETATM    3  C   UNK N   1      26.901  24.124  -5.576  0.00  0.00     0.048 A 
HETATM    4  C   UNK N   1      26.386  25.421  -5.284  0.00  0.00     0.006 A 
HETATM    5  C   UNK N   1      27.057  26.237  -4.342  0.00  0.00     0.045 A 
HETATM    6  C   UNK N   1      28.066  23.715  -4.905  0.00  0.00     0.074 A 
HETATM    7  C   UNK N   1      28.690  24.555  -3.974  0.00  0.00     0.143 A 
HETATM    8  C   UNK N   1      25.224  25.923  -5.895  0.00  0.00     0.015 A 
HETATM    9  C   UNK N   1      26.569  27.511  -4.038  0.00  0.00     0.030 A 
HETATM   10  C   UNK N   1      24.741  27.196  -5.585  0.00  0.00     0.001 A 
HETATM   11  C   UNK N   1      25.414  27.991  -4.659  0.00  0.00     0.002 A 
ENDROOT
BRANCH   3  12
HETATM   12  C   UNK N   1      26.224  23.211  -6.576  0.00  0.00     0.252 C 
HETATM   13  O   UNK N   1      25.242  22.577  -6.230  0.00  0.00    -0.268 OA
HETATM   14  N   UNK N   1      26.637  23.050  -7.862  0.00  0.00    -0.355 N 
HETATM   15  H   UNK N   1      26.081  22.465  -8.423  0.00  0.00     0.162 HD
BRANCH  14  16
HETATM   16  C   UNK N   1      27.789  23.630  -8.501  0.00  0.00     0.153 C 
BRANCH  16  17
HETATM   17  C   UNK N   1      27.324  24.638  -9.559  0.00  0.00     0.292 C 
BRANCH  17  18
HETATM   18  N   UNK N   1      26.767  25.860  -8.974  0.00  0.00     0.089 N 
BRANCH  18  19
HETATM   19  C   UNK N   1      25.606  26.200  -9.789  0.00  0.00     0.268 C 
HETATM   20  C   UNK N   1      25.258  25.073 -10.752  0.00  0.00     0.037 C 
ENDBRANCH  18  19
BRANCH  18  21
HETATM   21  C   UNK N   1      27.740  26.936  -9.144  0.00  0.00     0.268 C 
HETATM   22  C   UNK N   1      27.961  27.645  -7.819  0.00  0.00     0.037 C 
ENDBRANCH  18  21
ENDBRANCH  17  18
ENDBRANCH  16  17
ENDBRANCH  14  16
ENDBRANCH   3  12
BRANCH   7  23
HETATM   23  O   UNK N   1      29.795  24.134  -3.320  0.00  0.00    -0.336 OA
BRANCH  23  24
HETATM   24  C   UNK N   1      29.789  22.972  -2.578  0.00  0.00     0.177 C 
BRANCH  24  25
HETATM   25  C   UNK N   1      31.101  22.232  -2.727  0.00  0.00     0.026 C 
BRANCH  25  26
HETATM   26  C   UNK N   1      31.439  22.105  -4.199  0.00  0.00    -0.002 C 
HETATM   27  C   UNK N   1      30.622  20.986  -4.810  0.00  0.00     0.005 C 
ENDBRANCH  25  26
ENDBRANCH  24  25
ENDBRANCH  23  24
ENDBRANCH   7  23
TORSDOF 10
ENDMDL
