MODEL 1
REMARK VINA RESULT:      -8.4      0.000      0.000
REMARK  14 active torsions:
REMARK  status: ('A' for Active; 'I' for Inactive)
REMARK    1  A    between atoms: O_1  and  C_10 
REMARK    2  A    between atoms: O_1  and  C_23 
REMARK    3  A    between atoms: O_3  and  C_34 
REMARK    4  A    between atoms: N_7  and  C_11 
REMARK    5  A    between atoms: N_7  and  C_12 
REMARK    6  A    between atoms: N_9  and  C_36 
REMARK    7  A    between atoms: C_10  and  C_11 
REMARK    8  A    between atoms: C_12  and  C_13 
REMARK    9  A    between atoms: C_13  and  C_14 
REMARK   10  A    between atoms: C_14  and  C_20 
REMARK   11  A    between atoms: C_14  and  C_21 
REMARK   12  A    between atoms: C_15  and  C_25 
REMARK   13  A    between atoms: C_18  and  C_23 
REMARK   14  A    between atoms: C_22  and  C_34 
ROOT
HETATM    1  O   UNK N   1      22.270  14.870   3.007  0.00  0.00    -0.259 OA
HETATM    2  C   UNK N   1      23.127  14.856   3.877  0.00  0.00     0.293 C 
ENDROOT
BRANCH   2   3
HETATM    3  O   UNK N   1      24.427  14.694   3.506  0.00  0.00    -0.305 OA
BRANCH   3   4
HETATM    4  C   UNK N   1      25.434  15.656   3.600  0.00  0.00     0.090 C 
HETATM    5  C   UNK N   1      26.271  15.635   2.338  0.00  0.00     0.048 C 
HETATM    6  C   UNK N   1      24.954  17.087   3.810  0.00  0.00     0.048 C 
BRANCH   4   7
HETATM    7  C   UNK N   1      26.337  15.289   4.777  0.00  0.00     0.309 C 
BRANCH   7   8
HETATM    8  N   UNK N   1      27.469  14.462   4.343  0.00  0.00     0.087 N 
HETATM    9  C   UNK N   1      27.332  13.140   4.927  0.00  0.00     0.310 C 
BRANCH   8  10
HETATM   10  C   UNK N   1      28.725  15.009   4.837  0.00  0.00     0.273 C 
BRANCH  10  11
HETATM   11  C   UNK N   1      28.508  16.222   5.736  0.00  0.00     0.044 C 
BRANCH  11  12
HETATM   12  C   UNK N   1      29.208  17.454   5.165  0.00  0.00     0.053 C 
BRANCH  12  13
HETATM   13  C   UNK N   1      28.382  18.711   5.341  0.00  0.00    -0.050 A 
HETATM   14  C   UNK N   1      27.824  19.310   4.199  0.00  0.00     0.008 A 
HETATM   15  C   UNK N   1      26.971  20.409   4.315  0.00  0.00     0.001 A 
HETATM   16  C   UNK N   1      26.667  20.921   5.577  0.00  0.00     0.000 A 
HETATM   17  C   UNK N   1      27.219  20.335   6.721  0.00  0.00     0.001 A 
HETATM   18  C   UNK N   1      28.067  19.228   6.604  0.00  0.00     0.008 A 
ENDBRANCH  12  13
BRANCH  12  19
HETATM   19  C   UNK N   1      30.684  17.423   5.467  0.00  0.00    -0.050 A 
HETATM   20  C   UNK N   1      31.187  17.188   6.754  0.00  0.00     0.008 A 
HETATM   21  C   UNK N   1      32.568  17.099   6.964  0.00  0.00     0.001 A 
HETATM   22  C   UNK N   1      33.453  17.242   5.891  0.00  0.00     0.000 A 
HETATM   23  C   UNK N   1      32.959  17.480   4.607  0.00  0.00     0.001 A 
HETATM   24  C   UNK N   1      31.581  17.564   4.397  0.00  0.00     0.008 A 
ENDBRANCH  12  19
ENDBRANCH  11  12
ENDBRANCH  10  11
ENDBRANCH   8  10
ENDBRANCH   7   8
ENDBRANCH   4   7
ENDBRANCH   3   4
ENDBRANCH   2   3
BRANCH   2  25
HETATM   25  C   UNK N   1      22.699  14.934   5.300  0.00  0.00     0.052 C 
HETATM   26  C   UNK N   1      21.928  16.142   5.825  0.00  0.00     0.101 C 
HETATM   27  C   UNK N   1      21.230  15.940   7.181  0.00  0.00     0.052 C 
HETATM   28  C   UNK N   1      21.606  14.892   7.959  0.00  0.00     0.018 C 
HETATM   29  N   UNK N   1      22.551  13.948   7.491  0.00  0.00    -0.362 N 
HETATM   30  C   UNK N   1      21.062  14.692   9.341  0.00  0.00     0.069 C 
HETATM   31  C   UNK N   1      22.986  13.914   6.144  0.00  0.00     0.018 C 
HETATM   32  H   UNK N   1      22.921  13.292   8.125  0.00  0.00     0.165 HD
HETATM   33  C   UNK N   1      23.784  12.728   5.701  0.00  0.00     0.069 C 
BRANCH  26  34
HETATM   34  C   UNK N   1      21.353  17.133   4.822  0.00  0.00    -0.042 A 
HETATM   35  C   UNK N   1      22.053  18.299   4.482  0.00  0.00     0.044 A 
HETATM   36  C   UNK N   1      21.568  19.175   3.502  0.00  0.00     0.103 A 
HETATM   37  C   UNK N   1      20.336  18.905   2.889  0.00  0.00     0.036 A 
HETATM   38  C   UNK N   1      19.617  17.761   3.239  0.00  0.00     0.003 A 
HETATM   39  C   UNK N   1      20.137  16.868   4.181  0.00  0.00     0.008 A 
BRANCH  36  40
HETATM   40  N   UNK N   1      22.344  20.294   3.091  0.00  0.00    -0.116 N 
HETATM   41  O   UNK N   1      23.652  20.285   3.242  0.00  0.00    -0.532 OA
HETATM   42  O   UNK N   1      21.809  21.283   2.688  0.00  0.00    -0.532 OA
ENDBRANCH  36  40
ENDBRANCH  26  34
BRANCH  27  43
HETATM   43  C   UNK N   1      20.158  16.882   7.644  0.00  0.00     0.291 C 
HETATM   44  O   UNK N   1      20.449  18.030   7.937  0.00  0.00    -0.260 OA
BRANCH  43  45
HETATM   45  O   UNK N   1      18.845  16.522   7.649  0.00  0.00    -0.323 OA
HETATM   46  C   UNK N   1      17.988  16.813   8.690  0.00  0.00     0.213 C 
ENDBRANCH  43  45
ENDBRANCH  27  43
ENDBRANCH   2  25
TORSDOF 14
ENDMDL
MODEL 2
REMARK VINA RESULT:      -8.4      0.608      3.151
REMARK  14 active torsions:
REMARK  status: ('A' for Active; 'I' for Inactive)
REMARK    1  A    between atoms: O_1  and  C_10 
REMARK    2  A    between atoms: O_1  and  C_23 
REMARK    3  A    between atoms: O_3  and  C_34 
REMARK    4  A    between atoms: N_7  and  C_11 
REMARK    5  A    between atoms: N_7  and  C_12 
REMARK    6  A    between atoms: N_9  and  C_36 
REMARK    7  A    between atoms: C_10  and  C_11 
REMARK    8  A    between atoms: C_12  and  C_13 
REMARK    9  A    between atoms: C_13  and  C_14 
REMARK   10  A    between atoms: C_14  and  C_20 
REMARK   11  A    between atoms: C_14  and  C_21 
REMARK   12  A    between atoms: C_15  and  C_25 
REMARK   13  A    between atoms: C_18  and  C_23 
REMARK   14  A    between atoms: C_22  and  C_34 
ROOT
HETATM    1  O   UNK N   1      22.603  13.711   3.238  0.00  0.00    -0.259 OA
HETATM    2  C   UNK N   1      23.082  14.610   3.912  0.00  0.00     0.293 C 
ENDROOT
BRANCH   2   3
HETATM    3  O   UNK N   1      24.025  15.413   3.349  0.00  0.00    -0.305 OA
BRANCH   3   4
HETATM    4  C   UNK N   1      25.399  15.162   3.305  0.00  0.00     0.090 C 
HETATM    5  C   UNK N   1      25.645  13.680   3.493  0.00  0.00     0.048 C 
HETATM    6  C   UNK N   1      26.100  15.585   2.020  0.00  0.00     0.048 C 
BRANCH   4   7
HETATM    7  C   UNK N   1      26.057  15.907   4.465  0.00  0.00     0.309 C 
BRANCH   7   8
HETATM    8  N   UNK N   1      26.646  14.973   5.432  0.00  0.00     0.087 N 
HETATM    9  C   UNK N   1      26.151  15.300   6.756  0.00  0.00     0.310 C 
BRANCH   8  10
HETATM   10  C   UNK N   1      28.095  15.127   5.478  0.00  0.00     0.273 C 
BRANCH  10  11
HETATM   11  C   UNK N   1      28.568  16.341   4.685  0.00  0.00     0.044 C 
BRANCH  11  12
HETATM   12  C   UNK N   1      29.150  17.404   5.616  0.00  0.00     0.053 C 
BRANCH  12  13
HETATM   13  C   UNK N   1      30.664  17.426   5.579  0.00  0.00    -0.050 A 
HETATM   14  C   UNK N   1      31.365  17.179   6.771  0.00  0.00     0.008 A 
HETATM   15  C   UNK N   1      32.758  17.086   6.772  0.00  0.00     0.001 A 
HETATM   16  C   UNK N   1      33.465  17.239   5.578  0.00  0.00     0.000 A 
HETATM   17  C   UNK N   1      32.777  17.489   4.386  0.00  0.00     0.001 A 
HETATM   18  C   UNK N   1      31.380  17.574   4.384  0.00  0.00     0.008 A 
ENDBRANCH  12  13
BRANCH  12  19
HETATM   19  C   UNK N   1      28.334  18.670   5.564  0.00  0.00    -0.050 A 
HETATM   20  C   UNK N   1      27.835  19.198   4.365  0.00  0.00     0.008 A 
HETATM   21  C   UNK N   1      27.023  20.337   4.382  0.00  0.00     0.001 A 
HETATM   22  C   UNK N   1      26.702  20.954   5.596  0.00  0.00     0.000 A 
HETATM   23  C   UNK N   1      27.199  20.436   6.794  0.00  0.00     0.001 A 
HETATM   24  C   UNK N   1      28.006  19.296   6.776  0.00  0.00     0.008 A 
ENDBRANCH  12  19
ENDBRANCH  11  12
ENDBRANCH  10  11
ENDBRANCH   8  10
ENDBRANCH   7   8
ENDBRANCH   4   7
ENDBRANCH   3   4
ENDBRANCH   2   3
BRANCH   2  25
HETATM   25  C   UNK N   1      22.673  14.727   5.339  0.00  0.00     0.052 C 
HETATM   26  C   UNK N   1      21.964  15.977   5.853  0.00  0.00     0.101 C 
HETATM   27  C   UNK N   1      21.271  15.826   7.219  0.00  0.00     0.052 C 
HETATM   28  C   UNK N   1      21.605  14.773   8.008  0.00  0.00     0.018 C 
HETATM   29  N   UNK N   1      22.500  13.779   7.544  0.00  0.00    -0.362 N 
HETATM   30  C   UNK N   1      21.066  14.617   9.397  0.00  0.00     0.069 C 
HETATM   31  C   UNK N   1      22.920  13.706   6.194  0.00  0.00     0.018 C 
HETATM   32  H   UNK N   1      22.845  13.115   8.184  0.00  0.00     0.165 HD
HETATM   33  C   UNK N   1      23.657  12.478   5.760  0.00  0.00     0.069 C 
BRANCH  26  34
HETATM   34  C   UNK N   1      21.426  16.980   4.842  0.00  0.00    -0.042 A 
HETATM   35  C   UNK N   1      22.143  18.145   4.535  0.00  0.00     0.044 A 
HETATM   36  C   UNK N   1      21.694  19.033   3.548  0.00  0.00     0.103 A 
HETATM   37  C   UNK N   1      20.480  18.776   2.895  0.00  0.00     0.036 A 
HETATM   38  C   UNK N   1      19.744  17.633   3.211  0.00  0.00     0.003 A 
HETATM   39  C   UNK N   1      20.229  16.728   4.161  0.00  0.00     0.008 A 
BRANCH  36  40
HETATM   40  N   UNK N   1      22.488  20.151   3.171  0.00  0.00    -0.116 N 
HETATM   41  O   UNK N   1      21.922  21.228   2.669  0.00  0.00    -0.532 OA
HETATM   42  O   UNK N   1      23.680  20.088   3.226  0.00  0.00    -0.532 OA
ENDBRANCH  36  40
ENDBRANCH  26  34
BRANCH  27  43
HETATM   43  C   UNK N   1      20.249  16.824   7.678  0.00  0.00     0.291 C 
HETATM   44  O   UNK N   1      20.596  17.962   7.951  0.00  0.00    -0.260 OA
BRANCH  43  45
HETATM   45  O   UNK N   1      18.921  16.525   7.703  0.00  0.00    -0.323 OA
HETATM   46  C   UNK N   1      18.075  16.939   8.711  0.00  0.00     0.213 C 
ENDBRANCH  43  45
ENDBRANCH  27  43
ENDBRANCH   2  25
TORSDOF 14
ENDMDL
MODEL 3
REMARK VINA RESULT:      -8.2      1.257      1.906
REMARK  14 active torsions:
REMARK  status: ('A' for Active; 'I' for Inactive)
REMARK    1  A    between atoms: O_1  and  C_10 
REMARK    2  A    between atoms: O_1  and  C_23 
REMARK    3  A    between atoms: O_3  and  C_34 
REMARK    4  A    between atoms: N_7  and  C_11 
REMARK    5  A    between atoms: N_7  and  C_12 
REMARK    6  A    between atoms: N_9  and  C_36 
REMARK    7  A    between atoms: C_10  and  C_11 
REMARK    8  A    between atoms: C_12  and  C_13 
REMARK    9  A    between atoms: C_13  and  C_14 
REMARK   10  A    between atoms: C_14  and  C_20 
REMARK   11  A    between atoms: C_14  and  C_21 
REMARK   12  A    between atoms: C_15  and  C_25 
REMARK   13  A    between atoms: C_18  and  C_23 
REMARK   14  A    between atoms: C_22  and  C_34 
ROOT
HETATM    1  O   UNK N   1      25.380  16.598   5.337  0.00  0.00    -0.259 OA
HETATM    2  C   UNK N   1      24.757  15.551   5.251  0.00  0.00     0.293 C 
ENDROOT
BRANCH   2   3
HETATM    3  O   UNK N   1      24.964  14.760   4.162  0.00  0.00    -0.305 OA
BRANCH   3   4
HETATM    4  C   UNK N   1      25.581  15.148   2.971  0.00  0.00     0.090 C 
HETATM    5  C   UNK N   1      24.745  14.684   1.796  0.00  0.00     0.048 C 
HETATM    6  C   UNK N   1      25.808  16.647   2.810  0.00  0.00     0.048 C 
BRANCH   4   7
HETATM    7  C   UNK N   1      26.941  14.457   2.891  0.00  0.00     0.309 C 
BRANCH   7   8
HETATM    8  N   UNK N   1      28.015  15.338   3.366  0.00  0.00     0.087 N 
HETATM    9  C   UNK N   1      29.107  15.296   2.411  0.00  0.00     0.310 C 
BRANCH   8  10
HETATM   10  C   UNK N   1      28.549  14.859   4.634  0.00  0.00     0.273 C 
BRANCH  10  11
HETATM   11  C   UNK N   1      28.638  15.971   5.675  0.00  0.00     0.044 C 
BRANCH  11  12
HETATM   12  C   UNK N   1      29.236  17.238   5.066  0.00  0.00     0.053 C 
BRANCH  12  13
HETATM   13  C   UNK N   1      28.378  18.458   5.331  0.00  0.00    -0.050 A 
HETATM   14  C   UNK N   1      28.172  18.854   6.662  0.00  0.00     0.008 A 
HETATM   15  C   UNK N   1      27.475  20.027   6.958  0.00  0.00     0.001 A 
HETATM   16  C   UNK N   1      26.978  20.817   5.922  0.00  0.00     0.000 A 
HETATM   17  C   UNK N   1      27.173  20.432   4.592  0.00  0.00     0.001 A 
HETATM   18  C   UNK N   1      27.879  19.260   4.296  0.00  0.00     0.008 A 
ENDBRANCH  12  13
BRANCH  12  19
HETATM   19  C   UNK N   1      30.733  17.265   5.241  0.00  0.00    -0.050 A 
HETATM   20  C   UNK N   1      31.611  17.565   4.191  0.00  0.00     0.008 A 
HETATM   21  C   UNK N   1      32.988  17.647   4.427  0.00  0.00     0.001 A 
HETATM   22  C   UNK N   1      33.496  17.431   5.712  0.00  0.00     0.000 A 
HETATM   23  C   UNK N   1      32.626  17.128   6.763  0.00  0.00     0.001 A 
HETATM   24  C   UNK N   1      31.252  17.052   6.527  0.00  0.00     0.008 A 
ENDBRANCH  12  19
ENDBRANCH  11  12
ENDBRANCH  10  11
ENDBRANCH   8  10
ENDBRANCH   7   8
ENDBRANCH   4   7
ENDBRANCH   3   4
ENDBRANCH   2   3
BRANCH   2  25
HETATM   25  C   UNK N   1      23.745  15.235   6.296  0.00  0.00     0.052 C 
HETATM   26  C   UNK N   1      22.334  15.814   6.224  0.00  0.00     0.101 C 
HETATM   27  C   UNK N   1      21.296  15.131   7.130  0.00  0.00     0.052 C 
HETATM   28  C   UNK N   1      21.732  14.338   8.142  0.00  0.00     0.018 C 
HETATM   29  N   UNK N   1      23.113  14.066   8.302  0.00  0.00    -0.362 N 
HETATM   30  C   UNK N   1      20.794  13.731   9.140  0.00  0.00     0.069 C 
HETATM   31  C   UNK N   1      24.073  14.413   7.321  0.00  0.00     0.018 C 
HETATM   32  H   UNK N   1      23.416  13.621   9.126  0.00  0.00     0.165 HD
HETATM   33  C   UNK N   1      25.454  13.858   7.473  0.00  0.00     0.069 C 
BRANCH  26  34
HETATM   34  C   UNK N   1      21.884  16.484   4.933  0.00  0.00    -0.042 A 
HETATM   35  C   UNK N   1      21.767  17.878   4.850  0.00  0.00     0.044 A 
HETATM   36  C   UNK N   1      21.430  18.506   3.642  0.00  0.00     0.103 A 
HETATM   37  C   UNK N   1      21.156  17.720   2.514  0.00  0.00     0.036 A 
HETATM   38  C   UNK N   1      21.242  16.329   2.592  0.00  0.00     0.003 A 
HETATM   39  C   UNK N   1      21.630  15.718   3.789  0.00  0.00     0.008 A 
BRANCH  36  40
HETATM   40  N   UNK N   1      21.424  19.925   3.548  0.00  0.00    -0.116 N 
HETATM   41  O   UNK N   1      20.352  20.607   3.889  0.00  0.00    -0.532 OA
HETATM   42  O   UNK N   1      22.359  20.500   3.077  0.00  0.00    -0.532 OA
ENDBRANCH  36  40
ENDBRANCH  26  34
BRANCH  27  43
HETATM   43  C   UNK N   1      19.826  15.336   6.908  0.00  0.00     0.291 C 
HETATM   44  O   UNK N   1      19.224  14.606   6.138  0.00  0.00    -0.260 OA
BRANCH  43  45
HETATM   45  O   UNK N   1      19.117  16.254   7.622  0.00  0.00    -0.323 OA
HETATM   46  C   UNK N   1      19.711  17.230   8.394  0.00  0.00     0.213 C 
ENDBRANCH  43  45
ENDBRANCH  27  43
ENDBRANCH   2  25
TORSDOF 14
ENDMDL
MODEL 4
REMARK VINA RESULT:      -8.0      2.248      4.590
REMARK  14 active torsions:
REMARK  status: ('A' for Active; 'I' for Inactive)
REMARK    1  A    between atoms: O_1  and  C_10 
REMARK    2  A    between atoms: O_1  and  C_23 
REMARK    3  A    between atoms: O_3  and  C_34 
REMARK    4  A    between atoms: N_7  and  C_11 
REMARK    5  A    between atoms: N_7  and  C_12 
REMARK    6  A    between atoms: N_9  and  C_36 
REMARK    7  A    between atoms: C_10  and  C_11 
REMARK    8  A    between atoms: C_12  and  C_13 
REMARK    9  A    between atoms: C_13  and  C_14 
REMARK   10  A    between atoms: C_14  and  C_20 
REMARK   11  A    between atoms: C_14  and  C_21 
REMARK   12  A    between atoms: C_15  and  C_25 
REMARK   13  A    between atoms: C_18  and  C_23 
REMARK   14  A    between atoms: C_22  and  C_34 
ROOT
HETATM    1  O   UNK N   1      23.049  12.482   3.144  0.00  0.00    -0.259 OA
HETATM    2  C   UNK N   1      23.562  13.569   3.364  0.00  0.00     0.293 C 
ENDROOT
BRANCH   2   3
HETATM    3  O   UNK N   1      24.913  13.629   3.519  0.00  0.00    -0.305 OA
BRANCH   3   4
HETATM    4  C   UNK N   1      25.848  13.832   2.501  0.00  0.00     0.090 C 
HETATM    5  C   UNK N   1      25.898  12.607   1.613  0.00  0.00     0.048 C 
HETATM    6  C   UNK N   1      25.589  15.038   1.607  0.00  0.00     0.048 C 
BRANCH   4   7
HETATM    7  C   UNK N   1      27.222  14.012   3.145  0.00  0.00     0.309 C 
BRANCH   7   8
HETATM    8  N   UNK N   1      28.143  14.717   2.246  0.00  0.00     0.087 N 
HETATM    9  C   UNK N   1      29.226  13.819   1.890  0.00  0.00     0.310 C 
BRANCH   8  10
HETATM   10  C   UNK N   1      28.750  15.856   2.922  0.00  0.00     0.273 C 
BRANCH  10  11
HETATM   11  C   UNK N   1      28.129  16.107   4.293  0.00  0.00     0.044 C 
BRANCH  11  12
HETATM   12  C   UNK N   1      28.281  17.573   4.698  0.00  0.00     0.053 C 
BRANCH  12  13
HETATM   13  C   UNK N   1      27.136  18.424   4.190  0.00  0.00    -0.050 A 
HETATM   14  C   UNK N   1      27.392  19.769   3.873  0.00  0.00     0.008 A 
HETATM   15  C   UNK N   1      26.399  20.569   3.307  0.00  0.00     0.001 A 
HETATM   16  C   UNK N   1      25.138  20.032   3.050  0.00  0.00     0.000 A 
HETATM   17  C   UNK N   1      24.869  18.696   3.364  0.00  0.00     0.001 A 
HETATM   18  C   UNK N   1      25.868  17.891   3.925  0.00  0.00     0.008 A 
ENDBRANCH  12  13
BRANCH  12  19
HETATM   19  C   UNK N   1      28.797  17.691   6.109  0.00  0.00    -0.050 A 
HETATM   20  C   UNK N   1      28.013  18.187   7.160  0.00  0.00     0.008 A 
HETATM   21  C   UNK N   1      28.518  18.207   8.465  0.00  0.00     0.001 A 
HETATM   22  C   UNK N   1      29.806  17.732   8.728  0.00  0.00     0.000 A 
HETATM   23  C   UNK N   1      30.594  17.240   7.685  0.00  0.00     0.001 A 
HETATM   24  C   UNK N   1      30.087  17.214   6.384  0.00  0.00     0.008 A 
ENDBRANCH  12  19
ENDBRANCH  11  12
ENDBRANCH  10  11
ENDBRANCH   8  10
ENDBRANCH   7   8
ENDBRANCH   4   7
ENDBRANCH   3   4
ENDBRANCH   2   3
BRANCH   2  25
HETATM   25  C   UNK N   1      22.678  14.754   3.535  0.00  0.00     0.052 C 
HETATM   26  C   UNK N   1      22.522  15.429   4.896  0.00  0.00     0.101 C 
HETATM   27  C   UNK N   1      21.895  16.833   4.866  0.00  0.00     0.052 C 
HETATM   28  C   UNK N   1      21.230  17.228   3.750  0.00  0.00     0.018 C 
HETATM   29  N   UNK N   1      21.195  16.402   2.600  0.00  0.00    -0.362 N 
HETATM   30  C   UNK N   1      20.492  18.531   3.682  0.00  0.00     0.069 C 
HETATM   31  C   UNK N   1      22.008  15.251   2.468  0.00  0.00     0.018 C 
HETATM   32  H   UNK N   1      20.582  16.637   1.866  0.00  0.00     0.165 HD
HETATM   33  C   UNK N   1      22.080  14.601   1.122  0.00  0.00     0.069 C 
BRANCH  26  34
HETATM   34  C   UNK N   1      23.492  15.060   6.009  0.00  0.00    -0.042 A 
HETATM   35  C   UNK N   1      23.122  14.156   7.015  0.00  0.00     0.044 A 
HETATM   36  C   UNK N   1      24.036  13.751   7.998  0.00  0.00     0.103 A 
HETATM   37  C   UNK N   1      25.325  14.301   8.003  0.00  0.00     0.036 A 
HETATM   38  C   UNK N   1      25.697  15.222   7.023  0.00  0.00     0.003 A 
HETATM   39  C   UNK N   1      24.792  15.578   6.018  0.00  0.00     0.008 A 
BRANCH  36  40
HETATM   40  N   UNK N   1      23.677  12.751   8.943  0.00  0.00    -0.116 N 
HETATM   41  O   UNK N   1      23.899  11.480   8.679  0.00  0.00    -0.532 OA
HETATM   42  O   UNK N   1      23.095  13.048   9.942  0.00  0.00    -0.532 OA
ENDBRANCH  36  40
ENDBRANCH  26  34
BRANCH  27  43
HETATM   43  C   UNK N   1      22.010  17.753   6.045  0.00  0.00     0.291 C 
HETATM   44  O   UNK N   1      22.845  18.643   6.038  0.00  0.00    -0.260 OA
BRANCH  43  45
HETATM   45  O   UNK N   1      21.137  17.690   7.088  0.00  0.00    -0.323 OA
HETATM   46  C   UNK N   1      20.197  16.689   7.224  0.00  0.00     0.213 C 
ENDBRANCH  43  45
ENDBRANCH  27  43
ENDBRANCH   2  25
TORSDOF 14
ENDMDL
MODEL 5
REMARK VINA RESULT:      -7.9      2.288      5.179
REMARK  14 active torsions:
REMARK  status: ('A' for Active; 'I' for Inactive)
REMARK    1  A    between atoms: O_1  and  C_10 
REMARK    2  A    between atoms: O_1  and  C_23 
REMARK    3  A    between atoms: O_3  and  C_34 
REMARK    4  A    between atoms: N_7  and  C_11 
REMARK    5  A    between atoms: N_7  and  C_12 
REMARK    6  A    between atoms: N_9  and  C_36 
REMARK    7  A    between atoms: C_10  and  C_11 
REMARK    8  A    between atoms: C_12  and  C_13 
REMARK    9  A    between atoms: C_13  and  C_14 
REMARK   10  A    between atoms: C_14  and  C_20 
REMARK   11  A    between atoms: C_14  and  C_21 
REMARK   12  A    between atoms: C_15  and  C_25 
REMARK   13  A    between atoms: C_18  and  C_23 
REMARK   14  A    between atoms: C_22  and  C_34 
ROOT
HETATM    1  O   UNK N   1      22.629  12.147   3.384  0.00  0.00    -0.259 OA
HETATM    2  C   UNK N   1      23.247  13.201   3.374  0.00  0.00     0.293 C 
ENDROOT
BRANCH   2   3
HETATM    3  O   UNK N   1      24.607  13.156   3.350  0.00  0.00    -0.305 OA
BRANCH   3   4
HETATM    4  C   UNK N   1      25.417  13.383   2.235  0.00  0.00     0.090 C 
HETATM    5  C   UNK N   1      25.029  12.425   1.128  0.00  0.00     0.048 C 
HETATM    6  C   UNK N   1      25.362  14.794   1.664  0.00  0.00     0.048 C 
BRANCH   4   7
HETATM    7  C   UNK N   1      26.864  13.094   2.631  0.00  0.00     0.309 C 
BRANCH   7   8
HETATM    8  N   UNK N   1      27.679  14.314   2.601  0.00  0.00     0.087 N 
HETATM    9  C   UNK N   1      28.875  14.057   1.820  0.00  0.00     0.310 C 
BRANCH   8  10
HETATM   10  C   UNK N   1      28.124  14.669   3.943  0.00  0.00     0.273 C 
BRANCH  10  11
HETATM   11  C   UNK N   1      28.689  16.084   4.003  0.00  0.00     0.044 C 
BRANCH  11  12
HETATM   12  C   UNK N   1      27.990  16.902   5.089  0.00  0.00     0.053 C 
BRANCH  12  13
HETATM   13  C   UNK N   1      28.843  17.045   6.331  0.00  0.00    -0.050 A 
HETATM   14  C   UNK N   1      30.237  16.938   6.201  0.00  0.00     0.008 A 
HETATM   15  C   UNK N   1      31.075  17.163   7.296  0.00  0.00     0.001 A 
HETATM   16  C   UNK N   1      30.525  17.499   8.533  0.00  0.00     0.000 A 
HETATM   17  C   UNK N   1      29.138  17.605   8.676  0.00  0.00     0.001 A 
HETATM   18  C   UNK N   1      28.299  17.387   7.576  0.00  0.00     0.008 A 
ENDBRANCH  12  13
BRANCH  12  19
HETATM   19  C   UNK N   1      27.252  18.072   4.490  0.00  0.00    -0.050 A 
HETATM   20  C   UNK N   1      27.762  19.378   4.513  0.00  0.00     0.008 A 
HETATM   21  C   UNK N   1      27.069  20.415   3.879  0.00  0.00     0.001 A 
HETATM   22  C   UNK N   1      25.865  20.154   3.217  0.00  0.00     0.000 A 
HETATM   23  C   UNK N   1      25.349  18.856   3.194  0.00  0.00     0.001 A 
HETATM   24  C   UNK N   1      26.044  17.821   3.822  0.00  0.00     0.008 A 
ENDBRANCH  12  19
ENDBRANCH  11  12
ENDBRANCH  10  11
ENDBRANCH   8  10
ENDBRANCH   7   8
ENDBRANCH   4   7
ENDBRANCH   3   4
ENDBRANCH   2   3
BRANCH   2  25
HETATM   25  C   UNK N   1      22.485  14.475   3.472  0.00  0.00     0.052 C 
HETATM   26  C   UNK N   1      22.423  15.255   4.783  0.00  0.00     0.101 C 
HETATM   27  C   UNK N   1      21.934  16.709   4.662  0.00  0.00     0.052 C 
HETATM   28  C   UNK N   1      21.287  17.088   3.530  0.00  0.00     0.018 C 
HETATM   29  N   UNK N   1      21.149  16.192   2.443  0.00  0.00    -0.362 N 
HETATM   30  C   UNK N   1      20.677  18.449   3.380  0.00  0.00     0.069 C 
HETATM   31  C   UNK N   1      21.844  14.961   2.382  0.00  0.00     0.018 C 
HETATM   32  H   UNK N   1      20.547  16.434   1.702  0.00  0.00     0.165 HD
HETATM   33  C   UNK N   1      21.825  14.215   1.084  0.00  0.00     0.069 C 
BRANCH  26  34
HETATM   34  C   UNK N   1      23.376  14.871   5.906  0.00  0.00    -0.042 A 
HETATM   35  C   UNK N   1      22.942  14.075   6.976  0.00  0.00     0.044 A 
HETATM   36  C   UNK N   1      23.833  13.652   7.972  0.00  0.00     0.103 A 
HETATM   37  C   UNK N   1      25.168  14.078   7.923  0.00  0.00     0.036 A 
HETATM   38  C   UNK N   1      25.605  14.893   6.878  0.00  0.00     0.003 A 
HETATM   39  C   UNK N   1      24.719  15.265   5.863  0.00  0.00     0.008 A 
BRANCH  36  40
HETATM   40  N   UNK N   1      23.402  12.755   8.987  0.00  0.00    -0.116 N 
HETATM   41  O   UNK N   1      23.497  11.455   8.806  0.00  0.00    -0.532 OA
HETATM   42  O   UNK N   1      22.872  13.172   9.973  0.00  0.00    -0.532 OA
ENDBRANCH  36  40
ENDBRANCH  26  34
BRANCH  27  43
HETATM   43  C   UNK N   1      22.161  17.693   5.772  0.00  0.00     0.291 C 
HETATM   44  O   UNK N   1      23.179  18.366   5.782  0.00  0.00    -0.260 OA
BRANCH  43  45
HETATM   45  O   UNK N   1      21.213  17.932   6.719  0.00  0.00    -0.323 OA
HETATM   46  C   UNK N   1      20.673  16.942   7.512  0.00  0.00     0.213 C 
ENDBRANCH  43  45
ENDBRANCH  27  43
ENDBRANCH   2  25
TORSDOF 14
ENDMDL
MODEL 6
REMARK VINA RESULT:      -7.9     12.343     15.478
REMARK  14 active torsions:
REMARK  status: ('A' for Active; 'I' for Inactive)
REMARK    1  A    between atoms: O_1  and  C_10 
REMARK    2  A    between atoms: O_1  and  C_23 
REMARK    3  A    between atoms: O_3  and  C_34 
REMARK    4  A    between atoms: N_7  and  C_11 
REMARK    5  A    between atoms: N_7  and  C_12 
REMARK    6  A    between atoms: N_9  and  C_36 
REMARK    7  A    between atoms: C_10  and  C_11 
REMARK    8  A    between atoms: C_12  and  C_13 
REMARK    9  A    between atoms: C_13  and  C_14 
REMARK   10  A    between atoms: C_14  and  C_20 
REMARK   11  A    between atoms: C_14  and  C_21 
REMARK   12  A    between atoms: C_15  and  C_25 
REMARK   13  A    between atoms: C_18  and  C_23 
REMARK   14  A    between atoms: C_22  and  C_34 
ROOT
HETATM    1  O   UNK N   1      25.538  22.910  -6.169  0.00  0.00    -0.259 OA
HETATM    2  C   UNK N   1      26.620  23.254  -6.620  0.00  0.00     0.293 C 
ENDROOT
BRANCH   2   3
HETATM    3  O   UNK N   1      26.919  24.582  -6.648  0.00  0.00    -0.305 OA
BRANCH   3   4
HETATM    4  C   UNK N   1      26.666  25.458  -7.706  0.00  0.00     0.090 C 
HETATM    5  C   UNK N   1      26.022  24.698  -8.846  0.00  0.00     0.048 C 
HETATM    6  C   UNK N   1      25.764  26.640  -7.373  0.00  0.00     0.048 C 
BRANCH   4   7
HETATM    7  C   UNK N   1      28.002  26.012  -8.196  0.00  0.00     0.309 C 
BRANCH   7   8
HETATM    8  N   UNK N   1      27.843  27.348  -8.784  0.00  0.00     0.087 N 
HETATM    9  C   UNK N   1      28.214  27.287 -10.185  0.00  0.00     0.310 C 
BRANCH   8  10
HETATM   10  C   UNK N   1      28.748  28.300  -8.152  0.00  0.00     0.273 C 
BRANCH  10  11
HETATM   11  C   UNK N   1      29.513  27.678  -6.988  0.00  0.00     0.044 C 
BRANCH  11  12
HETATM   12  C   UNK N   1      29.335  28.508  -5.717  0.00  0.00     0.053 C 
BRANCH  12  13
HETATM   13  C   UNK N   1      28.045  28.176  -4.997  0.00  0.00    -0.050 A 
HETATM   14  C   UNK N   1      27.910  26.902  -4.421  0.00  0.00     0.008 A 
HETATM   15  C   UNK N   1      26.785  26.580  -3.659  0.00  0.00     0.001 A 
HETATM   16  C   UNK N   1      25.783  27.531  -3.465  0.00  0.00     0.000 A 
HETATM   17  C   UNK N   1      25.905  28.801  -4.036  0.00  0.00     0.001 A 
HETATM   18  C   UNK N   1      27.037  29.127  -4.793  0.00  0.00     0.008 A 
ENDBRANCH  12  13
BRANCH  12  19
HETATM   19  C   UNK N   1      30.643  28.653  -4.982  0.00  0.00    -0.050 A 
HETATM   20  C   UNK N   1      31.884  28.464  -5.605  0.00  0.00     0.008 A 
HETATM   21  C   UNK N   1      33.069  28.683  -4.893  0.00  0.00     0.001 A 
HETATM   22  C   UNK N   1      33.021  29.093  -3.557  0.00  0.00     0.000 A 
HETATM   23  C   UNK N   1      31.787  29.280  -2.929  0.00  0.00     0.001 A 
HETATM   24  C   UNK N   1      30.606  29.067  -3.642  0.00  0.00     0.008 A 
ENDBRANCH  12  19
ENDBRANCH  11  12
ENDBRANCH  10  11
ENDBRANCH   8  10
ENDBRANCH   7   8
ENDBRANCH   4   7
ENDBRANCH   3   4
ENDBRANCH   2   3
BRANCH   2  25
HETATM   25  C   UNK N   1      27.518  22.214  -7.191  0.00  0.00     0.052 C 
HETATM   26  C   UNK N   1      29.008  22.192  -6.859  0.00  0.00     0.101 C 
HETATM   27  C   UNK N   1      29.739  20.881  -7.197  0.00  0.00     0.052 C 
HETATM   28  C   UNK N   1      29.145  20.002  -8.044  0.00  0.00     0.018 C 
HETATM   29  N   UNK N   1      27.836  20.239  -8.530  0.00  0.00    -0.362 N 
HETATM   30  C   UNK N   1      29.837  18.759  -8.517  0.00  0.00     0.069 C 
HETATM   31  C   UNK N   1      27.008  21.262  -8.010  0.00  0.00     0.018 C 
HETATM   32  H   UNK N   1      27.490  19.673  -9.258  0.00  0.00     0.165 HD
HETATM   33  C   UNK N   1      25.567  21.263  -8.414  0.00  0.00     0.069 C 
BRANCH  26  34
HETATM   34  C   UNK N   1      29.514  23.065  -5.719  0.00  0.00    -0.042 A 
HETATM   35  C   UNK N   1      29.191  22.767  -4.388  0.00  0.00     0.044 A 
HETATM   36  C   UNK N   1      29.718  23.520  -3.329  0.00  0.00     0.103 A 
HETATM   37  C   UNK N   1      30.539  24.620  -3.612  0.00  0.00     0.036 A 
HETATM   38  C   UNK N   1      30.846  24.942  -4.935  0.00  0.00     0.003 A 
HETATM   39  C   UNK N   1      30.357  24.152  -5.979  0.00  0.00     0.008 A 
BRANCH  36  40
HETATM   40  N   UNK N   1      29.469  23.136  -1.982  0.00  0.00    -0.116 N 
HETATM   41  O   UNK N   1      28.234  23.019  -1.544  0.00  0.00    -0.532 OA
HETATM   42  O   UNK N   1      30.377  23.003  -1.217  0.00  0.00    -0.532 OA
ENDBRANCH  36  40
ENDBRANCH  26  34
BRANCH  27  43
HETATM   43  C   UNK N   1      31.085  20.576  -6.610  0.00  0.00     0.291 C 
HETATM   44  O   UNK N   1      32.091  21.005  -7.153  0.00  0.00    -0.260 OA
BRANCH  43  45
HETATM   45  O   UNK N   1      31.216  19.918  -5.426  0.00  0.00    -0.323 OA
HETATM   46  C   UNK N   1      32.317  20.052  -4.606  0.00  0.00     0.213 C 
ENDBRANCH  43  45
ENDBRANCH  27  43
ENDBRANCH   2  25
TORSDOF 14
ENDMDL
MODEL 7
REMARK VINA RESULT:      -7.7      3.063      7.686
REMARK  14 active torsions:
REMARK  status: ('A' for Active; 'I' for Inactive)
REMARK    1  A    between atoms: O_1  and  C_10 
REMARK    2  A    between atoms: O_1  and  C_23 
REMARK    3  A    between atoms: O_3  and  C_34 
REMARK    4  A    between atoms: N_7  and  C_11 
REMARK    5  A    between atoms: N_7  and  C_12 
REMARK    6  A    between atoms: N_9  and  C_36 
REMARK    7  A    between atoms: C_10  and  C_11 
REMARK    8  A    between atoms: C_12  and  C_13 
REMARK    9  A    between atoms: C_13  and  C_14 
REMARK   10  A    between atoms: C_14  and  C_20 
REMARK   11  A    between atoms: C_14  and  C_21 
REMARK   12  A    between atoms: C_15  and  C_25 
REMARK   13  A    between atoms: C_18  and  C_23 
REMARK   14  A    between atoms: C_22  and  C_34 
ROOT
HETATM    1  O   UNK N   1      23.937  13.352   1.873  0.00  0.00    -0.259 OA
HETATM    2  C   UNK N   1      23.171  13.459   2.819  0.00  0.00     0.293 C 
ENDROOT
BRANCH   2   3
HETATM    3  O   UNK N   1      22.981  12.380   3.626  0.00  0.00    -0.305 OA
BRANCH   3   4
HETATM    4  C   UNK N   1      22.316  11.201   3.278  0.00  0.00     0.090 C 
HETATM    5  C   UNK N   1      20.826  11.462   3.219  0.00  0.00     0.048 C 
HETATM    6  C   UNK N   1      22.728  10.588   1.945  0.00  0.00     0.048 C 
BRANCH   4   7
HETATM    7  C   UNK N   1      22.577  10.166   4.370  0.00  0.00     0.309 C 
BRANCH   7   8
HETATM    8  N   UNK N   1      23.725  10.546   5.202  0.00  0.00     0.087 N 
HETATM    9  C   UNK N   1      24.737   9.511   5.101  0.00  0.00     0.310 C 
BRANCH   8  10
HETATM   10  C   UNK N   1      23.341  10.620   6.606  0.00  0.00     0.273 C 
BRANCH  10  11
HETATM   11  C   UNK N   1      23.453  12.038   7.157  0.00  0.00     0.044 C 
BRANCH  11  12
HETATM   12  C   UNK N   1      22.285  12.352   8.090  0.00  0.00     0.053 C 
BRANCH  12  13
HETATM   13  C   UNK N   1      22.690  12.292   9.548  0.00  0.00    -0.050 A 
HETATM   14  C   UNK N   1      21.679  12.200  10.520  0.00  0.00     0.008 A 
HETATM   15  C   UNK N   1      22.000  12.039  11.869  0.00  0.00     0.001 A 
HETATM   16  C   UNK N   1      23.337  11.967  12.260  0.00  0.00     0.000 A 
HETATM   17  C   UNK N   1      24.352  12.060  11.303  0.00  0.00     0.001 A 
HETATM   18  C   UNK N   1      24.030  12.214   9.949  0.00  0.00     0.008 A 
ENDBRANCH  12  13
BRANCH  12  19
HETATM   19  C   UNK N   1      21.446  13.478   7.543  0.00  0.00    -0.050 A 
HETATM   20  C   UNK N   1      21.389  14.741   8.150  0.00  0.00     0.008 A 
HETATM   21  C   UNK N   1      20.650  15.772   7.559  0.00  0.00     0.001 A 
HETATM   22  C   UNK N   1      19.966  15.550   6.359  0.00  0.00     0.000 A 
HETATM   23  C   UNK N   1      20.016  14.293   5.752  0.00  0.00     0.001 A 
HETATM   24  C   UNK N   1      20.758  13.266   6.339  0.00  0.00     0.008 A 
ENDBRANCH  12  19
ENDBRANCH  11  12
ENDBRANCH  10  11
ENDBRANCH   8  10
ENDBRANCH   7   8
ENDBRANCH   4   7
ENDBRANCH   3   4
ENDBRANCH   2   3
BRANCH   2  25
HETATM   25  C   UNK N   1      22.424  14.735   2.990  0.00  0.00     0.052 C 
HETATM   26  C   UNK N   1      22.828  15.745   4.062  0.00  0.00     0.101 C 
HETATM   27  C   UNK N   1      22.234  17.154   3.895  0.00  0.00     0.052 C 
HETATM   28  C   UNK N   1      21.171  17.322   3.067  0.00  0.00     0.018 C 
HETATM   29  N   UNK N   1      20.679  16.240   2.297  0.00  0.00    -0.362 N 
HETATM   30  C   UNK N   1      20.460  18.635   2.939  0.00  0.00     0.069 C 
HETATM   31  C   UNK N   1      21.376  15.014   2.178  0.00  0.00     0.018 C 
HETATM   32  H   UNK N   1      19.820  16.345   1.827  0.00  0.00     0.165 HD
HETATM   33  C   UNK N   1      20.901  14.041   1.145  0.00  0.00     0.069 C 
BRANCH  26  34
HETATM   34  C   UNK N   1      24.168  15.570   4.761  0.00  0.00    -0.042 A 
HETATM   35  C   UNK N   1      25.371  15.746   4.064  0.00  0.00     0.044 A 
HETATM   36  C   UNK N   1      26.608  15.664   4.720  0.00  0.00     0.103 A 
HETATM   37  C   UNK N   1      26.640  15.348   6.085  0.00  0.00     0.036 A 
HETATM   38  C   UNK N   1      25.450  15.143   6.784  0.00  0.00     0.003 A 
HETATM   39  C   UNK N   1      24.222  15.280   6.130  0.00  0.00     0.008 A 
BRANCH  36  40
HETATM   40  N   UNK N   1      27.812  15.954   4.021  0.00  0.00    -0.116 N 
HETATM   41  O   UNK N   1      28.832  15.125   4.085  0.00  0.00    -0.532 OA
HETATM   42  O   UNK N   1      27.937  16.993   3.444  0.00  0.00    -0.532 OA
ENDBRANCH  36  40
ENDBRANCH  26  34
BRANCH  27  43
HETATM   43  C   UNK N   1      22.810  18.325   4.635  0.00  0.00     0.291 C 
HETATM   44  O   UNK N   1      22.507  18.510   5.803  0.00  0.00    -0.260 OA
BRANCH  43  45
HETATM   45  O   UNK N   1      23.746  19.136   4.070  0.00  0.00    -0.323 OA
HETATM   46  C   UNK N   1      24.999  19.333   4.613  0.00  0.00     0.213 C 
ENDBRANCH  43  45
ENDBRANCH  27  43
ENDBRANCH   2  25
TORSDOF 14
ENDMDL
MODEL 8
REMARK VINA RESULT:      -7.7      2.266      7.159
REMARK  14 active torsions:
REMARK  status: ('A' for Active; 'I' for Inactive)
REMARK    1  A    between atoms: O_1  and  C_10 
REMARK    2  A    between atoms: O_1  and  C_23 
REMARK    3  A    between atoms: O_3  and  C_34 
REMARK    4  A    between atoms: N_7  and  C_11 
REMARK    5  A    between atoms: N_7  and  C_12 
REMARK    6  A    between atoms: N_9  and  C_36 
REMARK    7  A    between atoms: C_10  and  C_11 
REMARK    8  A    between atoms: C_12  and  C_13 
REMARK    9  A    between atoms: C_13  and  C_14 
REMARK   10  A    between atoms: C_14  and  C_20 
REMARK   11  A    between atoms: C_14  and  C_21 
REMARK   12  A    between atoms: C_15  and  C_25 
REMARK   13  A    between atoms: C_18  and  C_23 
REMARK   14  A    between atoms: C_22  and  C_34 
ROOT
HETATM    1  O   UNK N   1      25.239  15.171   1.131  0.00  0.00    -0.259 OA
HETATM    2  C   UNK N   1      25.408  15.214   2.340  0.00  0.00     0.293 C 
ENDROOT
BRANCH   2   3
HETATM    3  O   UNK N   1      24.466  14.653   3.147  0.00  0.00    -0.305 OA
BRANCH   3   4
HETATM    4  C   UNK N   1      24.619  13.483   3.896  0.00  0.00     0.090 C 
HETATM    5  C   UNK N   1      24.904  12.323   2.965  0.00  0.00     0.048 C 
HETATM    6  C   UNK N   1      25.726  13.516   4.942  0.00  0.00     0.048 C 
BRANCH   4   7
HETATM    7  C   UNK N   1      23.301  13.204   4.617  0.00  0.00     0.309 C 
BRANCH   7   8
HETATM    8  N   UNK N   1      23.136  11.772   4.891  0.00  0.00     0.087 N 
HETATM    9  C   UNK N   1      21.835  11.351   4.407  0.00  0.00     0.310 C 
BRANCH   8  10
HETATM   10  C   UNK N   1      23.150  11.518   6.326  0.00  0.00     0.273 C 
BRANCH  10  11
HETATM   11  C   UNK N   1      21.947  12.138   7.030  0.00  0.00     0.044 C 
BRANCH  11  12
HETATM   12  C   UNK N   1      22.372  13.334   7.880  0.00  0.00     0.053 C 
BRANCH  12  13
HETATM   13  C   UNK N   1      21.438  14.514   7.708  0.00  0.00    -0.050 A 
HETATM   14  C   UNK N   1      20.675  14.598   6.532  0.00  0.00     0.008 A 
HETATM   15  C   UNK N   1      19.726  15.608   6.368  0.00  0.00     0.001 A 
HETATM   16  C   UNK N   1      19.529  16.546   7.382  0.00  0.00     0.000 A 
HETATM   17  C   UNK N   1      20.285  16.476   8.556  0.00  0.00     0.001 A 
HETATM   18  C   UNK N   1      21.231  15.458   8.723  0.00  0.00     0.008 A 
ENDBRANCH  12  13
BRANCH  12  19
HETATM   19  C   UNK N   1      22.849  12.888   9.238  0.00  0.00    -0.050 A 
HETATM   20  C   UNK N   1      21.974  12.434  10.234  0.00  0.00     0.008 A 
HETATM   21  C   UNK N   1      22.477  11.963  11.452  0.00  0.00     0.001 A 
HETATM   22  C   UNK N   1      23.857  11.942  11.681  0.00  0.00     0.000 A 
HETATM   23  C   UNK N   1      24.735  12.397  10.694  0.00  0.00     0.001 A 
HETATM   24  C   UNK N   1      24.231  12.861   9.477  0.00  0.00     0.008 A 
ENDBRANCH  12  19
ENDBRANCH  11  12
ENDBRANCH  10  11
ENDBRANCH   8  10
ENDBRANCH   7   8
ENDBRANCH   4   7
ENDBRANCH   3   4
ENDBRANCH   2   3
BRANCH   2  25
HETATM   25  C   UNK N   1      26.588  15.950   2.870  0.00  0.00     0.052 C 
HETATM   26  C   UNK N   1      26.420  17.263   3.630  0.00  0.00     0.101 C 
HETATM   27  C   UNK N   1      27.649  17.720   4.435  0.00  0.00     0.052 C 
HETATM   28  C   UNK N   1      28.855  17.160   4.160  0.00  0.00     0.018 C 
HETATM   29  N   UNK N   1      28.964  16.107   3.220  0.00  0.00    -0.362 N 
HETATM   30  C   UNK N   1      30.119  17.630   4.813  0.00  0.00     0.069 C 
HETATM   31  C   UNK N   1      27.832  15.445   2.688  0.00  0.00     0.018 C 
HETATM   32  H   UNK N   1      29.860  15.825   2.925  0.00  0.00     0.165 HD
HETATM   33  C   UNK N   1      28.064  14.190   1.906  0.00  0.00     0.069 C 
BRANCH  26  34
HETATM   34  C   UNK N   1      25.026  17.667   4.089  0.00  0.00    -0.042 A 
HETATM   35  C   UNK N   1      24.351  18.735   3.481  0.00  0.00     0.044 A 
HETATM   36  C   UNK N   1      23.037  19.063   3.844  0.00  0.00     0.103 A 
HETATM   37  C   UNK N   1      22.409  18.342   4.868  0.00  0.00     0.036 A 
HETATM   38  C   UNK N   1      23.080  17.294   5.500  0.00  0.00     0.003 A 
HETATM   39  C   UNK N   1      24.371  16.944   5.093  0.00  0.00     0.008 A 
BRANCH  36  40
HETATM   40  N   UNK N   1      22.329  20.076   3.140  0.00  0.00    -0.116 N 
HETATM   41  O   UNK N   1      22.941  20.797   2.224  0.00  0.00    -0.532 OA
HETATM   42  O   UNK N   1      21.203  20.339   3.436  0.00  0.00    -0.532 OA
ENDBRANCH  36  40
ENDBRANCH  26  34
BRANCH  27  43
HETATM   43  C   UNK N   1      27.526  18.769   5.501  0.00  0.00     0.291 C 
HETATM   44  O   UNK N   1      27.526  18.437   6.675  0.00  0.00    -0.260 OA
BRANCH  43  45
HETATM   45  O   UNK N   1      27.516  20.096   5.199  0.00  0.00    -0.323 OA
HETATM   46  C   UNK N   1      27.539  21.087   6.159  0.00  0.00     0.213 C 
ENDBRANCH  43  45
ENDBRANCH  27  43
ENDBRANCH   2  25
TORSDOF 14
ENDMDL
MODEL 9
REMARK VINA RESULT:      -7.7      1.251      3.141
REMARK  14 active torsions:
REMARK  status: ('A' for Active; 'I' for Inactive)
REMARK    1  A    between atoms: O_1  and  C_10 
REMARK    2  A    between atoms: O_1  and  C_23 
REMARK    3  A    between atoms: O_3  and  C_34 
REMARK    4  A    between atoms: N_7  and  C_11 
REMARK    5  A    between atoms: N_7  and  C_12 
REMARK    6  A    between atoms: N_9  and  C_36 
REMARK    7  A    between atoms: C_10  and  C_11 
REMARK    8  A    between atoms: C_12  and  C_13 
REMARK    9  A    between atoms: C_13  and  C_14 
REMARK   10  A    between atoms: C_14  and  C_20 
REMARK   11  A    between atoms: C_14  and  C_21 
REMARK   12  A    between atoms: C_15  and  C_25 
REMARK   13  A    between atoms: C_18  and  C_23 
REMARK   14  A    between atoms: C_22  and  C_34 
ROOT
HETATM    1  O   UNK N   1      22.510  13.783   3.236  0.00  0.00    -0.259 OA
HETATM    2  C   UNK N   1      23.034  14.639   3.931  0.00  0.00     0.293 C 
ENDROOT
BRANCH   2   3
HETATM    3  O   UNK N   1      24.034  15.390   3.394  0.00  0.00    -0.305 OA
BRANCH   3   4
HETATM    4  C   UNK N   1      25.310  14.935   3.051  0.00  0.00     0.090 C 
HETATM    5  C   UNK N   1      25.970  14.322   4.269  0.00  0.00     0.048 C 
HETATM    6  C   UNK N   1      25.356  13.900   1.934  0.00  0.00     0.048 C 
BRANCH   4   7
HETATM    7  C   UNK N   1      26.143  16.137   2.611  0.00  0.00     0.309 C 
BRANCH   7   8
HETATM    8  N   UNK N   1      26.815  16.767   3.753  0.00  0.00     0.087 N 
HETATM    9  C   UNK N   1      26.223  18.072   3.981  0.00  0.00     0.310 C 
BRANCH   8  10
HETATM   10  C   UNK N   1      28.225  16.993   3.460  0.00  0.00     0.273 C 
BRANCH  10  11
HETATM   11  C   UNK N   1      28.899  17.858   4.519  0.00  0.00     0.044 C 
BRANCH  11  12
HETATM   12  C   UNK N   1      29.645  16.992   5.534  0.00  0.00     0.053 C 
BRANCH  12  13
HETATM   13  C   UNK N   1      30.997  16.546   5.016  0.00  0.00    -0.050 A 
HETATM   14  C   UNK N   1      31.904  17.527   4.582  0.00  0.00     0.008 A 
HETATM   15  C   UNK N   1      33.198  17.179   4.193  0.00  0.00     0.001 A 
HETATM   16  C   UNK N   1      33.600  15.843   4.234  0.00  0.00     0.000 A 
HETATM   17  C   UNK N   1      32.705  14.857   4.661  0.00  0.00     0.001 A 
HETATM   18  C   UNK N   1      31.409  15.208   5.059  0.00  0.00     0.008 A 
ENDBRANCH  12  13
BRANCH  12  19
HETATM   19  C   UNK N   1      29.464  17.523   6.932  0.00  0.00    -0.050 A 
HETATM   20  C   UNK N   1      28.308  18.205   7.337  0.00  0.00     0.008 A 
HETATM   21  C   UNK N   1      28.162  18.613   8.668  0.00  0.00     0.001 A 
HETATM   22  C   UNK N   1      29.168  18.343   9.601  0.00  0.00     0.000 A 
HETATM   23  C   UNK N   1      30.324  17.667   9.203  0.00  0.00     0.001 A 
HETATM   24  C   UNK N   1      30.466  17.255   7.877  0.00  0.00     0.008 A 
ENDBRANCH  12  19
ENDBRANCH  11  12
ENDBRANCH  10  11
ENDBRANCH   8  10
ENDBRANCH   7   8
ENDBRANCH   4   7
ENDBRANCH   3   4
ENDBRANCH   2   3
BRANCH   2  25
HETATM   25  C   UNK N   1      22.612  14.759   5.354  0.00  0.00     0.052 C 
HETATM   26  C   UNK N   1      21.905  16.013   5.861  0.00  0.00     0.101 C 
HETATM   27  C   UNK N   1      21.199  15.867   7.220  0.00  0.00     0.052 C 
HETATM   28  C   UNK N   1      21.520  14.813   8.012  0.00  0.00     0.018 C 
HETATM   29  N   UNK N   1      22.415  13.814   7.558  0.00  0.00    -0.362 N 
HETATM   30  C   UNK N   1      20.967  14.661   9.397  0.00  0.00     0.069 C 
HETATM   31  C   UNK N   1      22.846  13.738   6.212  0.00  0.00     0.018 C 
HETATM   32  H   UNK N   1      22.750  13.149   8.202  0.00  0.00     0.165 HD
HETATM   33  C   UNK N   1      23.581  12.505   5.787  0.00  0.00     0.069 C 
BRANCH  26  34
HETATM   34  C   UNK N   1      21.382  17.018   4.843  0.00  0.00    -0.042 A 
HETATM   35  C   UNK N   1      22.144  18.137   4.481  0.00  0.00     0.044 A 
HETATM   36  C   UNK N   1      21.704  19.023   3.488  0.00  0.00     0.103 A 
HETATM   37  C   UNK N   1      20.456  18.812   2.886  0.00  0.00     0.036 A 
HETATM   38  C   UNK N   1      19.676  17.717   3.257  0.00  0.00     0.003 A 
HETATM   39  C   UNK N   1      20.150  16.812   4.212  0.00  0.00     0.008 A 
BRANCH  36  40
HETATM   40  N   UNK N   1      22.540  20.089   3.055  0.00  0.00    -0.116 N 
HETATM   41  O   UNK N   1      22.191  20.827   2.023  0.00  0.00    -0.532 OA
HETATM   42  O   UNK N   1      23.604  20.267   3.568  0.00  0.00    -0.532 OA
ENDBRANCH  36  40
ENDBRANCH  26  34
BRANCH  27  43
HETATM   43  C   UNK N   1      20.177  16.870   7.669  0.00  0.00     0.291 C 
HETATM   44  O   UNK N   1      20.526  18.009   7.935  0.00  0.00    -0.260 OA
BRANCH  43  45
HETATM   45  O   UNK N   1      18.849  16.575   7.691  0.00  0.00    -0.323 OA
HETATM   46  C   UNK N   1      18.000  16.997   8.693  0.00  0.00     0.213 C 
ENDBRANCH  43  45
ENDBRANCH  27  43
ENDBRANCH   2  25
TORSDOF 14
ENDMDL
