MODEL 1
REMARK VINA RESULT:      -6.6      0.000      0.000
REMARK  10 active torsions:
REMARK  status: ('A' for Active; 'I' for Inactive)
REMARK    1  A    between atoms: O_1  and  C_12 
REMARK    2  A    between atoms: O_1  and  C_17 
REMARK    3  A    between atoms: O_2  and  C_13 
REMARK    4  A    between atoms: O_2  and  C_19 
REMARK    5  A    between atoms: O_3  and  C_21 
REMARK    6  A    between atoms: O_4  and  C_22 
REMARK    7  A    between atoms: N_5  and  C_15 
REMARK    8  A    between atoms: N_5  and  C_18 
REMARK    9  A    between atoms: C_17  and  C_21 
REMARK   10  A    between atoms: C_19  and  C_22 
ROOT
HETATM    1  C   UNK N   1      28.478  17.626   4.277  0.00  0.00     0.035 A 
HETATM    2  C   UNK N   1      27.612  18.673   3.966  0.00  0.00     0.050 A 
HETATM    3  C   UNK N   1      28.010  16.308   4.278  0.00  0.00     0.029 A 
HETATM    4  C   UNK N   1      26.283  18.436   3.648  0.00  0.00     0.019 A 
HETATM    5  C   UNK N   1      26.660  16.063   3.975  0.00  0.00     0.004 A 
HETATM    6  C   UNK N   1      25.799  17.126   3.652  0.00  0.00     0.021 A 
HETATM    7  C   UNK N   1      25.451  19.549   3.281  0.00  0.00    -0.078 C 
HETATM    8  C   UNK N   1      24.801  20.520   2.981  0.00  0.00     0.018 C 
ENDROOT
BRANCH   1   9
HETATM    9  N   UNK N   1      29.818  17.988   4.493  0.00  0.00    -0.342 N 
HETATM   10  H   UNK N   1      29.898  18.888   4.883  0.00  0.00     0.167 HD
BRANCH   9  11
HETATM   11  C   UNK N   1      31.084  17.384   4.293  0.00  0.00     0.119 A 
HETATM   12  N   UNK N   1      31.630  17.156   3.065  0.00  0.00    -0.338 N 
HETATM   13  C   UNK N   1      32.842  16.527   2.964  0.00  0.00     0.182 A 
ATOM     14  HN  UNK N   1      31.137  17.455   2.224  1.00  0.00     0.168 HD
HETATM   15  N   UNK N   1      33.503  16.101   4.085  0.00  0.00    -0.351 N 
HETATM   16  C   UNK N   1      32.974  16.311   5.322  0.00  0.00     0.050 A 
ATOM     17  HN  UNK N   1      34.398  15.621   3.993  1.00  0.00     0.166 HD
HETATM   18  C   UNK N   1      31.758  16.979   5.435  0.00  0.00     0.038 A 
HETATM   19  C   UNK N   1      33.603  15.843   6.488  0.00  0.00     0.070 A 
HETATM   20  C   UNK N   1      31.189  17.212   6.685  0.00  0.00     0.057 A 
HETATM   21  C   UNK N   1      31.782  16.759   7.848  0.00  0.00     0.103 A 
HETATM   22  C   UNK N   1      33.008  16.056   7.764  0.00  0.00     0.104 A 
BRANCH  21  23
HETATM   23  O   UNK N   1      31.111  16.981   9.006  0.00  0.00    -0.346 OA
BRANCH  23  24
HETATM   24  C   UNK N   1      30.105  17.902   9.159  0.00  0.00     0.201 C 
BRANCH  24  25
HETATM   25  C   UNK N   1      28.862  17.229   9.695  0.00  0.00     0.193 C 
BRANCH  25  26
HETATM   26  O   UNK N   1      27.750  18.003   9.363  0.00  0.00    -0.394 OA
HETATM   27  C   UNK N   1      28.143  18.750   8.253  0.00  0.00     0.201 C 
ENDBRANCH  25  26
ENDBRANCH  24  25
ENDBRANCH  23  24
ENDBRANCH  21  23
BRANCH  22  28
HETATM   28  O   UNK N   1      33.589  15.579   8.889  0.00  0.00    -0.346 OA
BRANCH  28  29
HETATM   29  C   UNK N   1      34.932  15.716   9.110  0.00  0.00     0.201 C 
BRANCH  29  30
HETATM   30  C   UNK N   1      35.238  16.800  10.103  0.00  0.00     0.193 C 
BRANCH  30  31
HETATM   31  O   UNK N   1      36.377  16.388  10.786  0.00  0.00    -0.394 OA
HETATM   32  C   UNK N   1      36.640  15.108  10.306  0.00  0.00     0.201 C 
ENDBRANCH  30  31
ENDBRANCH  29  30
ENDBRANCH  28  29
ENDBRANCH  22  28
ENDBRANCH   9  11
ENDBRANCH   1   9
TORSDOF 10
ENDMDL
MODEL 2
REMARK VINA RESULT:      -6.4      2.488      4.090
REMARK  10 active torsions:
REMARK  status: ('A' for Active; 'I' for Inactive)
REMARK    1  A    between atoms: O_1  and  C_12 
REMARK    2  A    between atoms: O_1  and  C_17 
REMARK    3  A    between atoms: O_2  and  C_13 
REMARK    4  A    between atoms: O_2  and  C_19 
REMARK    5  A    between atoms: O_3  and  C_21 
REMARK    6  A    between atoms: O_4  and  C_22 
REMARK    7  A    between atoms: N_5  and  C_15 
REMARK    8  A    between atoms: N_5  and  C_18 
REMARK    9  A    between atoms: C_17  and  C_21 
REMARK   10  A    between atoms: C_19  and  C_22 
ROOT
HETATM    1  C   UNK N   1      26.628  16.900   5.575  0.00  0.00     0.035 A 
HETATM    2  C   UNK N   1      26.510  18.065   4.817  0.00  0.00     0.050 A 
HETATM    3  C   UNK N   1      25.587  15.967   5.588  0.00  0.00     0.029 A 
HETATM    4  C   UNK N   1      25.375  18.322   4.065  0.00  0.00     0.019 A 
HETATM    5  C   UNK N   1      24.425  16.230   4.841  0.00  0.00     0.004 A 
HETATM    6  C   UNK N   1      24.323  17.402   4.073  0.00  0.00     0.021 A 
HETATM    7  C   UNK N   1      25.333  19.512   3.260  0.00  0.00    -0.078 C 
HETATM    8  C   UNK N   1      25.353  20.525   2.605  0.00  0.00     0.018 C 
ENDROOT
BRANCH   1   9
HETATM    9  N   UNK N   1      27.862  16.716   6.221  0.00  0.00    -0.342 N 
HETATM   10  H   UNK N   1      28.470  16.147   5.697  0.00  0.00     0.167 HD
BRANCH   9  11
HETATM   11  C   UNK N   1      28.452  17.141   7.437  0.00  0.00     0.119 A 
HETATM   12  N   UNK N   1      27.742  17.438   8.561  0.00  0.00    -0.338 N 
HETATM   13  C   UNK N   1      28.392  17.884   9.681  0.00  0.00     0.182 A 
ATOM     14  HN  UNK N   1      26.728  17.327   8.569  1.00  0.00     0.168 HD
HETATM   15  N   UNK N   1      29.750  18.059   9.675  0.00  0.00    -0.351 N 
HETATM   16  C   UNK N   1      30.480  17.776   8.561  0.00  0.00     0.050 A 
ATOM     17  HN  UNK N   1      30.219  18.405  10.512  1.00  0.00     0.166 HD
HETATM   18  C   UNK N   1      29.830  17.291   7.430  0.00  0.00     0.038 A 
HETATM   19  C   UNK N   1      31.867  17.991   8.508  0.00  0.00     0.070 A 
HETATM   20  C   UNK N   1      30.547  16.990   6.274  0.00  0.00     0.057 A 
HETATM   21  C   UNK N   1      31.910  17.196   6.190  0.00  0.00     0.103 A 
HETATM   22  C   UNK N   1      32.596  17.711   7.317  0.00  0.00     0.104 A 
BRANCH  21  23
HETATM   23  O   UNK N   1      32.498  16.933   4.997  0.00  0.00    -0.346 OA
BRANCH  23  24
HETATM   24  C   UNK N   1      32.554  15.693   4.411  0.00  0.00     0.201 C 
BRANCH  24  25
HETATM   25  C   UNK N   1      32.157  15.787   2.956  0.00  0.00     0.193 C 
BRANCH  25  26
HETATM   26  O   UNK N   1      31.176  16.769   2.818  0.00  0.00    -0.394 OA
HETATM   27  C   UNK N   1      29.967  16.076   2.785  0.00  0.00     0.201 C 
ENDBRANCH  25  26
ENDBRANCH  24  25
ENDBRANCH  23  24
ENDBRANCH  21  23
BRANCH  22  28
HETATM   28  O   UNK N   1      33.926  17.947   7.245  0.00  0.00    -0.346 OA
BRANCH  28  29
HETATM   29  C   UNK N   1      34.669  18.185   8.369  0.00  0.00     0.201 C 
BRANCH  29  30
HETATM   30  C   UNK N   1      34.971  16.926   9.129  0.00  0.00     0.193 C 
BRANCH  30  31
HETATM   31  O   UNK N   1      35.653  17.321  10.274  0.00  0.00    -0.394 OA
HETATM   32  C   UNK N   1      35.375  16.336  11.217  0.00  0.00     0.201 C 
ENDBRANCH  30  31
ENDBRANCH  29  30
ENDBRANCH  28  29
ENDBRANCH  22  28
ENDBRANCH   9  11
ENDBRANCH   1   9
TORSDOF 10
ENDMDL
MODEL 3
REMARK VINA RESULT:      -6.4      2.693      4.477
REMARK  10 active torsions:
REMARK  status: ('A' for Active; 'I' for Inactive)
REMARK    1  A    between atoms: O_1  and  C_12 
REMARK    2  A    between atoms: O_1  and  C_17 
REMARK    3  A    between atoms: O_2  and  C_13 
REMARK    4  A    between atoms: O_2  and  C_19 
REMARK    5  A    between atoms: O_3  and  C_21 
REMARK    6  A    between atoms: O_4  and  C_22 
REMARK    7  A    between atoms: N_5  and  C_15 
REMARK    8  A    between atoms: N_5  and  C_18 
REMARK    9  A    between atoms: C_17  and  C_21 
REMARK   10  A    between atoms: C_19  and  C_22 
ROOT
HETATM    1  C   UNK N   1      27.107  18.381   5.060  0.00  0.00     0.035 A 
HETATM    2  C   UNK N   1      25.738  18.165   4.912  0.00  0.00     0.050 A 
HETATM    3  C   UNK N   1      27.713  19.478   4.439  0.00  0.00     0.029 A 
HETATM    4  C   UNK N   1      24.951  19.023   4.160  0.00  0.00     0.019 A 
HETATM    5  C   UNK N   1      26.924  20.342   3.660  0.00  0.00     0.004 A 
HETATM    6  C   UNK N   1      25.543  20.120   3.527  0.00  0.00     0.021 A 
HETATM    7  C   UNK N   1      23.536  18.782   4.089  0.00  0.00    -0.078 C 
HETATM    8  C   UNK N   1      22.356  18.531   4.066  0.00  0.00     0.018 C 
ENDROOT
BRANCH   1   9
HETATM    9  N   UNK N   1      27.775  17.492   5.918  0.00  0.00    -0.342 N 
HETATM   10  H   UNK N   1      27.814  16.581   5.547  0.00  0.00     0.167 HD
BRANCH   9  11
HETATM   11  C   UNK N   1      28.409  17.575   7.183  0.00  0.00     0.119 A 
HETATM   12  N   UNK N   1      27.743  17.791   8.352  0.00  0.00    -0.338 N 
HETATM   13  C   UNK N   1      28.441  17.899   9.525  0.00  0.00     0.182 A 
ATOM     14  HN  UNK N   1      26.725  17.870   8.353  1.00  0.00     0.168 HD
HETATM   15  N   UNK N   1      29.808  17.818   9.532  0.00  0.00    -0.351 N 
HETATM   16  C   UNK N   1      30.496  17.610   8.375  0.00  0.00     0.050 A 
ATOM     17  HN  UNK N   1      30.315  17.915  10.412  1.00  0.00     0.166 HD
HETATM   18  C   UNK N   1      29.791  17.466   7.184  0.00  0.00     0.038 A 
HETATM   19  C   UNK N   1      31.900  17.571   8.344  0.00  0.00     0.070 A 
HETATM   20  C   UNK N   1      30.463  17.250   5.983  0.00  0.00     0.057 A 
HETATM   21  C   UNK N   1      31.843  17.212   5.920  0.00  0.00     0.103 A 
HETATM   22  C   UNK N   1      32.588  17.379   7.112  0.00  0.00     0.104 A 
BRANCH  21  23
HETATM   23  O   UNK N   1      32.397  17.063   4.691  0.00  0.00    -0.346 OA
BRANCH  23  24
HETATM   24  C   UNK N   1      31.976  16.157   3.750  0.00  0.00     0.201 C 
BRANCH  24  25
HETATM   25  C   UNK N   1      33.027  15.088   3.553  0.00  0.00     0.193 C 
BRANCH  25  26
HETATM   26  O   UNK N   1      32.834  14.085   4.503  0.00  0.00    -0.394 OA
HETATM   27  C   UNK N   1      31.505  13.690   4.353  0.00  0.00     0.201 C 
ENDBRANCH  25  26
ENDBRANCH  24  25
ENDBRANCH  23  24
ENDBRANCH  21  23
BRANCH  22  28
HETATM   28  O   UNK N   1      33.940  17.374   7.066  0.00  0.00    -0.346 OA
BRANCH  28  29
HETATM   29  C   UNK N   1      34.676  16.508   7.829  0.00  0.00     0.201 C 
BRANCH  29  30
HETATM   30  C   UNK N   1      34.955  15.217   7.115  0.00  0.00     0.193 C 
BRANCH  30  31
HETATM   31  O   UNK N   1      35.548  15.566   5.906  0.00  0.00    -0.394 OA
HETATM   32  C   UNK N   1      36.453  14.543   5.642  0.00  0.00     0.201 C 
ENDBRANCH  30  31
ENDBRANCH  29  30
ENDBRANCH  28  29
ENDBRANCH  22  28
ENDBRANCH   9  11
ENDBRANCH   1   9
TORSDOF 10
ENDMDL
MODEL 4
REMARK VINA RESULT:      -6.3     11.351     14.298
REMARK  10 active torsions:
REMARK  status: ('A' for Active; 'I' for Inactive)
REMARK    1  A    between atoms: O_1  and  C_12 
REMARK    2  A    between atoms: O_1  and  C_17 
REMARK    3  A    between atoms: O_2  and  C_13 
REMARK    4  A    between atoms: O_2  and  C_19 
REMARK    5  A    between atoms: O_3  and  C_21 
REMARK    6  A    between atoms: O_4  and  C_22 
REMARK    7  A    between atoms: N_5  and  C_15 
REMARK    8  A    between atoms: N_5  and  C_18 
REMARK    9  A    between atoms: C_17  and  C_21 
REMARK   10  A    between atoms: C_19  and  C_22 
ROOT
HETATM    1  C   UNK N   1      26.715  26.334  -4.650  0.00  0.00     0.035 A 
HETATM    2  C   UNK N   1      27.519  27.026  -5.554  0.00  0.00     0.050 A 
HETATM    3  C   UNK N   1      25.879  27.038  -3.776  0.00  0.00     0.029 A 
HETATM    4  C   UNK N   1      27.507  28.411  -5.612  0.00  0.00     0.019 A 
HETATM    5  C   UNK N   1      25.877  28.442  -3.818  0.00  0.00     0.004 A 
HETATM    6  C   UNK N   1      26.684  29.129  -4.741  0.00  0.00     0.021 A 
HETATM    7  C   UNK N   1      28.315  29.068  -6.603  0.00  0.00    -0.078 C 
HETATM    8  C   UNK N   1      29.013  29.565  -7.453  0.00  0.00     0.018 C 
ENDROOT
BRANCH   1   9
HETATM    9  N   UNK N   1      26.751  24.933  -4.750  0.00  0.00    -0.342 N 
HETATM   10  H   UNK N   1      26.873  24.505  -3.873  0.00  0.00     0.167 HD
BRANCH   9  11
HETATM   11  C   UNK N   1      26.656  23.981  -5.795  0.00  0.00     0.119 A 
HETATM   12  N   UNK N   1      25.498  23.689  -6.452  0.00  0.00    -0.338 N 
HETATM   13  C   UNK N   1      25.489  22.723  -7.422  0.00  0.00     0.182 A 
ATOM     14  HN  UNK N   1      24.640  24.191  -6.223  1.00  0.00     0.168 HD
HETATM   15  N   UNK N   1      26.630  22.026  -7.723  0.00  0.00    -0.351 N 
HETATM   16  C   UNK N   1      27.797  22.296  -7.074  0.00  0.00     0.050 A 
ATOM     17  HN  UNK N   1      26.604  21.299  -8.438  1.00  0.00     0.166 HD
HETATM   18  C   UNK N   1      27.820  23.299  -6.111  0.00  0.00     0.038 A 
HETATM   19  C   UNK N   1      28.970  21.566  -7.325  0.00  0.00     0.070 A 
HETATM   20  C   UNK N   1      28.998  23.601  -5.430  0.00  0.00     0.057 A 
HETATM   21  C   UNK N   1      30.166  22.898  -5.652  0.00  0.00     0.103 A 
HETATM   22  C   UNK N   1      30.167  21.855  -6.609  0.00  0.00     0.104 A 
BRANCH  21  23
HETATM   23  O   UNK N   1      31.236  23.228  -4.887  0.00  0.00    -0.346 OA
BRANCH  23  24
HETATM   24  C   UNK N   1      31.159  23.721  -3.608  0.00  0.00     0.201 C 
BRANCH  24  25
HETATM   25  C   UNK N   1      31.088  22.582  -2.617  0.00  0.00     0.193 C 
BRANCH  25  26
HETATM   26  O   UNK N   1      30.398  23.011  -1.483  0.00  0.00    -0.394 OA
HETATM   27  C   UNK N   1      29.055  23.026  -1.858  0.00  0.00     0.201 C 
ENDBRANCH  25  26
ENDBRANCH  24  25
ENDBRANCH  23  24
ENDBRANCH  21  23
BRANCH  22  28
HETATM   28  O   UNK N   1      31.293  21.135  -6.819  0.00  0.00    -0.346 OA
BRANCH  28  29
HETATM   29  C   UNK N   1      31.596  20.045  -6.050  0.00  0.00     0.201 C 
BRANCH  29  30
HETATM   30  C   UNK N   1      33.042  20.018  -5.647  0.00  0.00     0.193 C 
BRANCH  30  31
HETATM   31  O   UNK N   1      33.059  20.156  -4.263  0.00  0.00    -0.394 OA
HETATM   32  C   UNK N   1      34.127  21.009  -4.001  0.00  0.00     0.201 C 
ENDBRANCH  30  31
ENDBRANCH  29  30
ENDBRANCH  28  29
ENDBRANCH  22  28
ENDBRANCH   9  11
ENDBRANCH   1   9
TORSDOF 10
ENDMDL
MODEL 5
REMARK VINA RESULT:      -6.3      2.836      4.687
REMARK  10 active torsions:
REMARK  status: ('A' for Active; 'I' for Inactive)
REMARK    1  A    between atoms: O_1  and  C_12 
REMARK    2  A    between atoms: O_1  and  C_17 
REMARK    3  A    between atoms: O_2  and  C_13 
REMARK    4  A    between atoms: O_2  and  C_19 
REMARK    5  A    between atoms: O_3  and  C_21 
REMARK    6  A    between atoms: O_4  and  C_22 
REMARK    7  A    between atoms: N_5  and  C_15 
REMARK    8  A    between atoms: N_5  and  C_18 
REMARK    9  A    between atoms: C_17  and  C_21 
REMARK   10  A    between atoms: C_19  and  C_22 
ROOT
HETATM    1  C   UNK N   1      26.269  18.733   4.988  0.00  0.00     0.035 A 
HETATM    2  C   UNK N   1      24.904  18.679   4.708  0.00  0.00     0.050 A 
HETATM    3  C   UNK N   1      27.092  19.623   4.289  0.00  0.00     0.029 A 
HETATM    4  C   UNK N   1      24.335  19.498   3.745  0.00  0.00     0.019 A 
HETATM    5  C   UNK N   1      26.523  20.443   3.300  0.00  0.00     0.004 A 
HETATM    6  C   UNK N   1      25.145  20.387   3.033  0.00  0.00     0.021 A 
HETATM    7  C   UNK N   1      22.914  19.438   3.538  0.00  0.00    -0.078 C 
HETATM    8  C   UNK N   1      21.718  19.344   3.408  0.00  0.00     0.018 C 
ENDROOT
BRANCH   1   9
HETATM    9  N   UNK N   1      26.707  17.917   6.045  0.00  0.00    -0.342 N 
HETATM   10  H   UNK N   1      26.118  17.141   6.178  0.00  0.00     0.167 HD
BRANCH   9  11
HETATM   11  C   UNK N   1      27.783  17.930   6.966  0.00  0.00     0.119 A 
HETATM   12  N   UNK N   1      27.785  18.655   8.120  0.00  0.00    -0.338 N 
HETATM   13  C   UNK N   1      28.887  18.642   8.933  0.00  0.00     0.182 A 
ATOM     14  HN  UNK N   1      26.966  19.206   8.378  1.00  0.00     0.168 HD
HETATM   15  N   UNK N   1      30.001  17.925   8.585  0.00  0.00    -0.351 N 
HETATM   16  C   UNK N   1      30.025  17.198   7.433  0.00  0.00     0.050 A 
ATOM     17  HN  UNK N   1      30.820  17.935   9.194  1.00  0.00     0.166 HD
HETATM   18  C   UNK N   1      28.896  17.181   6.619  0.00  0.00     0.038 A 
HETATM   19  C   UNK N   1      31.169  16.492   7.025  0.00  0.00     0.070 A 
HETATM   20  C   UNK N   1      28.887  16.446   5.435  0.00  0.00     0.057 A 
HETATM   21  C   UNK N   1      29.998  15.746   5.006  0.00  0.00     0.103 A 
HETATM   22  C   UNK N   1      31.169  15.765   5.801  0.00  0.00     0.104 A 
BRANCH  21  23
HETATM   23  O   UNK N   1      29.903  15.121   3.806  0.00  0.00    -0.346 OA
BRANCH  23  24
HETATM   24  C   UNK N   1      29.475  15.718   2.647  0.00  0.00     0.201 C 
BRANCH  24  25
HETATM   25  C   UNK N   1      28.451  14.844   1.960  0.00  0.00     0.193 C 
BRANCH  25  26
HETATM   26  O   UNK N   1      27.354  14.683   2.806  0.00  0.00    -0.394 OA
HETATM   27  C   UNK N   1      26.548  15.798   2.575  0.00  0.00     0.201 C 
ENDBRANCH  25  26
ENDBRANCH  24  25
ENDBRANCH  23  24
ENDBRANCH  21  23
BRANCH  22  28
HETATM   28  O   UNK N   1      32.276  15.109   5.383  0.00  0.00    -0.346 OA
BRANCH  28  29
HETATM   29  C   UNK N   1      33.311  15.772   4.781  0.00  0.00     0.201 C 
BRANCH  29  30
HETATM   30  C   UNK N   1      34.618  15.545   5.486  0.00  0.00     0.193 C 
BRANCH  30  31
HETATM   31  O   UNK N   1      34.760  16.598   6.384  0.00  0.00    -0.394 OA
HETATM   32  C   UNK N   1      34.772  15.999   7.640  0.00  0.00     0.201 C 
ENDBRANCH  30  31
ENDBRANCH  29  30
ENDBRANCH  28  29
ENDBRANCH  22  28
ENDBRANCH   9  11
ENDBRANCH   1   9
TORSDOF 10
ENDMDL
MODEL 6
REMARK VINA RESULT:      -6.3      5.017     10.017
REMARK  10 active torsions:
REMARK  status: ('A' for Active; 'I' for Inactive)
REMARK    1  A    between atoms: O_1  and  C_12 
REMARK    2  A    between atoms: O_1  and  C_17 
REMARK    3  A    between atoms: O_2  and  C_13 
REMARK    4  A    between atoms: O_2  and  C_19 
REMARK    5  A    between atoms: O_3  and  C_21 
REMARK    6  A    between atoms: O_4  and  C_22 
REMARK    7  A    between atoms: N_5  and  C_15 
REMARK    8  A    between atoms: N_5  and  C_18 
REMARK    9  A    between atoms: C_17  and  C_21 
REMARK   10  A    between atoms: C_19  and  C_22 
ROOT
HETATM    1  C   UNK N   1      35.096  12.354  13.057  0.00  0.00     0.035 A 
HETATM    2  C   UNK N   1      35.289  12.941  14.307  0.00  0.00     0.050 A 
HETATM    3  C   UNK N   1      34.370  11.163  12.949  0.00  0.00     0.029 A 
HETATM    4  C   UNK N   1      34.770  12.369  15.458  0.00  0.00     0.019 A 
HETATM    5  C   UNK N   1      33.857  10.569  14.114  0.00  0.00     0.004 A 
HETATM    6  C   UNK N   1      34.050  11.175  15.367  0.00  0.00     0.021 A 
HETATM    7  C   UNK N   1      34.954  13.048  16.711  0.00  0.00    -0.078 C 
HETATM    8  C   UNK N   1      35.138  13.661  17.734  0.00  0.00     0.018 C 
ENDROOT
BRANCH   1   9
HETATM    9  N   UNK N   1      35.594  13.077  11.961  0.00  0.00    -0.342 N 
HETATM   10  H   UNK N   1      36.297  12.582  11.482  0.00  0.00     0.167 HD
BRANCH   9  11
HETATM   11  C   UNK N   1      35.340  14.339  11.369  0.00  0.00     0.119 A 
HETATM   12  N   UNK N   1      35.821  15.517  11.857  0.00  0.00    -0.338 N 
HETATM   13  C   UNK N   1      35.490  16.696  11.244  0.00  0.00     0.182 A 
ATOM     14  HN  UNK N   1      36.428  15.520  12.677  1.00  0.00     0.168 HD
HETATM   15  N   UNK N   1      34.657  16.707  10.157  0.00  0.00    -0.351 N 
HETATM   16  C   UNK N   1      34.158  15.543   9.655  0.00  0.00     0.050 A 
ATOM     17  HN  UNK N   1      34.408  17.594   9.720  1.00  0.00     0.166 HD
HETATM   18  C   UNK N   1      34.517  14.338  10.253  0.00  0.00     0.038 A 
HETATM   19  C   UNK N   1      33.263  15.525   8.573  0.00  0.00     0.070 A 
HETATM   20  C   UNK N   1      34.026  13.130   9.764  0.00  0.00     0.057 A 
HETATM   21  C   UNK N   1      33.141  13.081   8.704  0.00  0.00     0.103 A 
HETATM   22  C   UNK N   1      32.739  14.292   8.091  0.00  0.00     0.104 A 
BRANCH  21  23
HETATM   23  O   UNK N   1      32.673  11.858   8.352  0.00  0.00    -0.346 OA
BRANCH  23  24
HETATM   24  C   UNK N   1      33.416  10.889   7.724  0.00  0.00     0.201 C 
BRANCH  24  25
HETATM   25  C   UNK N   1      32.747   9.542   7.874  0.00  0.00     0.193 C 
BRANCH  25  26
HETATM   26  O   UNK N   1      31.630   9.683   8.697  0.00  0.00    -0.394 OA
HETATM   27  C   UNK N   1      31.202   8.381   8.958  0.00  0.00     0.201 C 
ENDBRANCH  25  26
ENDBRANCH  24  25
ENDBRANCH  23  24
ENDBRANCH  21  23
BRANCH  22  28
HETATM   28  O   UNK N   1      31.850  14.267   7.071  0.00  0.00    -0.346 OA
BRANCH  28  29
HETATM   29  C   UNK N   1      31.239  15.409   6.631  0.00  0.00     0.201 C 
BRANCH  29  30
HETATM   30  C   UNK N   1      31.741  15.839   5.283  0.00  0.00     0.193 C 
BRANCH  30  31
HETATM   31  O   UNK N   1      31.938  17.214   5.366  0.00  0.00    -0.394 OA
HETATM   32  C   UNK N   1      32.712  17.534   4.255  0.00  0.00     0.201 C 
ENDBRANCH  30  31
ENDBRANCH  29  30
ENDBRANCH  28  29
ENDBRANCH  22  28
ENDBRANCH   9  11
ENDBRANCH   1   9
TORSDOF 10
ENDMDL
MODEL 7
REMARK VINA RESULT:      -6.3      7.375     11.020
REMARK  10 active torsions:
REMARK  status: ('A' for Active; 'I' for Inactive)
REMARK    1  A    between atoms: O_1  and  C_12 
REMARK    2  A    between atoms: O_1  and  C_17 
REMARK    3  A    between atoms: O_2  and  C_13 
REMARK    4  A    between atoms: O_2  and  C_19 
REMARK    5  A    between atoms: O_3  and  C_21 
REMARK    6  A    between atoms: O_4  and  C_22 
REMARK    7  A    between atoms: N_5  and  C_15 
REMARK    8  A    between atoms: N_5  and  C_18 
REMARK    9  A    between atoms: C_17  and  C_21 
REMARK   10  A    between atoms: C_19  and  C_22 
ROOT
HETATM    1  C   UNK N   1      23.486  13.164   8.926  0.00  0.00     0.035 A 
HETATM    2  C   UNK N   1      22.295  12.934   9.614  0.00  0.00     0.050 A 
HETATM    3  C   UNK N   1      24.710  12.834   9.518  0.00  0.00     0.029 A 
HETATM    4  C   UNK N   1      22.294  12.377  10.884  0.00  0.00     0.019 A 
HETATM    5  C   UNK N   1      24.716  12.285  10.812  0.00  0.00     0.004 A 
HETATM    6  C   UNK N   1      23.509  12.049  11.491  0.00  0.00     0.021 A 
HETATM    7  C   UNK N   1      21.033  12.112  11.521  0.00  0.00    -0.078 C 
HETATM    8  C   UNK N   1      19.947  11.912  12.007  0.00  0.00     0.018 C 
ENDROOT
BRANCH   1   9
HETATM    9  N   UNK N   1      23.350  13.649   7.615  0.00  0.00    -0.342 N 
HETATM   10  H   UNK N   1      22.501  13.366   7.205  0.00  0.00     0.167 HD
BRANCH   9  11
HETATM   11  C   UNK N   1      24.124  14.444   6.734  0.00  0.00     0.119 A 
HETATM   12  N   UNK N   1      25.402  14.145   6.369  0.00  0.00    -0.338 N 
HETATM   13  C   UNK N   1      26.092  14.993   5.544  0.00  0.00     0.182 A 
ATOM     14  HN  UNK N   1      25.844  13.289   6.707  1.00  0.00     0.168 HD
HETATM   15  N   UNK N   1      25.519  16.156   5.103  0.00  0.00    -0.351 N 
HETATM   16  C   UNK N   1      24.245  16.479   5.460  0.00  0.00     0.050 A 
ATOM     17  HN  UNK N   1      26.050  16.785   4.500  1.00  0.00     0.166 HD
HETATM   18  C   UNK N   1      23.526  15.605   6.271  0.00  0.00     0.038 A 
HETATM   19  C   UNK N   1      23.647  17.686   5.064  0.00  0.00     0.070 A 
HETATM   20  C   UNK N   1      22.221  15.905   6.654  0.00  0.00     0.057 A 
HETATM   21  C   UNK N   1      21.608  17.087   6.284  0.00  0.00     0.103 A 
HETATM   22  C   UNK N   1      22.323  18.006   5.479  0.00  0.00     0.104 A 
BRANCH  21  23
HETATM   23  O   UNK N   1      20.361  17.308   6.767  0.00  0.00    -0.346 OA
BRANCH  23  24
HETATM   24  C   UNK N   1      20.002  17.188   8.087  0.00  0.00     0.201 C 
BRANCH  24  25
HETATM   25  C   UNK N   1      18.632  16.560   8.198  0.00  0.00     0.193 C 
BRANCH  25  26
HETATM   26  O   UNK N   1      18.530  15.912   9.428  0.00  0.00    -0.394 OA
HETATM   27  C   UNK N   1      19.556  14.967   9.429  0.00  0.00     0.201 C 
ENDBRANCH  25  26
ENDBRANCH  24  25
ENDBRANCH  23  24
ENDBRANCH  21  23
BRANCH  22  28
HETATM   28  O   UNK N   1      21.751  19.181   5.130  0.00  0.00    -0.346 OA
BRANCH  28  29
HETATM   29  C   UNK N   1      21.526  19.503   3.820  0.00  0.00     0.201 C 
BRANCH  29  30
HETATM   30  C   UNK N   1      20.525  18.590   3.173  0.00  0.00     0.193 C 
BRANCH  30  31
HETATM   31  O   UNK N   1      20.312  19.094   1.895  0.00  0.00    -0.394 OA
HETATM   32  C   UNK N   1      21.041  20.278   1.849  0.00  0.00     0.201 C 
ENDBRANCH  30  31
ENDBRANCH  29  30
ENDBRANCH  28  29
ENDBRANCH  22  28
ENDBRANCH   9  11
ENDBRANCH   1   9
TORSDOF 10
ENDMDL
MODEL 8
REMARK VINA RESULT:      -6.2      8.516      9.925
REMARK  10 active torsions:
REMARK  status: ('A' for Active; 'I' for Inactive)
REMARK    1  A    between atoms: O_1  and  C_12 
REMARK    2  A    between atoms: O_1  and  C_17 
REMARK    3  A    between atoms: O_2  and  C_13 
REMARK    4  A    between atoms: O_2  and  C_19 
REMARK    5  A    between atoms: O_3  and  C_21 
REMARK    6  A    between atoms: O_4  and  C_22 
REMARK    7  A    between atoms: N_5  and  C_15 
REMARK    8  A    between atoms: N_5  and  C_18 
REMARK    9  A    between atoms: C_17  and  C_21 
REMARK   10  A    between atoms: C_19  and  C_22 
ROOT
HETATM    1  C   UNK N   1      21.180  18.263   3.592  0.00  0.00     0.035 A 
HETATM    2  C   UNK N   1      22.496  18.724   3.597  0.00  0.00     0.050 A 
HETATM    3  C   UNK N   1      20.161  19.064   3.067  0.00  0.00     0.029 A 
HETATM    4  C   UNK N   1      22.823  19.970   3.084  0.00  0.00     0.019 A 
HETATM    5  C   UNK N   1      20.484  20.335   2.561  0.00  0.00     0.004 A 
HETATM    6  C   UNK N   1      21.815  20.784   2.562  0.00  0.00     0.021 A 
HETATM    7  C   UNK N   1      24.204  20.368   3.064  0.00  0.00    -0.078 C 
HETATM    8  C   UNK N   1      25.377  20.650   3.074  0.00  0.00     0.018 C 
ENDROOT
BRANCH   1   9
HETATM    9  N   UNK N   1      20.992  16.951   4.059  0.00  0.00    -0.342 N 
HETATM   10  H   UNK N   1      20.091  16.819   4.431  0.00  0.00     0.167 HD
BRANCH   9  11
HETATM   11  C   UNK N   1      21.772  15.770   4.128  0.00  0.00     0.119 A 
HETATM   12  N   UNK N   1      22.296  15.142   3.038  0.00  0.00    -0.338 N 
HETATM   13  C   UNK N   1      23.003  13.980   3.195  0.00  0.00     0.182 A 
ATOM     14  HN  UNK N   1      22.163  15.538   2.108  1.00  0.00     0.168 HD
HETATM   15  N   UNK N   1      23.168  13.426   4.437  0.00  0.00    -0.351 N 
HETATM   16  C   UNK N   1      22.647  14.032   5.540  0.00  0.00     0.050 A 
ATOM     17  HN  UNK N   1      23.685  12.552   4.536  1.00  0.00     0.166 HD
HETATM   18  C   UNK N   1      21.956  15.231   5.392  0.00  0.00     0.038 A 
HETATM   19  C   UNK N   1      22.758  13.465   6.820  0.00  0.00     0.070 A 
HETATM   20  C   UNK N   1      21.413  15.878   6.500  0.00  0.00     0.057 A 
HETATM   21  C   UNK N   1      21.501  15.342   7.770  0.00  0.00     0.103 A 
HETATM   22  C   UNK N   1      22.177  14.111   7.948  0.00  0.00     0.104 A 
BRANCH  21  23
HETATM   23  O   UNK N   1      20.879  16.019   8.767  0.00  0.00    -0.346 OA
BRANCH  23  24
HETATM   24  C   UNK N   1      19.531  16.276   8.813  0.00  0.00     0.201 C 
BRANCH  24  25
HETATM   25  C   UNK N   1      19.291  17.751   9.036  0.00  0.00     0.193 C 
BRANCH  25  26
HETATM   26  O   UNK N   1      18.095  17.913   9.735  0.00  0.00    -0.394 OA
HETATM   27  C   UNK N   1      17.172  17.105   9.071  0.00  0.00     0.201 C 
ENDBRANCH  25  26
ENDBRANCH  24  25
ENDBRANCH  23  24
ENDBRANCH  21  23
BRANCH  22  28
HETATM   28  O   UNK N   1      22.249  13.555   9.180  0.00  0.00    -0.346 OA
BRANCH  28  29
HETATM   29  C   UNK N   1      21.270  12.719   9.642  0.00  0.00     0.201 C 
BRANCH  29  30
HETATM   30  C   UNK N   1      21.519  12.278  11.055  0.00  0.00     0.193 C 
BRANCH  30  31
HETATM   31  O   UNK N   1      22.828  12.646  11.349  0.00  0.00    -0.394 OA
HETATM   32  C   UNK N   1      23.207  11.818  12.401  0.00  0.00     0.201 C 
ENDBRANCH  30  31
ENDBRANCH  29  30
ENDBRANCH  28  29
ENDBRANCH  22  28
ENDBRANCH   9  11
ENDBRANCH   1   9
TORSDOF 10
ENDMDL
MODEL 9
REMARK VINA RESULT:      -6.1      7.165      9.540
REMARK  10 active torsions:
REMARK  status: ('A' for Active; 'I' for Inactive)
REMARK    1  A    between atoms: O_1  and  C_12 
REMARK    2  A    between atoms: O_1  and  C_17 
REMARK    3  A    between atoms: O_2  and  C_13 
REMARK    4  A    between atoms: O_2  and  C_19 
REMARK    5  A    between atoms: O_3  and  C_21 
REMARK    6  A    between atoms: O_4  and  C_22 
REMARK    7  A    between atoms: N_5  and  C_15 
REMARK    8  A    between atoms: N_5  and  C_18 
REMARK    9  A    between atoms: C_17  and  C_21 
REMARK   10  A    between atoms: C_19  and  C_22 
ROOT
HETATM    1  C   UNK N   1      21.764  18.075   4.219  0.00  0.00     0.035 A 
HETATM    2  C   UNK N   1      21.475  17.026   3.348  0.00  0.00     0.050 A 
HETATM    3  C   UNK N   1      21.126  19.311   4.061  0.00  0.00     0.029 A 
HETATM    4  C   UNK N   1      20.558  17.177   2.319  0.00  0.00     0.019 A 
HETATM    5  C   UNK N   1      20.210  19.475   3.009  0.00  0.00     0.004 A 
HETATM    6  C   UNK N   1      19.919  18.406   2.143  0.00  0.00     0.021 A 
HETATM    7  C   UNK N   1      20.260  16.043   1.488  0.00  0.00    -0.078 C 
HETATM    8  C   UNK N   1      20.049  15.059   0.822  0.00  0.00     0.018 C 
ENDROOT
BRANCH   1   9
HETATM    9  N   UNK N   1      22.642  17.770   5.272  0.00  0.00    -0.342 N 
HETATM   10  H   UNK N   1      22.528  18.381   6.035  0.00  0.00     0.167 HD
BRANCH   9  11
HETATM   11  C   UNK N   1      23.650  16.804   5.514  0.00  0.00     0.119 A 
HETATM   12  N   UNK N   1      24.899  16.860   4.971  0.00  0.00    -0.338 N 
HETATM   13  C   UNK N   1      25.798  15.859   5.225  0.00  0.00     0.182 A 
ATOM     14  HN  UNK N   1      25.163  17.647   4.378  1.00  0.00     0.168 HD
HETATM   15  N   UNK N   1      25.447  14.787   6.001  0.00  0.00    -0.351 N 
HETATM   16  C   UNK N   1      24.203  14.706   6.549  0.00  0.00     0.050 A 
ATOM     17  HN  UNK N   1      26.124  14.042   6.170  1.00  0.00     0.166 HD
HETATM   18  C   UNK N   1      23.295  15.736   6.322  0.00  0.00     0.038 A 
HETATM   19  C   UNK N   1      23.797  13.596   7.308  0.00  0.00     0.070 A 
HETATM   20  C   UNK N   1      22.014  15.685   6.868  0.00  0.00     0.057 A 
HETATM   21  C   UNK N   1      21.585  14.605   7.615  0.00  0.00     0.103 A 
HETATM   22  C   UNK N   1      22.479  13.531   7.843  0.00  0.00     0.104 A 
BRANCH  21  23
HETATM   23  O   UNK N   1      20.298  14.627   8.042  0.00  0.00    -0.346 OA
BRANCH  23  24
HETATM   24  C   UNK N   1      19.875  15.205   9.214  0.00  0.00     0.201 C 
BRANCH  24  25
HETATM   25  C   UNK N   1      19.013  16.410   8.916  0.00  0.00     0.193 C 
BRANCH  25  26
HETATM   26  O   UNK N   1      17.694  16.119   9.264  0.00  0.00    -0.394 OA
HETATM   27  C   UNK N   1      17.023  17.340   9.209  0.00  0.00     0.201 C 
ENDBRANCH  25  26
ENDBRANCH  24  25
ENDBRANCH  23  24
ENDBRANCH  21  23
BRANCH  22  28
HETATM   28  O   UNK N   1      22.068  12.451   8.547  0.00  0.00    -0.346 OA
BRANCH  28  29
HETATM   29  C   UNK N   1      22.894  11.826   9.440  0.00  0.00     0.201 C 
BRANCH  29  30
HETATM   30  C   UNK N   1      23.012  12.583  10.731  0.00  0.00     0.193 C 
BRANCH  30  31
HETATM   31  O   UNK N   1      23.776  11.785  11.577  0.00  0.00    -0.394 OA
HETATM   32  C   UNK N   1      23.133  11.849  12.809  0.00  0.00     0.201 C 
ENDBRANCH  30  31
ENDBRANCH  29  30
ENDBRANCH  28  29
ENDBRANCH  22  28
ENDBRANCH   9  11
ENDBRANCH   1   9
TORSDOF 10
ENDMDL
