MODEL 1
REMARK VINA RESULT:      -4.7      0.000      0.000
REMARK  5 active torsions:
REMARK  status: ('A' for Active; 'I' for Inactive)
REMARK    1  A    between atoms: P_3  and  N_6 
REMARK    2  A    between atoms: N_6  and  C_11 
REMARK    3  A    between atoms: N_6  and  C_12 
REMARK    4  A    between atoms: C_11  and  C_13 
REMARK    5  A    between atoms: C_12  and  C_14 
ROOT
HETATM    1  P   UNK N   1      34.695  16.665   8.779  0.00  0.00     0.365 P 
HETATM    2  O   UNK N   1      35.171  17.192  10.379  0.00  0.00    -0.307 OA
HETATM    3  O   UNK N   1      34.589  18.213   8.860  0.00  0.00    -0.248 OA
HETATM    4  N   UNK N   1      33.414  16.042   9.910  0.00  0.00    -0.338 N 
HETATM    5  C   UNK N   1      33.910  14.799  10.500  0.00  0.00     0.126 C 
HETATM    6  C   UNK N   1      35.001  15.120  11.515  0.00  0.00     0.046 C 
HETATM    7  C   UNK N   1      35.944  16.147  10.906  0.00  0.00     0.180 C 
HETATM    8  H   UNK N   1      32.513  16.480  10.099  0.00  0.00     0.164 HD
ENDROOT
BRANCH   1   9
HETATM    9  N   UNK N   1      33.176  16.963   7.799  0.00  0.00    -0.221 NA
BRANCH   9  10
HETATM   10  C   UNK N   1      33.545  17.617   6.545  0.00  0.00     0.116 C 
BRANCH  10  11
HETATM   11  C   UNK N   1      33.222  16.708   5.375  0.00  0.00     0.129 C 
HETATM   12 Cl   UNK N   1      32.505  17.663   4.059  0.00  0.00    -0.129 Cl
ENDBRANCH  10  11
ENDBRANCH   9  10
BRANCH   9  13
HETATM   13  C   UNK N   1      32.366  17.981   8.472  0.00  0.00     0.116 C 
BRANCH  13  14
HETATM   14  C   UNK N   1      30.890  17.713   8.250  0.00  0.00     0.129 C 
HETATM   15 Cl   UNK N   1      29.946  18.658   9.422  0.00  0.00    -0.129 Cl
ENDBRANCH  13  14
ENDBRANCH   9  13
ENDBRANCH   1   9
TORSDOF 5
ENDMDL
MODEL 2
REMARK VINA RESULT:      -4.6      6.135      7.438
REMARK  5 active torsions:
REMARK  status: ('A' for Active; 'I' for Inactive)
REMARK    1  A    between atoms: P_3  and  N_6 
REMARK    2  A    between atoms: N_6  and  C_11 
REMARK    3  A    between atoms: N_6  and  C_12 
REMARK    4  A    between atoms: C_11  and  C_13 
REMARK    5  A    between atoms: C_12  and  C_14 
ROOT
HETATM    1  P   UNK N   1      35.312  13.569  11.553  0.00  0.00     0.365 P 
HETATM    2  O   UNK N   1      35.890  14.757  10.406  0.00  0.00    -0.307 OA
HETATM    3  O   UNK N   1      34.625  14.932  11.840  0.00  0.00    -0.248 OA
HETATM    4  N   UNK N   1      37.068  13.830  11.948  0.00  0.00    -0.338 N 
HETATM    5  C   UNK N   1      37.856  13.005  11.033  0.00  0.00     0.126 C 
HETATM    6  C   UNK N   1      37.822  13.620   9.639  0.00  0.00     0.046 C 
HETATM    7  C   UNK N   1      36.389  14.022   9.320  0.00  0.00     0.180 C 
HETATM    8  H   UNK N   1      37.438  14.441  12.676  0.00  0.00     0.164 HD
ENDROOT
BRANCH   1   9
HETATM    9  N   UNK N   1      35.272  13.560  13.385  0.00  0.00    -0.221 NA
BRANCH   9  10
HETATM   10  C   UNK N   1      36.361  14.399  13.884  0.00  0.00     0.116 C 
BRANCH  10  11
HETATM   11  C   UNK N   1      36.621  14.090  15.345  0.00  0.00     0.129 C 
HETATM   12 Cl   UNK N   1      37.443  15.468  16.109  0.00  0.00    -0.129 Cl
ENDBRANCH  10  11
ENDBRANCH   9  10
BRANCH   9  13
HETATM   13  C   UNK N   1      35.643  12.227  13.864  0.00  0.00     0.116 C 
BRANCH  13  14
HETATM   14  C   UNK N   1      34.668  11.188  13.341  0.00  0.00     0.129 C 
HETATM   15 Cl   UNK N   1      33.488  10.807  14.614  0.00  0.00    -0.129 Cl
ENDBRANCH  13  14
ENDBRANCH   9  13
ENDBRANCH   1   9
TORSDOF 5
ENDMDL
MODEL 3
REMARK VINA RESULT:      -4.6      1.273      2.532
REMARK  5 active torsions:
REMARK  status: ('A' for Active; 'I' for Inactive)
REMARK    1  A    between atoms: P_3  and  N_6 
REMARK    2  A    between atoms: N_6  and  C_11 
REMARK    3  A    between atoms: N_6  and  C_12 
REMARK    4  A    between atoms: C_11  and  C_13 
REMARK    5  A    between atoms: C_12  and  C_14 
ROOT
HETATM    1  P   UNK N   1      34.942  16.452   9.174  0.00  0.00     0.365 P 
HETATM    2  O   UNK N   1      35.991  16.527  10.572  0.00  0.00    -0.307 OA
HETATM    3  O   UNK N   1      35.279  17.937   9.480  0.00  0.00    -0.248 OA
HETATM    4  N   UNK N   1      33.935  15.893  10.582  0.00  0.00    -0.338 N 
HETATM    5  C   UNK N   1      34.235  14.480  10.807  0.00  0.00     0.126 C 
HETATM    6  C   UNK N   1      35.622  14.348  11.427  0.00  0.00     0.046 C 
HETATM    7  C   UNK N   1      36.580  15.257  10.671  0.00  0.00     0.180 C 
HETATM    8  H   UNK N   1      33.280  16.462  11.118  0.00  0.00     0.164 HD
ENDROOT
BRANCH   1   9
HETATM    9  N   UNK N   1      33.336  17.257   8.809  0.00  0.00    -0.221 NA
BRANCH   9  10
HETATM   10  C   UNK N   1      32.374  16.231   8.414  0.00  0.00     0.116 C 
BRANCH  10  11
HETATM   11  C   UNK N   1      30.961  16.746   8.612  0.00  0.00     0.129 C 
HETATM   12 Cl   UNK N   1      30.139  16.851   7.040  0.00  0.00    -0.129 Cl
ENDBRANCH  10  11
ENDBRANCH   9  10
BRANCH   9  13
HETATM   13  C   UNK N   1      33.473  18.062   7.593  0.00  0.00     0.116 C 
BRANCH  13  14
HETATM   14  C   UNK N   1      33.946  17.198   6.439  0.00  0.00     0.129 C 
HETATM   15 Cl   UNK N   1      33.062  17.660   4.967  0.00  0.00    -0.129 Cl
ENDBRANCH  13  14
ENDBRANCH   9  13
ENDBRANCH   1   9
TORSDOF 5
ENDMDL
MODEL 4
REMARK VINA RESULT:      -4.3     12.729     13.135
REMARK  5 active torsions:
REMARK  status: ('A' for Active; 'I' for Inactive)
REMARK    1  A    between atoms: P_3  and  N_6 
REMARK    2  A    between atoms: N_6  and  C_11 
REMARK    3  A    between atoms: N_6  and  C_12 
REMARK    4  A    between atoms: C_11  and  C_13 
REMARK    5  A    between atoms: C_12  and  C_14 
ROOT
HETATM    1  P   UNK N   1      20.800  14.412   9.332  0.00  0.00     0.365 P 
HETATM    2  O   UNK N   1      20.537  12.925  10.215  0.00  0.00    -0.307 OA
HETATM    3  O   UNK N   1      19.295  14.293   9.695  0.00  0.00    -0.248 OA
HETATM    4  N   UNK N   1      21.111  13.068   8.147  0.00  0.00    -0.338 N 
HETATM    5  C   UNK N   1      22.480  12.598   8.358  0.00  0.00     0.126 C 
HETATM    6  C   UNK N   1      22.549  11.804   9.657  0.00  0.00     0.046 C 
HETATM    7  C   UNK N   1      21.790  12.567  10.734  0.00  0.00     0.180 C 
HETATM    8  H   UNK N   1      20.450  12.706   7.459  0.00  0.00     0.164 HD
ENDROOT
BRANCH   1   9
HETATM    9  N   UNK N   1      20.021  15.084   7.815  0.00  0.00    -0.221 NA
BRANCH   9  10
HETATM   10  C   UNK N   1      21.063  15.661   6.967  0.00  0.00     0.116 C 
BRANCH  10  11
HETATM   11  C   UNK N   1      20.763  15.364   5.510  0.00  0.00     0.129 C 
HETATM   12 Cl   UNK N   1      20.265  16.859   4.688  0.00  0.00    -0.129 Cl
ENDBRANCH  10  11
ENDBRANCH   9  10
BRANCH   9  13
HETATM   13  C   UNK N   1      19.210  16.250   8.173  0.00  0.00     0.116 C 
BRANCH  13  14
HETATM   14  C   UNK N   1      20.086  17.480   8.314  0.00  0.00     0.129 C 
HETATM   15 Cl   UNK N   1      19.396  18.545   9.559  0.00  0.00    -0.129 Cl
ENDBRANCH  13  14
ENDBRANCH   9  13
ENDBRANCH   1   9
TORSDOF 5
ENDMDL
MODEL 5
REMARK VINA RESULT:      -4.3      1.860      2.325
REMARK  5 active torsions:
REMARK  status: ('A' for Active; 'I' for Inactive)
REMARK    1  A    between atoms: P_3  and  N_6 
REMARK    2  A    between atoms: N_6  and  C_11 
REMARK    3  A    between atoms: N_6  and  C_12 
REMARK    4  A    between atoms: C_11  and  C_13 
REMARK    5  A    between atoms: C_12  and  C_14 
ROOT
HETATM    1  P   UNK N   1      34.583  16.427   8.867  0.00  0.00     0.365 P 
HETATM    2  O   UNK N   1      35.001  17.147  10.406  0.00  0.00    -0.307 OA
HETATM    3  O   UNK N   1      34.248  17.943   8.830  0.00  0.00    -0.248 OA
HETATM    4  N   UNK N   1      33.429  15.716  10.080  0.00  0.00    -0.338 N 
HETATM    5  C   UNK N   1      34.115  14.612  10.751  0.00  0.00     0.126 C 
HETATM    6  C   UNK N   1      35.163  15.172  11.706  0.00  0.00     0.046 C 
HETATM    7  C   UNK N   1      35.931  16.275  10.991  0.00  0.00     0.180 C 
HETATM    8  H   UNK N   1      32.475  16.030  10.260  0.00  0.00     0.164 HD
ENDROOT
BRANCH   1   9
HETATM    9  N   UNK N   1      33.020  16.416   7.911  0.00  0.00    -0.221 NA
BRANCH   9  10
HETATM   10  C   UNK N   1      33.011  15.244   7.037  0.00  0.00     0.116 C 
BRANCH  10  11
HETATM   11  C   UNK N   1      34.421  14.710   6.878  0.00  0.00     0.129 C 
HETATM   12 Cl   UNK N   1      34.953  14.925   5.196  0.00  0.00    -0.129 Cl
ENDBRANCH  10  11
ENDBRANCH   9  10
BRANCH   9  13
HETATM   13  C   UNK N   1      33.035  17.530   6.961  0.00  0.00     0.116 C 
BRANCH  13  14
HETATM   14  C   UNK N   1      32.057  17.273   5.830  0.00  0.00     0.129 C 
HETATM   15 Cl   UNK N   1      32.836  17.681   4.285  0.00  0.00    -0.129 Cl
ENDBRANCH  13  14
ENDBRANCH   9  13
ENDBRANCH   1   9
TORSDOF 5
ENDMDL
MODEL 6
REMARK VINA RESULT:      -4.3      6.429      7.826
REMARK  5 active torsions:
REMARK  status: ('A' for Active; 'I' for Inactive)
REMARK    1  A    between atoms: P_3  and  N_6 
REMARK    2  A    between atoms: N_6  and  C_11 
REMARK    3  A    between atoms: N_6  and  C_12 
REMARK    4  A    between atoms: C_11  and  C_13 
REMARK    5  A    between atoms: C_12  and  C_14 
ROOT
HETATM    1  P   UNK N   1      35.621  13.118  11.595  0.00  0.00     0.365 P 
HETATM    2  O   UNK N   1      35.987  14.679  10.894  0.00  0.00    -0.307 OA
HETATM    3  O   UNK N   1      34.831  14.217  12.356  0.00  0.00    -0.248 OA
HETATM    4  N   UNK N   1      37.370  13.438  11.979  0.00  0.00    -0.338 N 
HETATM    5  C   UNK N   1      38.157  13.063  10.805  0.00  0.00     0.126 C 
HETATM    6  C   UNK N   1      37.952  14.098   9.705  0.00  0.00     0.046 C 
HETATM    7  C   UNK N   1      36.467  14.411   9.603  0.00  0.00     0.180 C 
HETATM    8  H   UNK N   1      37.736  13.812  12.854  0.00  0.00     0.164 HD
ENDROOT
BRANCH   1   9
HETATM    9  N   UNK N   1      35.730  12.497  13.315  0.00  0.00    -0.221 NA
BRANCH   9  10
HETATM   10  C   UNK N   1      34.485  11.804  13.646  0.00  0.00     0.116 C 
BRANCH  10  11
HETATM   11  C   UNK N   1      34.778  10.357  13.989  0.00  0.00     0.129 C 
HETATM   12 Cl   UNK N   1      34.495  10.087  15.723  0.00  0.00    -0.129 Cl
ENDBRANCH  10  11
ENDBRANCH   9  10
BRANCH   9  13
HETATM   13  C   UNK N   1      35.721  13.638  14.234  0.00  0.00     0.116 C 
BRANCH  13  14
HETATM   14  C   UNK N   1      36.422  13.277  15.531  0.00  0.00     0.129 C 
HETATM   15 Cl   UNK N   1      35.245  13.334  16.862  0.00  0.00    -0.129 Cl
ENDBRANCH  13  14
ENDBRANCH   9  13
ENDBRANCH   1   9
TORSDOF 5
ENDMDL
MODEL 7
REMARK VINA RESULT:      -4.3     12.185     12.858
REMARK  5 active torsions:
REMARK  status: ('A' for Active; 'I' for Inactive)
REMARK    1  A    between atoms: P_3  and  N_6 
REMARK    2  A    between atoms: N_6  and  C_11 
REMARK    3  A    between atoms: N_6  and  C_12 
REMARK    4  A    between atoms: C_11  and  C_13 
REMARK    5  A    between atoms: C_12  and  C_14 
ROOT
HETATM    1  P   UNK N   1      21.752  12.995   8.590  0.00  0.00     0.365 P 
HETATM    2  O   UNK N   1      23.098  13.370   9.644  0.00  0.00    -0.307 OA
HETATM    3  O   UNK N   1      22.479  14.260   8.059  0.00  0.00    -0.248 OA
HETATM    4  N   UNK N   1      21.018  13.498  10.176  0.00  0.00    -0.338 N 
HETATM    5  C   UNK N   1      21.038  12.335  11.063  0.00  0.00     0.126 C 
HETATM    6  C   UNK N   1      22.467  12.074  11.524  0.00  0.00     0.046 C 
HETATM    7  C   UNK N   1      23.392  12.177  10.321  0.00  0.00     0.180 C 
HETATM    8  H   UNK N   1      20.657  14.424  10.406  0.00  0.00     0.164 HD
ENDROOT
BRANCH   1   9
HETATM    9  N   UNK N   1      20.330  14.001   8.022  0.00  0.00    -0.221 NA
BRANCH   9  10
HETATM   10  C   UNK N   1      20.598  14.471   6.664  0.00  0.00     0.116 C 
BRANCH  10  11
HETATM   11  C   UNK N   1      20.114  13.444   5.659  0.00  0.00     0.129 C 
HETATM   12 Cl   UNK N   1      18.835  14.154   4.650  0.00  0.00    -0.129 Cl
ENDBRANCH  10  11
ENDBRANCH   9  10
BRANCH   9  13
HETATM   13  C   UNK N   1      20.288  15.244   8.795  0.00  0.00     0.116 C 
BRANCH  13  14
HETATM   14  C   UNK N   1      19.640  16.349   7.983  0.00  0.00     0.129 C 
HETATM   15 Cl   UNK N   1      18.960  17.562   9.091  0.00  0.00    -0.129 Cl
ENDBRANCH  13  14
ENDBRANCH   9  13
ENDBRANCH   1   9
TORSDOF 5
ENDMDL
MODEL 8
REMARK VINA RESULT:      -4.2      5.798      7.658
REMARK  5 active torsions:
REMARK  status: ('A' for Active; 'I' for Inactive)
REMARK    1  A    between atoms: P_3  and  N_6 
REMARK    2  A    between atoms: N_6  and  C_11 
REMARK    3  A    between atoms: N_6  and  C_12 
REMARK    4  A    between atoms: C_11  and  C_13 
REMARK    5  A    between atoms: C_12  and  C_14 
ROOT
HETATM    1  P   UNK N   1      35.995  13.516  12.153  0.00  0.00     0.365 P 
HETATM    2  O   UNK N   1      35.975  13.142  10.444  0.00  0.00    -0.307 OA
HETATM    3  O   UNK N   1      35.945  11.974  11.968  0.00  0.00    -0.248 OA
HETATM    4  N   UNK N   1      34.398  14.122  11.529  0.00  0.00    -0.338 N 
HETATM    5  C   UNK N   1      34.625  15.437  10.932  0.00  0.00     0.126 C 
HETATM    6  C   UNK N   1      35.360  15.272   9.607  0.00  0.00     0.046 C 
HETATM    7  C   UNK N   1      36.494  14.276   9.802  0.00  0.00     0.180 C 
HETATM    8  H   UNK N   1      33.504  13.633  11.586  0.00  0.00     0.164 HD
ENDROOT
BRANCH   1   9
HETATM    9  N   UNK N   1      34.873  13.037  13.520  0.00  0.00    -0.221 NA
BRANCH   9  10
HETATM   10  C   UNK N   1      35.503  13.388  14.791  0.00  0.00     0.116 C 
BRANCH  10  11
HETATM   11  C   UNK N   1      36.747  14.218  14.538  0.00  0.00     0.129 C 
HETATM   12 Cl   UNK N   1      37.169  15.122  16.008  0.00  0.00    -0.129 Cl
ENDBRANCH  10  11
ENDBRANCH   9  10
BRANCH   9  13
HETATM   13  C   UNK N   1      34.798  11.576  13.585  0.00  0.00     0.116 C 
BRANCH  13  14
HETATM   14  C   UNK N   1      33.743  11.146  14.587  0.00  0.00     0.129 C 
HETATM   15 Cl   UNK N   1      34.503  10.127  15.829  0.00  0.00    -0.129 Cl
ENDBRANCH  13  14
ENDBRANCH   9  13
ENDBRANCH   1   9
TORSDOF 5
ENDMDL
MODEL 9
REMARK VINA RESULT:      -4.1      5.149      6.466
REMARK  5 active torsions:
REMARK  status: ('A' for Active; 'I' for Inactive)
REMARK    1  A    between atoms: P_3  and  N_6 
REMARK    2  A    between atoms: N_6  and  C_11 
REMARK    3  A    between atoms: N_6  and  C_12 
REMARK    4  A    between atoms: C_11  and  C_13 
REMARK    5  A    between atoms: C_12  and  C_14 
ROOT
HETATM    1  P   UNK N   1      35.624  12.708  13.067  0.00  0.00     0.365 P 
HETATM    2  O   UNK N   1      34.414  12.879  14.320  0.00  0.00    -0.307 OA
HETATM    3  O   UNK N   1      35.186  14.196  13.155  0.00  0.00    -0.248 OA
HETATM    4  N   UNK N   1      34.157  11.816  12.467  0.00  0.00    -0.338 N 
HETATM    5  C   UNK N   1      34.166  10.486  13.077  0.00  0.00     0.126 C 
HETATM    6  C   UNK N   1      33.799  10.602  14.552  0.00  0.00     0.046 C 
HETATM    7  C   UNK N   1      34.575  11.764  15.155  0.00  0.00     0.180 C 
HETATM    8  H   UNK N   1      33.454  12.177  11.822  0.00  0.00     0.164 HD
ENDROOT
BRANCH   1   9
HETATM    9  N   UNK N   1      35.620  13.176  11.296  0.00  0.00    -0.221 NA
BRANCH   9  10
HETATM   10  C   UNK N   1      36.596  12.349  10.588  0.00  0.00     0.116 C 
BRANCH  10  11
HETATM   11  C   UNK N   1      37.963  12.508  11.224  0.00  0.00     0.129 C 
HETATM   12 Cl   UNK N   1      39.166  12.868   9.966  0.00  0.00    -0.129 Cl
ENDBRANCH  10  11
ENDBRANCH   9  10
BRANCH   9  13
HETATM   13  C   UNK N   1      36.175  14.524  11.158  0.00  0.00     0.116 C 
BRANCH  13  14
HETATM   14  C   UNK N   1      35.740  15.142   9.842  0.00  0.00     0.129 C 
HETATM   15 Cl   UNK N   1      35.187  16.806  10.137  0.00  0.00    -0.129 Cl
ENDBRANCH  13  14
ENDBRANCH   9  13
ENDBRANCH   1   9
TORSDOF 5
ENDMDL
