MODEL 1
REMARK VINA RESULT:      -4.6      0.000      0.000
REMARK  5 active torsions:
REMARK  status: ('A' for Active; 'I' for Inactive)
REMARK    1  A    between atoms: Hg_1  and  C_9 
REMARK    2  A    between atoms: O_3  and  C_7 
REMARK    3  A    between atoms: N_5  and  C_8 
REMARK       I    between atoms: N_5  and  C_10 
REMARK       I    between atoms: N_6  and  C_10 
REMARK    4  A    between atoms: C_7  and  C_8 
REMARK    5  A    between atoms: C_7  and  C_9 
ROOT
HETATM    1  O   UNK N   1      20.456  17.250  -0.233  0.00  0.00    -0.248 OA
HETATM    2  N   UNK N   1      19.328  17.589   1.678  0.00  0.00    -0.341 N 
HETATM    3  N   UNK N   1      18.389  16.450  -0.132  0.00  0.00    -0.352 N 
HETATM    4  C   UNK N   1      19.432  17.107   0.412  0.00  0.00     0.313 C 
HETATM    5  H   UNK N   1      18.478  17.453   2.155  0.00  0.00     0.164 HD
HETATM    6  H   UNK N   1      17.911  16.608  -0.979  0.00  0.00     0.160 HD
HETATM    7  H   UNK N   1      18.053  15.691   0.399  0.00  0.00     0.160 HD
ENDROOT
BRANCH   2   8
HETATM    8  C   UNK N   1      20.391  18.292   2.369  0.00  0.00     0.156 C 
BRANCH   8   9
HETATM    9  C   UNK N   1      20.055  19.764   2.581  0.00  0.00     0.137 C 
BRANCH   9  10
HETATM   10  O   UNK N   1      20.462  20.153   3.859  0.00  0.00    -0.389 OA
HETATM   11  C   UNK N   1      21.339  19.154   4.287  0.00  0.00     0.202 C 
ENDBRANCH   9  10
BRANCH   9  12
HETATM   12  C   UNK N   1      20.796  20.600   1.554  0.00  0.00     0.032 C 
BRANCH  12  13
HETATM   13 Hg   UNK N   1      22.868  20.523   1.821  0.00  0.00     0.150 Hg
HETATM   14 Cl   UNK N   1      25.116  20.496   2.569  0.00  0.00    -0.143 Cl
ENDBRANCH  12  13
ENDBRANCH   9  12
ENDBRANCH   8   9
ENDBRANCH   2   8
TORSDOF 5
ENDMDL
MODEL 2
REMARK VINA RESULT:      -4.1      1.986      3.410
REMARK  5 active torsions:
REMARK  status: ('A' for Active; 'I' for Inactive)
REMARK    1  A    between atoms: Hg_1  and  C_9 
REMARK    2  A    between atoms: O_3  and  C_7 
REMARK    3  A    between atoms: N_5  and  C_8 
REMARK       I    between atoms: N_5  and  C_10 
REMARK       I    between atoms: N_6  and  C_10 
REMARK    4  A    between atoms: C_7  and  C_8 
REMARK    5  A    between atoms: C_7  and  C_9 
ROOT
HETATM    1  O   UNK N   1      21.563  21.070   2.138  0.00  0.00    -0.248 OA
HETATM    2  N   UNK N   1      19.881  19.623   1.795  0.00  0.00    -0.341 N 
HETATM    3  N   UNK N   1      20.521  21.188   0.183  0.00  0.00    -0.352 N 
HETATM    4  C   UNK N   1      20.687  20.645   1.405  0.00  0.00     0.313 C 
HETATM    5  H   UNK N   1      19.185  19.320   1.169  0.00  0.00     0.164 HD
HETATM    6  H   UNK N   1      20.377  22.126  -0.081  0.00  0.00     0.160 HD
HETATM    7  H   UNK N   1      20.550  20.546  -0.564  0.00  0.00     0.160 HD
ENDROOT
BRANCH   2   8
HETATM    8  C   UNK N   1      19.983  18.952   3.076  0.00  0.00     0.156 C 
BRANCH   8   9
HETATM    9  C   UNK N   1      20.458  17.510   2.926  0.00  0.00     0.137 C 
BRANCH   9  10
HETATM   10  O   UNK N   1      20.529  17.187   1.568  0.00  0.00    -0.389 OA
HETATM   11  C   UNK N   1      20.472  15.794   1.516  0.00  0.00     0.202 C 
ENDBRANCH   9  10
BRANCH   9  12
HETATM   12  C   UNK N   1      21.839  17.371   3.538  0.00  0.00     0.032 C 
BRANCH  12  13
HETATM   13 Hg   UNK N   1      23.054  19.022   3.128  0.00  0.00     0.150 Hg
HETATM   14 Cl   UNK N   1      24.746  20.576   2.549  0.00  0.00    -0.143 Cl
ENDBRANCH  12  13
ENDBRANCH   9  12
ENDBRANCH   8   9
ENDBRANCH   2   8
TORSDOF 5
ENDMDL
MODEL 3
REMARK VINA RESULT:      -4.1     14.023     15.193
REMARK  5 active torsions:
REMARK  status: ('A' for Active; 'I' for Inactive)
REMARK    1  A    between atoms: Hg_1  and  C_9 
REMARK    2  A    between atoms: O_3  and  C_7 
REMARK    3  A    between atoms: N_5  and  C_8 
REMARK       I    between atoms: N_5  and  C_10 
REMARK       I    between atoms: N_6  and  C_10 
REMARK    4  A    between atoms: C_7  and  C_8 
REMARK    5  A    between atoms: C_7  and  C_9 
ROOT
HETATM    1  O   UNK N   1      36.000  17.167  10.573  0.00  0.00    -0.248 OA
HETATM    2  N   UNK N   1      34.117  16.968   9.366  0.00  0.00    -0.341 N 
HETATM    3  N   UNK N   1      34.537  15.639  11.241  0.00  0.00    -0.352 N 
HETATM    4  C   UNK N   1      34.929  16.613  10.395  0.00  0.00     0.313 C 
HETATM    5  H   UNK N   1      33.265  16.485   9.262  0.00  0.00     0.164 HD
HETATM    6  H   UNK N   1      34.996  14.811  11.511  0.00  0.00     0.160 HD
HETATM    7  H   UNK N   1      33.654  15.778  11.654  0.00  0.00     0.160 HD
ENDROOT
BRANCH   2   8
HETATM    8  C   UNK N   1      34.428  18.013   8.410  0.00  0.00     0.156 C 
BRANCH   8   9
HETATM    9  C   UNK N   1      33.489  17.981   7.208  0.00  0.00     0.137 C 
BRANCH   9  10
HETATM   10  O   UNK N   1      34.230  17.730   6.051  0.00  0.00    -0.389 OA
HETATM   11  C   UNK N   1      34.031  16.377   5.769  0.00  0.00     0.202 C 
ENDBRANCH   9  10
BRANCH   9  12
HETATM   12  C   UNK N   1      32.476  16.866   7.394  0.00  0.00     0.032 C 
BRANCH  12  13
HETATM   13 Hg   UNK N   1      30.680  17.559   8.210  0.00  0.00     0.150 Hg
HETATM   14 Cl   UNK N   1      28.724  18.030   9.461  0.00  0.00    -0.143 Cl
ENDBRANCH  12  13
ENDBRANCH   9  12
ENDBRANCH   8   9
ENDBRANCH   2   8
TORSDOF 5
ENDMDL
MODEL 4
REMARK VINA RESULT:      -4.1      7.295      8.142
REMARK  5 active torsions:
REMARK  status: ('A' for Active; 'I' for Inactive)
REMARK    1  A    between atoms: Hg_1  and  C_9 
REMARK    2  A    between atoms: O_3  and  C_7 
REMARK    3  A    between atoms: N_5  and  C_8 
REMARK       I    between atoms: N_5  and  C_10 
REMARK       I    between atoms: N_6  and  C_10 
REMARK    4  A    between atoms: C_7  and  C_8 
REMARK    5  A    between atoms: C_7  and  C_9 
ROOT
HETATM    1  O   UNK N   1      20.269  19.124   8.652  0.00  0.00    -0.248 OA
HETATM    2  N   UNK N   1      18.929  17.486   9.402  0.00  0.00    -0.341 N 
HETATM    3  N   UNK N   1      19.041  19.574  10.444  0.00  0.00    -0.352 N 
HETATM    4  C   UNK N   1      19.449  18.740   9.467  0.00  0.00     0.313 C 
HETATM    5  H   UNK N   1      18.275  17.222  10.088  0.00  0.00     0.164 HD
HETATM    6  H   UNK N   1      19.565  20.076  11.110  0.00  0.00     0.160 HD
HETATM    7  H   UNK N   1      18.066  19.703  10.499  0.00  0.00     0.160 HD
ENDROOT
BRANCH   2   8
HETATM    8  C   UNK N   1      19.280  16.514   8.385  0.00  0.00     0.156 C 
BRANCH   8   9
HETATM    9  C   UNK N   1      20.352  15.545   8.872  0.00  0.00     0.137 C 
BRANCH   9  10
HETATM   10  O   UNK N   1      19.759  14.318   9.181  0.00  0.00    -0.389 OA
HETATM   11  C   UNK N   1      20.693  13.643   9.969  0.00  0.00     0.202 C 
ENDBRANCH   9  10
BRANCH   9  12
HETATM   12  C   UNK N   1      21.374  15.333   7.770  0.00  0.00     0.032 C 
BRANCH  12  13
HETATM   13 Hg   UNK N   1      20.655  15.935   5.901  0.00  0.00     0.150 Hg
HETATM   14 Cl   UNK N   1      19.515  16.832   4.028  0.00  0.00    -0.143 Cl
ENDBRANCH  12  13
ENDBRANCH   9  12
ENDBRANCH   8   9
ENDBRANCH   2   8
TORSDOF 5
ENDMDL
MODEL 5
REMARK VINA RESULT:      -4.0     12.379     13.492
REMARK  5 active torsions:
REMARK  status: ('A' for Active; 'I' for Inactive)
REMARK    1  A    between atoms: Hg_1  and  C_9 
REMARK    2  A    between atoms: O_3  and  C_7 
REMARK    3  A    between atoms: N_5  and  C_8 
REMARK       I    between atoms: N_5  and  C_10 
REMARK       I    between atoms: N_6  and  C_10 
REMARK    4  A    between atoms: C_7  and  C_8 
REMARK    5  A    between atoms: C_7  and  C_9 
ROOT
HETATM    1  O   UNK N   1      34.301  17.851   6.875  0.00  0.00    -0.248 OA
HETATM    2  N   UNK N   1      33.254  17.537   8.836  0.00  0.00    -0.341 N 
HETATM    3  N   UNK N   1      35.054  19.008   8.611  0.00  0.00    -0.352 N 
HETATM    4  C   UNK N   1      34.207  18.117   8.061  0.00  0.00     0.313 C 
HETATM    5  H   UNK N   1      33.224  17.780   9.789  0.00  0.00     0.164 HD
HETATM    6  H   UNK N   1      36.039  19.028   8.618  0.00  0.00     0.160 HD
HETATM    7  H   UNK N   1      34.621  19.759   9.080  0.00  0.00     0.160 HD
ENDROOT
BRANCH   2   8
HETATM    8  C   UNK N   1      32.279  16.581   8.346  0.00  0.00     0.156 C 
BRANCH   8   9
HETATM    9  C   UNK N   1      30.851  17.088   8.520  0.00  0.00     0.137 C 
BRANCH   9  10
HETATM   10  O   UNK N   1      30.881  18.376   9.060  0.00  0.00    -0.389 OA
HETATM   11  C   UNK N   1      29.613  18.578   9.607  0.00  0.00     0.202 C 
ENDBRANCH   9  10
BRANCH   9  12
HETATM   12  C   UNK N   1      30.170  17.139   7.165  0.00  0.00     0.032 C 
BRANCH  12  13
HETATM   13 Hg   UNK N   1      31.545  17.154   5.590  0.00  0.00     0.150 Hg
HETATM   14 Cl   UNK N   1      32.764  17.379   3.571  0.00  0.00    -0.143 Cl
ENDBRANCH  12  13
ENDBRANCH   9  12
ENDBRANCH   8   9
ENDBRANCH   2   8
TORSDOF 5
ENDMDL
MODEL 6
REMARK VINA RESULT:      -3.9      4.159      4.692
REMARK  5 active torsions:
REMARK  status: ('A' for Active; 'I' for Inactive)
REMARK    1  A    between atoms: Hg_1  and  C_9 
REMARK    2  A    between atoms: O_3  and  C_7 
REMARK    3  A    between atoms: N_5  and  C_8 
REMARK       I    between atoms: N_5  and  C_10 
REMARK       I    between atoms: N_6  and  C_10 
REMARK    4  A    between atoms: C_7  and  C_8 
REMARK    5  A    between atoms: C_7  and  C_9 
ROOT
HETATM    1  O   UNK N   1      21.643  21.082   1.993  0.00  0.00    -0.248 OA
HETATM    2  N   UNK N   1      19.906  19.675   1.777  0.00  0.00    -0.341 N 
HETATM    3  N   UNK N   1      20.443  21.246   0.134  0.00  0.00    -0.352 N 
HETATM    4  C   UNK N   1      20.699  20.684   1.332  0.00  0.00     0.313 C 
HETATM    5  H   UNK N   1      19.153  19.394   1.208  0.00  0.00     0.164 HD
HETATM    6  H   UNK N   1      20.298  22.190  -0.107  0.00  0.00     0.160 HD
HETATM    7  H   UNK N   1      20.395  20.613  -0.620  0.00  0.00     0.160 HD
ENDROOT
BRANCH   2   8
HETATM    8  C   UNK N   1      20.101  18.985   3.038  0.00  0.00     0.156 C 
BRANCH   8   9
HETATM    9  C   UNK N   1      20.768  17.627   2.845  0.00  0.00     0.137 C 
BRANCH   9  10
HETATM   10  O   UNK N   1      22.041  17.652   3.420  0.00  0.00    -0.389 OA
HETATM   11  C   UNK N   1      21.945  18.538   4.494  0.00  0.00     0.202 C 
ENDBRANCH   9  10
BRANCH   9  12
HETATM   12  C   UNK N   1      19.938  16.560   3.535  0.00  0.00     0.032 C 
BRANCH  12  13
HETATM   13 Hg   UNK N   1      19.017  15.271   2.170  0.00  0.00     0.150 Hg
HETATM   14 Cl   UNK N   1      18.174  14.078   0.306  0.00  0.00    -0.143 Cl
ENDBRANCH  12  13
ENDBRANCH   9  12
ENDBRANCH   8   9
ENDBRANCH   2   8
TORSDOF 5
ENDMDL
MODEL 7
REMARK VINA RESULT:      -3.9     17.224     18.428
REMARK  5 active torsions:
REMARK  status: ('A' for Active; 'I' for Inactive)
REMARK    1  A    between atoms: Hg_1  and  C_9 
REMARK    2  A    between atoms: O_3  and  C_7 
REMARK    3  A    between atoms: N_5  and  C_8 
REMARK       I    between atoms: N_5  and  C_10 
REMARK       I    between atoms: N_6  and  C_10 
REMARK    4  A    between atoms: C_7  and  C_8 
REMARK    5  A    between atoms: C_7  and  C_9 
ROOT
HETATM    1  O   UNK N   1      35.125  13.669  13.920  0.00  0.00    -0.248 OA
HETATM    2  N   UNK N   1      36.847  14.150  12.562  0.00  0.00    -0.341 N 
HETATM    3  N   UNK N   1      37.087  14.047  14.883  0.00  0.00    -0.352 N 
HETATM    4  C   UNK N   1      36.304  13.948  13.791  0.00  0.00     0.313 C 
HETATM    5  H   UNK N   1      37.803  14.379  12.511  0.00  0.00     0.164 HD
HETATM    6  H   UNK N   1      36.979  14.594  15.694  0.00  0.00     0.160 HD
HETATM    7  H   UNK N   1      37.894  13.481  14.868  0.00  0.00     0.160 HD
ENDROOT
BRANCH   2   8
HETATM    8  C   UNK N   1      36.104  14.049  11.320  0.00  0.00     0.156 C 
BRANCH   8   9
HETATM    9  C   UNK N   1      36.206  15.327  10.493  0.00  0.00     0.137 C 
BRANCH   9  10
HETATM   10  O   UNK N   1      35.671  15.098   9.223  0.00  0.00    -0.389 OA
HETATM   11  C   UNK N   1      34.628  14.192   9.418  0.00  0.00     0.202 C 
ENDBRANCH   9  10
BRANCH   9  12
HETATM   12  C   UNK N   1      35.410  16.426  11.171  0.00  0.00     0.032 C 
BRANCH  12  13
HETATM   13 Hg   UNK N   1      33.808  17.080   9.996  0.00  0.00     0.150 Hg
HETATM   14 Cl   UNK N   1      32.320  18.033   8.418  0.00  0.00    -0.143 Cl
ENDBRANCH  12  13
ENDBRANCH   9  12
ENDBRANCH   8   9
ENDBRANCH   2   8
TORSDOF 5
ENDMDL
MODEL 8
REMARK VINA RESULT:      -3.9     18.669     19.527
REMARK  5 active torsions:
REMARK  status: ('A' for Active; 'I' for Inactive)
REMARK    1  A    between atoms: Hg_1  and  C_9 
REMARK    2  A    between atoms: O_3  and  C_7 
REMARK    3  A    between atoms: N_5  and  C_8 
REMARK       I    between atoms: N_5  and  C_10 
REMARK       I    between atoms: N_6  and  C_10 
REMARK    4  A    between atoms: C_7  and  C_8 
REMARK    5  A    between atoms: C_7  and  C_9 
ROOT
HETATM    1  O   UNK N   1      36.803  16.110  10.714  0.00  0.00    -0.248 OA
HETATM    2  N   UNK N   1      34.939  15.081  11.430  0.00  0.00    -0.341 N 
HETATM    3  N   UNK N   1      34.901  17.237  10.531  0.00  0.00    -0.352 N 
HETATM    4  C   UNK N   1      35.597  16.140  10.889  0.00  0.00     0.313 C 
HETATM    5  H   UNK N   1      33.966  15.158  11.556  0.00  0.00     0.164 HD
HETATM    6  H   UNK N   1      35.028  18.180  10.785  0.00  0.00     0.160 HD
HETATM    7  H   UNK N   1      34.148  17.070   9.919  0.00  0.00     0.160 HD
ENDROOT
BRANCH   2   8
HETATM    8  C   UNK N   1      35.583  13.845  11.832  0.00  0.00     0.156 C 
BRANCH   8   9
HETATM    9  C   UNK N   1      35.335  13.529  13.303  0.00  0.00     0.137 C 
BRANCH   9  10
HETATM   10  O   UNK N   1      35.365  12.145  13.489  0.00  0.00    -0.389 OA
HETATM   11  C   UNK N   1      34.479  11.894  14.538  0.00  0.00     0.202 C 
ENDBRANCH   9  10
BRANCH   9  12
HETATM   12  C   UNK N   1      36.430  14.162  14.142  0.00  0.00     0.032 C 
BRANCH  12  13
HETATM   13 Hg   UNK N   1      36.044  14.009  16.191  0.00  0.00     0.150 Hg
HETATM   14 Cl   UNK N   1      35.201  13.659  18.377  0.00  0.00    -0.143 Cl
ENDBRANCH  12  13
ENDBRANCH   9  12
ENDBRANCH   8   9
ENDBRANCH   2   8
TORSDOF 5
ENDMDL
MODEL 9
REMARK VINA RESULT:      -3.9      3.416      4.171
REMARK  5 active torsions:
REMARK  status: ('A' for Active; 'I' for Inactive)
REMARK    1  A    between atoms: Hg_1  and  C_9 
REMARK    2  A    between atoms: O_3  and  C_7 
REMARK    3  A    between atoms: N_5  and  C_8 
REMARK       I    between atoms: N_5  and  C_10 
REMARK       I    between atoms: N_6  and  C_10 
REMARK    4  A    between atoms: C_7  and  C_8 
REMARK    5  A    between atoms: C_7  and  C_9 
ROOT
HETATM    1  O   UNK N   1      21.645  20.913   2.142  0.00  0.00    -0.248 OA
HETATM    2  N   UNK N   1      19.963  19.462   1.819  0.00  0.00    -0.341 N 
HETATM    3  N   UNK N   1      20.501  21.108   0.252  0.00  0.00    -0.352 N 
HETATM    4  C   UNK N   1      20.736  20.511   1.436  0.00  0.00     0.313 C 
HETATM    5  H   UNK N   1      19.238  19.179   1.216  0.00  0.00     0.164 HD
HETATM    6  H   UNK N   1      20.333  22.056   0.040  0.00  0.00     0.160 HD
HETATM    7  H   UNK N   1      20.497  20.503  -0.525  0.00  0.00     0.160 HD
ENDROOT
BRANCH   2   8
HETATM    8  C   UNK N   1      20.139  18.733   3.060  0.00  0.00     0.156 C 
BRANCH   8   9
HETATM    9  C   UNK N   1      20.969  17.469   2.863  0.00  0.00     0.137 C 
BRANCH   9  10
HETATM   10  O   UNK N   1      20.864  16.665   4.001  0.00  0.00    -0.389 OA
HETATM   11  C   UNK N   1      19.806  15.792   3.741  0.00  0.00     0.202 C 
ENDBRANCH   9  10
BRANCH   9  12
HETATM   12  C   UNK N   1      20.436  16.701   1.668  0.00  0.00     0.032 C 
BRANCH  12  13
HETATM   13 Hg   UNK N   1      21.841  15.355   0.903  0.00  0.00     0.150 Hg
HETATM   14 Cl   UNK N   1      23.703  13.988   0.376  0.00  0.00    -0.143 Cl
ENDBRANCH  12  13
ENDBRANCH   9  12
ENDBRANCH   8   9
ENDBRANCH   2   8
TORSDOF 5
ENDMDL
