REMARK  8 active torsions:
REMARK  status: ('A' for Active; 'I' for Inactive)
REMARK    1  A    between atoms: O_4  and  C_21 
REMARK    2  A    between atoms: O_7  and  N_10 
REMARK    3  A    between atoms: C_16  and  N_9 
REMARK       I    between atoms: N_9  and  C_22 
REMARK    4  A    between atoms: N_14  and  C_28 
REMARK    5  A    between atoms: C_18  and  C_21 
REMARK    6  A    between atoms: C_20  and  C_23 
REMARK    7  A    between atoms: C_22  and  C_24 
REMARK    8  A    between atoms: C_24  and  C_26 
ROOT
HETATM    1  O   UNK N   1       7.651  -0.366  -1.224  0.00  0.00    -0.266 OA
HETATM    2  N   UNK N   1       6.010  -1.506  -0.229  0.00  0.00    -0.340 N 
HETATM    3  C   UNK N   1       7.325  -1.258  -0.451  0.00  0.00     0.273 C 
HETATM    4  H   UNK N   1       5.762  -2.184   0.440  0.00  0.00     0.163 HD
ENDROOT
BRANCH   2   5
HETATM    5  C   UNK N   1       4.958  -0.811  -0.937  0.00  0.00     0.211 A 
HETATM    6  C   UNK N   1       3.579  -0.758  -0.091  0.00  0.00     0.187 A 
HETATM    7  S   UNK N   1       2.087  -1.097  -1.066  0.00  0.00    -0.136 SA
HETATM    8  N   UNK N   1       3.763   0.659  -0.009  0.00  0.00    -0.293 N 
HETATM    9  C   UNK N   1       1.121  -0.170   0.173  0.00  0.00     0.117 C 
HETATM   10  C   UNK N   1       1.463   1.306   0.178  0.00  0.00    -0.016 C 
HETATM   11  C   UNK N   1       2.774   1.697   0.134  0.00  0.00     0.119 C 
HETATM   12  C   UNK N   1       4.911   0.653  -0.629  0.00  0.00     0.251 A 
HETATM   13  O   UNK N   1       5.509   1.595  -1.119  0.00  0.00    -0.271 OA
BRANCH  10  14
HETATM   14  C   UNK N   1       0.346   2.280   0.216  0.00  0.00     0.000 C 
HETATM   15  C   UNK N   1      -0.932   1.900   0.176  0.00  0.00     0.012 C 
ENDBRANCH  10  14
BRANCH  11  16
HETATM   16  C   UNK N   1       3.178   3.149   0.136  0.00  0.00     0.194 C 
HETATM   17  O   UNK N   1       4.354   3.459   0.214  0.00  0.00    -0.645 OA
BRANCH  16  18
HETATM   18  O   UNK N   1       2.259   4.132   0.079  0.00  0.00    -0.772 OA
HETATM   19  H   UNK N   1       2.531   5.028   0.040  0.00  0.00     0.167 HD
ENDBRANCH  16  18
ENDBRANCH  11  16
ENDBRANCH   2   5
BRANCH   3  20
HETATM   20  C   UNK N   1       8.386  -2.050   0.249  0.00  0.00     0.149 C 
HETATM   21  N   UNK N   1       8.131  -3.188   0.813  0.00  0.00    -0.262 N 
ATOM     22  HN  UNK N   1       8.884  -3.673   1.302  1.00  0.00     0.194 HD
BRANCH  21  23
HETATM   23  O   UNK N   1       6.938  -3.743   0.779  0.00  0.00    -0.289 OA
HETATM   24  H   UNK N   1       6.171  -3.206   0.755  0.00  0.00     0.244 HD
ENDBRANCH  21  23
BRANCH  20  25
HETATM   25  C   UNK N   1       9.768  -1.518   0.325  0.00  0.00     0.075 A 
HETATM   26  N   UNK N   1      10.088  -0.254  -0.133  0.00  0.00    -0.335 N 
HETATM   27  C   UNK N   1      11.384   0.050   0.091  0.00  0.00     0.142 A 
ATOM     28  HN  UNK N   1       9.425   0.374  -0.586  1.00  0.00     0.168 HD
HETATM   29  S   UNK N   1      12.133  -1.204   0.842  0.00  0.00    -0.064 SA
HETATM   30  C   UNK N   1      10.830  -2.229   0.929  0.00  0.00     0.085 A 
BRANCH  27  31
HETATM   31  N   UNK N   1      11.972   1.284  -0.245  0.00  0.00    -0.380 N 
HETATM   32  H   UNK N   1      12.925   1.360  -0.481  0.00  0.00     0.158 HD
HETATM   33  H   UNK N   1      11.414   2.096  -0.245  0.00  0.00     0.158 HD
ENDBRANCH  27  31
ENDBRANCH  20  25
ENDBRANCH   3  20
TORSDOF 8
