MODEL 1
REMARK VINA RESULT:      -7.1      0.000      0.000
REMARK  8 active torsions:
REMARK  status: ('A' for Active; 'I' for Inactive)
REMARK    1  A    between atoms: O_4  and  C_21 
REMARK    2  A    between atoms: O_7  and  N_10 
REMARK    3  A    between atoms: C_16  and  N_9 
REMARK       I    between atoms: N_9  and  C_22 
REMARK    4  A    between atoms: N_14  and  C_28 
REMARK    5  A    between atoms: C_18  and  C_21 
REMARK    6  A    between atoms: C_20  and  C_23 
REMARK    7  A    between atoms: C_22  and  C_24 
REMARK    8  A    between atoms: C_24  and  C_26 
ROOT
HETATM    1  O   UNK N   1      36.169  12.158  10.870  0.00  0.00    -0.266 OA
HETATM    2  N   UNK N   1      35.306  14.145  11.407  0.00  0.00    -0.340 N 
HETATM    3  C   UNK N   1      35.499  12.824  11.648  0.00  0.00     0.273 C 
HETATM    4  H   UNK N   1      34.817  14.682  12.071  0.00  0.00     0.163 HD
ENDROOT
BRANCH   2   5
HETATM    5  C   UNK N   1      35.794  14.795  10.211  0.00  0.00     0.211 A 
HETATM    6  C   UNK N   1      34.813  14.566   8.944  0.00  0.00     0.187 A 
HETATM    7  S   UNK N   1      35.670  14.181   7.391  0.00  0.00    -0.136 SA
HETATM    8  N   UNK N   1      34.544  15.971   8.984  0.00  0.00    -0.293 N 
HETATM    9  C   UNK N   1      34.217  14.809   6.485  0.00  0.00     0.117 C 
HETATM   10  C   UNK N   1      34.031  16.302   6.667  0.00  0.00    -0.016 C 
HETATM   11  C   UNK N   1      34.150  16.852   7.914  0.00  0.00     0.119 C 
HETATM   12  C   UNK N   1      35.271  16.188  10.045  0.00  0.00     0.251 A 
HETATM   13  O   UNK N   1      35.676  17.253  10.478  0.00  0.00    -0.271 OA
BRANCH  10  14
HETATM   14  C   UNK N   1      33.737  17.119   5.465  0.00  0.00     0.000 C 
HETATM   15  C   UNK N   1      32.851  16.736   4.543  0.00  0.00     0.012 C 
ENDBRANCH  10  14
BRANCH  11  16
HETATM   16  C   UNK N   1      33.976  18.329   8.159  0.00  0.00     0.194 C 
HETATM   17  O   UNK N   1      32.860  18.808   8.258  0.00  0.00    -0.645 OA
BRANCH  16  18
HETATM   18  O   UNK N   1      35.037  19.154   8.248  0.00  0.00    -0.772 OA
HETATM   19  H   UNK N   1      35.227  19.752   7.552  0.00  0.00     0.167 HD
ENDBRANCH  16  18
ENDBRANCH  11  16
ENDBRANCH   2   5
BRANCH   3  20
HETATM   20  C   UNK N   1      34.915  12.172  12.864  0.00  0.00     0.149 C 
HETATM   21  N   UNK N   1      34.080  11.185  12.777  0.00  0.00    -0.262 N 
ATOM     22  HN  UNK N   1      33.690  10.796  13.635  1.00  0.00     0.194 HD
BRANCH  21  23
HETATM   23  O   UNK N   1      33.716  10.666  11.624  0.00  0.00    -0.289 OA
HETATM   24  H   UNK N   1      34.242  10.004  11.220  0.00  0.00     0.244 HD
ENDBRANCH  21  23
BRANCH  20  25
HETATM   25  C   UNK N   1      35.279  12.673  14.211  0.00  0.00     0.075 A 
HETATM   26  N   UNK N   1      36.247  13.642  14.391  0.00  0.00    -0.335 N 
HETATM   27  C   UNK N   1      36.373  13.995  15.688  0.00  0.00     0.142 A 
ATOM     28  HN  UNK N   1      36.801  14.043  13.635  1.00  0.00     0.168 HD
HETATM   29  S   UNK N   1      35.314  13.140  16.607  0.00  0.00    -0.064 SA
HETATM   30  C   UNK N   1      34.619  12.252  15.388  0.00  0.00     0.085 A 
BRANCH  27  31
HETATM   31  N   UNK N   1      37.262  14.983  16.152  0.00  0.00    -0.380 N 
HETATM   32  H   UNK N   1      37.811  15.520  15.536  0.00  0.00     0.158 HD
HETATM   33  H   UNK N   1      37.336  15.142  17.121  0.00  0.00     0.158 HD
ENDBRANCH  27  31
ENDBRANCH  20  25
ENDBRANCH   3  20
TORSDOF 8
ENDMDL
MODEL 2
REMARK VINA RESULT:      -7.1      9.397     12.371
REMARK  8 active torsions:
REMARK  status: ('A' for Active; 'I' for Inactive)
REMARK    1  A    between atoms: O_4  and  C_21 
REMARK    2  A    between atoms: O_7  and  N_10 
REMARK    3  A    between atoms: C_16  and  N_9 
REMARK       I    between atoms: N_9  and  C_22 
REMARK    4  A    between atoms: N_14  and  C_28 
REMARK    5  A    between atoms: C_18  and  C_21 
REMARK    6  A    between atoms: C_20  and  C_23 
REMARK    7  A    between atoms: C_22  and  C_24 
REMARK    8  A    between atoms: C_24  and  C_26 
ROOT
HETATM    1  O   UNK N   1      27.881  18.922   4.778  0.00  0.00    -0.266 OA
HETATM    2  N   UNK N   1      25.916  18.424   5.712  0.00  0.00    -0.340 N 
HETATM    3  C   UNK N   1      27.228  18.756   5.801  0.00  0.00     0.273 C 
HETATM    4  H   UNK N   1      25.388  18.352   6.540  0.00  0.00     0.163 HD
ENDROOT
BRANCH   2   5
HETATM    5  C   UNK N   1      25.262  18.172   4.447  0.00  0.00     0.211 A 
HETATM    6  C   UNK N   1      23.842  17.416   4.629  0.00  0.00     0.187 A 
HETATM    7  S   UNK N   1      23.551  16.070   3.447  0.00  0.00    -0.136 SA
HETATM    8  N   UNK N   1      23.222  18.606   4.133  0.00  0.00    -0.293 N 
HETATM    9  C   UNK N   1      21.759  16.286   3.711  0.00  0.00     0.117 C 
HETATM   10  C   UNK N   1      21.258  17.614   3.182  0.00  0.00    -0.016 C 
HETATM   11  C   UNK N   1      21.968  18.756   3.438  0.00  0.00     0.119 C 
HETATM   12  C   UNK N   1      24.338  19.274   4.034  0.00  0.00     0.251 A 
HETATM   13  O   UNK N   1      24.546  20.309   3.425  0.00  0.00    -0.271 OA
BRANCH  10  14
HETATM   14  C   UNK N   1      20.009  17.620   2.384  0.00  0.00     0.000 C 
HETATM   15  C   UNK N   1      19.975  17.221   1.111  0.00  0.00     0.012 C 
ENDBRANCH  10  14
BRANCH  11  16
HETATM   16  C   UNK N   1      21.522  20.106   2.939  0.00  0.00     0.194 C 
HETATM   17  O   UNK N   1      20.716  20.761   3.577  0.00  0.00    -0.645 OA
BRANCH  16  18
HETATM   18  O   UNK N   1      21.977  20.608   1.775  0.00  0.00    -0.772 OA
HETATM   19  H   UNK N   1      22.389  21.449   1.755  0.00  0.00     0.167 HD
ENDBRANCH  16  18
ENDBRANCH  11  16
ENDBRANCH   2   5
BRANCH   3  20
HETATM   20  C   UNK N   1      27.887  18.937   7.133  0.00  0.00     0.149 C 
HETATM   21  N   UNK N   1      27.437  19.777   8.011  0.00  0.00    -0.262 N 
ATOM     22  HN  UNK N   1      27.941  19.883   8.892  1.00  0.00     0.194 HD
BRANCH  21  23
HETATM   23  O   UNK N   1      26.354  20.498   7.810  0.00  0.00    -0.289 OA
HETATM   24  H   UNK N   1      25.695  20.200   7.215  0.00  0.00     0.244 HD
ENDBRANCH  21  23
BRANCH  20  25
HETATM   25  C   UNK N   1      29.103  18.155   7.462  0.00  0.00     0.075 A 
HETATM   26  N   UNK N   1      29.741  17.370   6.521  0.00  0.00    -0.335 N 
HETATM   27  C   UNK N   1      30.860  16.799   7.015  0.00  0.00     0.142 A 
ATOM     28  HN  UNK N   1      29.407  17.238   5.567  1.00  0.00     0.168 HD
HETATM   29  S   UNK N   1      31.073  17.246   8.581  0.00  0.00    -0.064 SA
HETATM   30  C   UNK N   1      29.731  18.212   8.728  0.00  0.00     0.085 A 
BRANCH  27  31
HETATM   31  N   UNK N   1      31.720  15.975   6.265  0.00  0.00    -0.380 N 
HETATM   32  H   UNK N   1      31.517  15.718   5.337  0.00  0.00     0.158 HD
HETATM   33  H   UNK N   1      32.550  15.646   6.681  0.00  0.00     0.158 HD
ENDBRANCH  27  31
ENDBRANCH  20  25
ENDBRANCH   3  20
TORSDOF 8
ENDMDL
MODEL 3
REMARK VINA RESULT:      -6.9      1.934      2.560
REMARK  8 active torsions:
REMARK  status: ('A' for Active; 'I' for Inactive)
REMARK    1  A    between atoms: O_4  and  C_21 
REMARK    2  A    between atoms: O_7  and  N_10 
REMARK    3  A    between atoms: C_16  and  N_9 
REMARK       I    between atoms: N_9  and  C_22 
REMARK    4  A    between atoms: N_14  and  C_28 
REMARK    5  A    between atoms: C_18  and  C_21 
REMARK    6  A    between atoms: C_20  and  C_23 
REMARK    7  A    between atoms: C_22  and  C_24 
REMARK    8  A    between atoms: C_24  and  C_26 
ROOT
HETATM    1  O   UNK N   1      37.295  13.178  12.108  0.00  0.00    -0.266 OA
HETATM    2  N   UNK N   1      36.073  15.044  12.190  0.00  0.00    -0.340 N 
HETATM    3  C   UNK N   1      36.595  13.935  12.770  0.00  0.00     0.273 C 
HETATM    4  H   UNK N   1      35.563  15.675  12.748  0.00  0.00     0.163 HD
ENDROOT
BRANCH   2   5
HETATM    5  C   UNK N   1      36.238  15.337  10.784  0.00  0.00     0.211 A 
HETATM    6  C   UNK N   1      35.137  14.586   9.866  0.00  0.00     0.187 A 
HETATM    7  S   UNK N   1      35.803  13.844   8.350  0.00  0.00    -0.136 SA
HETATM    8  N   UNK N   1      34.614  15.881   9.553  0.00  0.00    -0.293 N 
HETATM    9  C   UNK N   1      34.135  13.950   7.619  0.00  0.00     0.117 C 
HETATM   10  C   UNK N   1      33.698  15.383   7.395  0.00  0.00    -0.016 C 
HETATM   11  C   UNK N   1      33.900  16.314   8.378  0.00  0.00     0.119 C 
HETATM   12  C   UNK N   1      35.441  16.521  10.333  0.00  0.00     0.251 A 
HETATM   13  O   UNK N   1      35.697  17.712  10.346  0.00  0.00    -0.271 OA
BRANCH  10  14
HETATM   14  C   UNK N   1      33.073  15.726   6.095  0.00  0.00     0.000 C 
HETATM   15  C   UNK N   1      31.793  15.461   5.828  0.00  0.00     0.012 C 
ENDBRANCH  10  14
BRANCH  11  16
HETATM   16  C   UNK N   1      33.488  17.754   8.215  0.00  0.00     0.194 C 
HETATM   17  O   UNK N   1      32.338  18.092   8.434  0.00  0.00    -0.645 OA
BRANCH  16  18
HETATM   18  O   UNK N   1      34.364  18.691   7.803  0.00  0.00    -0.772 OA
HETATM   19  H   UNK N   1      35.276  18.598   7.994  0.00  0.00     0.167 HD
ENDBRANCH  16  18
ENDBRANCH  11  16
ENDBRANCH   2   5
BRANCH   3  20
HETATM   20  C   UNK N   1      36.340  13.628  14.213  0.00  0.00     0.149 C 
HETATM   21  N   UNK N   1      36.819  14.366  15.164  0.00  0.00    -0.262 N 
ATOM     22  HN  UNK N   1      36.640  14.097  16.132  1.00  0.00     0.194 HD
BRANCH  21  23
HETATM   23  O   UNK N   1      37.527  15.451  14.931  0.00  0.00    -0.289 OA
HETATM   24  H   UNK N   1      38.198  15.441  14.278  0.00  0.00     0.244 HD
ENDBRANCH  21  23
BRANCH  20  25
HETATM   25  C   UNK N   1      35.536  12.437  14.580  0.00  0.00     0.075 A 
HETATM   26  N   UNK N   1      35.691  11.800  15.796  0.00  0.00    -0.335 N 
HETATM   27  C   UNK N   1      34.818  10.782  15.946  0.00  0.00     0.142 A 
ATOM     28  HN  UNK N   1      36.383  12.067  16.496  1.00  0.00     0.168 HD
HETATM   29  S   UNK N   1      33.864  10.660  14.615  0.00  0.00    -0.064 SA
HETATM   30  C   UNK N   1      34.516  11.918  13.751  0.00  0.00     0.085 A 
BRANCH  27  31
HETATM   31  N   UNK N   1      34.733   9.983  17.102  0.00  0.00    -0.380 N 
HETATM   32  H   UNK N   1      35.532   9.722  17.615  0.00  0.00     0.158 HD
HETATM   33  H   UNK N   1      33.848   9.675  17.408  0.00  0.00     0.158 HD
ENDBRANCH  27  31
ENDBRANCH  20  25
ENDBRANCH   3  20
TORSDOF 8
ENDMDL
MODEL 4
REMARK VINA RESULT:      -6.8      3.758      5.325
REMARK  8 active torsions:
REMARK  status: ('A' for Active; 'I' for Inactive)
REMARK    1  A    between atoms: O_4  and  C_21 
REMARK    2  A    between atoms: O_7  and  N_10 
REMARK    3  A    between atoms: C_16  and  N_9 
REMARK       I    between atoms: N_9  and  C_22 
REMARK    4  A    between atoms: N_14  and  C_28 
REMARK    5  A    between atoms: C_18  and  C_21 
REMARK    6  A    between atoms: C_20  and  C_23 
REMARK    7  A    between atoms: C_22  and  C_24 
REMARK    8  A    between atoms: C_24  and  C_26 
ROOT
HETATM    1  O   UNK N   1      33.257  14.385   9.173  0.00  0.00    -0.266 OA
HETATM    2  N   UNK N   1      32.495  16.483   9.207  0.00  0.00    -0.340 N 
HETATM    3  C   UNK N   1      33.400  15.537   9.562  0.00  0.00     0.273 C 
HETATM    4  H   UNK N   1      32.654  17.416   9.476  0.00  0.00     0.163 HD
ENDROOT
BRANCH   2   5
HETATM    5  C   UNK N   1      31.304  16.172   8.448  0.00  0.00     0.211 A 
HETATM    6  C   UNK N   1      30.459  17.497   8.060  0.00  0.00     0.187 A 
HETATM    7  S   UNK N   1      28.665  17.332   8.274  0.00  0.00    -0.136 SA
HETATM    8  N   UNK N   1      30.786  17.224   6.694  0.00  0.00    -0.293 N 
HETATM    9  C   UNK N   1      28.441  18.665   7.049  0.00  0.00     0.117 C 
HETATM   10  C   UNK N   1      28.880  18.245   5.661  0.00  0.00    -0.016 C 
HETATM   11  C   UNK N   1      30.063  17.575   5.498  0.00  0.00     0.119 C 
HETATM   12  C   UNK N   1      31.531  16.188   6.968  0.00  0.00     0.251 A 
HETATM   13  O   UNK N   1      31.929  15.323   6.208  0.00  0.00    -0.271 OA
BRANCH  10  14
HETATM   14  C   UNK N   1      27.990  18.570   4.521  0.00  0.00     0.000 C 
HETATM   15  C   UNK N   1      27.625  19.821   4.236  0.00  0.00     0.012 C 
ENDBRANCH  10  14
BRANCH  11  16
HETATM   16  C   UNK N   1      30.553  17.131   4.144  0.00  0.00     0.194 C 
HETATM   17  O   UNK N   1      30.072  16.148   3.609  0.00  0.00    -0.645 OA
BRANCH  16  18
HETATM   18  O   UNK N   1      31.544  17.786   3.509  0.00  0.00    -0.772 OA
HETATM   19  H   UNK N   1      32.337  17.338   3.288  0.00  0.00     0.167 HD
ENDBRANCH  16  18
ENDBRANCH  11  16
ENDBRANCH   2   5
BRANCH   3  20
HETATM   20  C   UNK N   1      34.583  15.886  10.412  0.00  0.00     0.149 C 
HETATM   21  N   UNK N   1      35.271  16.967  10.218  0.00  0.00    -0.262 N 
ATOM     22  HN  UNK N   1      36.086  17.142  10.807  1.00  0.00     0.194 HD
BRANCH  21  23
HETATM   23  O   UNK N   1      34.958  17.848   9.292  0.00  0.00    -0.289 OA
HETATM   24  H   UNK N   1      34.080  17.899   8.970  0.00  0.00     0.244 HD
ENDBRANCH  21  23
BRANCH  20  25
HETATM   25  C   UNK N   1      35.004  14.965  11.495  0.00  0.00     0.075 A 
HETATM   26  N   UNK N   1      34.368  13.758  11.714  0.00  0.00    -0.335 N 
HETATM   27  C   UNK N   1      34.952  13.053  12.706  0.00  0.00     0.142 A 
ATOM     28  HN  UNK N   1      33.555  13.438  11.189  1.00  0.00     0.168 HD
HETATM   29  S   UNK N   1      36.232  13.886  13.309  0.00  0.00    -0.064 SA
HETATM   30  C   UNK N   1      36.119  15.220  12.327  0.00  0.00     0.085 A 
BRANCH  27  31
HETATM   31  N   UNK N   1      34.529  11.775  13.116  0.00  0.00    -0.380 N 
HETATM   32  H   UNK N   1      34.594  11.480  14.054  0.00  0.00     0.158 HD
HETATM   33  H   UNK N   1      34.156  11.156  12.447  0.00  0.00     0.158 HD
ENDBRANCH  27  31
ENDBRANCH  20  25
ENDBRANCH   3  20
TORSDOF 8
ENDMDL
MODEL 5
REMARK VINA RESULT:      -6.4      2.829      8.426
REMARK  8 active torsions:
REMARK  status: ('A' for Active; 'I' for Inactive)
REMARK    1  A    between atoms: O_4  and  C_21 
REMARK    2  A    between atoms: O_7  and  N_10 
REMARK    3  A    between atoms: C_16  and  N_9 
REMARK       I    between atoms: N_9  and  C_22 
REMARK    4  A    between atoms: N_14  and  C_28 
REMARK    5  A    between atoms: C_18  and  C_21 
REMARK    6  A    between atoms: C_20  and  C_23 
REMARK    7  A    between atoms: C_22  and  C_24 
REMARK    8  A    between atoms: C_24  and  C_26 
ROOT
HETATM    1  O   UNK N   1      35.677  13.732   9.669  0.00  0.00    -0.266 OA
HETATM    2  N   UNK N   1      34.449  13.415  11.506  0.00  0.00    -0.340 N 
HETATM    3  C   UNK N   1      34.576  13.772  10.203  0.00  0.00     0.273 C 
HETATM    4  H   UNK N   1      33.550  13.394  11.906  0.00  0.00     0.163 HD
ENDROOT
BRANCH   2   5
HETATM    5  C   UNK N   1      35.585  13.063  12.329  0.00  0.00     0.211 A 
HETATM    6  C   UNK N   1      35.175  12.847  13.880  0.00  0.00     0.187 A 
HETATM    7  S   UNK N   1      36.325  13.590  15.071  0.00  0.00    -0.136 SA
HETATM    8  N   UNK N   1      35.519  11.468  13.708  0.00  0.00    -0.293 N 
HETATM    9  C   UNK N   1      35.741  12.391  16.315  0.00  0.00     0.117 C 
HETATM   10  C   UNK N   1      36.134  10.969  15.970  0.00  0.00    -0.016 C 
HETATM   11  C   UNK N   1      35.975  10.516  14.688  0.00  0.00     0.119 C 
HETATM   12  C   UNK N   1      35.795  11.585  12.438  0.00  0.00     0.251 A 
HETATM   13  O   UNK N   1      36.401  10.807  11.723  0.00  0.00    -0.271 OA
BRANCH  10  14
HETATM   14  C   UNK N   1      36.697  10.121  17.047  0.00  0.00     0.000 C 
HETATM   15  C   UNK N   1      35.948   9.643  18.042  0.00  0.00     0.012 C 
ENDBRANCH  10  14
BRANCH  11  16
HETATM   16  C   UNK N   1      36.348   9.113  14.282  0.00  0.00     0.194 C 
HETATM   17  O   UNK N   1      35.547   8.204  14.409  0.00  0.00    -0.645 OA
BRANCH  16  18
HETATM   18  O   UNK N   1      37.572   8.825  13.799  0.00  0.00    -0.772 OA
HETATM   19  H   UNK N   1      37.930   7.966  13.908  0.00  0.00     0.167 HD
ENDBRANCH  16  18
ENDBRANCH  11  16
ENDBRANCH   2   5
BRANCH   3  20
HETATM   20  C   UNK N   1      33.385  14.201   9.404  0.00  0.00     0.149 C 
HETATM   21  N   UNK N   1      32.464  13.364   9.046  0.00  0.00    -0.262 N 
ATOM     22  HN  UNK N   1      31.687  13.702   8.476  1.00  0.00     0.194 HD
BRANCH  21  23
HETATM   23  O   UNK N   1      32.490  12.093   9.389  0.00  0.00    -0.289 OA
HETATM   24  H   UNK N   1      33.309  11.652   9.495  0.00  0.00     0.244 HD
ENDBRANCH  21  23
BRANCH  20  25
HETATM   25  C   UNK N   1      33.254  15.617   8.984  0.00  0.00     0.075 A 
HETATM   26  N   UNK N   1      34.318  16.497   9.050  0.00  0.00    -0.335 N 
HETATM   27  C   UNK N   1      33.996  17.713   8.560  0.00  0.00     0.142 A 
ATOM     28  HN  UNK N   1      35.235  16.257   9.424  1.00  0.00     0.168 HD
HETATM   29  S   UNK N   1      32.436  17.718   8.048  0.00  0.00    -0.064 SA
HETATM   30  C   UNK N   1      32.067  16.144   8.426  0.00  0.00     0.085 A 
BRANCH  27  31
HETATM   31  N   UNK N   1      34.898  18.791   8.476  0.00  0.00    -0.380 N 
HETATM   32  H   UNK N   1      34.613  19.722   8.625  0.00  0.00     0.158 HD
HETATM   33  H   UNK N   1      35.843  18.610   8.263  0.00  0.00     0.158 HD
ENDBRANCH  27  31
ENDBRANCH  20  25
ENDBRANCH   3  20
TORSDOF 8
ENDMDL
MODEL 6
REMARK VINA RESULT:      -6.4      2.590      3.446
REMARK  8 active torsions:
REMARK  status: ('A' for Active; 'I' for Inactive)
REMARK    1  A    between atoms: O_4  and  C_21 
REMARK    2  A    between atoms: O_7  and  N_10 
REMARK    3  A    between atoms: C_16  and  N_9 
REMARK       I    between atoms: N_9  and  C_22 
REMARK    4  A    between atoms: N_14  and  C_28 
REMARK    5  A    between atoms: C_18  and  C_21 
REMARK    6  A    between atoms: C_20  and  C_23 
REMARK    7  A    between atoms: C_22  and  C_24 
REMARK    8  A    between atoms: C_24  and  C_26 
ROOT
HETATM    1  O   UNK N   1      35.271  15.599  11.966  0.00  0.00    -0.266 OA
HETATM    2  N   UNK N   1      34.892  14.109  10.348  0.00  0.00    -0.340 N 
HETATM    3  C   UNK N   1      35.595  14.552  11.420  0.00  0.00     0.273 C 
HETATM    4  H   UNK N   1      35.125  13.236   9.957  0.00  0.00     0.163 HD
ENDROOT
BRANCH   2   5
HETATM    5  C   UNK N   1      33.813  14.869   9.759  0.00  0.00     0.211 A 
HETATM    6  C   UNK N   1      34.317  15.808   8.540  0.00  0.00     0.187 A 
HETATM    7  S   UNK N   1      33.618  17.483   8.545  0.00  0.00    -0.136 SA
HETATM    8  N   UNK N   1      33.532  14.985   7.671  0.00  0.00    -0.293 N 
HETATM    9  C   UNK N   1      33.935  17.572   6.751  0.00  0.00     0.117 C 
HETATM   10  C   UNK N   1      33.069  16.606   5.968  0.00  0.00    -0.016 C 
HETATM   11  C   UNK N   1      32.918  15.320   6.412  0.00  0.00     0.119 C 
HETATM   12  C   UNK N   1      33.156  14.165   8.613  0.00  0.00     0.251 A 
HETATM   13  O   UNK N   1      32.251  13.349   8.586  0.00  0.00    -0.271 OA
BRANCH  10  14
HETATM   14  C   UNK N   1      32.399  17.106   4.744  0.00  0.00     0.000 C 
HETATM   15  C   UNK N   1      32.965  17.025   3.538  0.00  0.00     0.012 C 
ENDBRANCH  10  14
BRANCH  11  16
HETATM   16  C   UNK N   1      32.070  14.314   5.678  0.00  0.00     0.194 C 
HETATM   17  O   UNK N   1      32.553  13.636   4.788  0.00  0.00    -0.645 OA
BRANCH  16  18
HETATM   18  O   UNK N   1      30.763  14.156   5.965  0.00  0.00    -0.772 OA
HETATM   19  H   UNK N   1      30.316  13.374   5.706  0.00  0.00     0.167 HD
ENDBRANCH  16  18
ENDBRANCH  11  16
ENDBRANCH   2   5
BRANCH   3  20
HETATM   20  C   UNK N   1      36.754  13.770  11.957  0.00  0.00     0.149 C 
HETATM   21  N   UNK N   1      37.858  13.639  11.293  0.00  0.00    -0.262 N 
ATOM     22  HN  UNK N   1      38.607  13.070  11.691  1.00  0.00     0.194 HD
BRANCH  21  23
HETATM   23  O   UNK N   1      38.053  14.211  10.123  0.00  0.00    -0.289 OA
HETATM   24  H   UNK N   1      37.327  14.558   9.644  0.00  0.00     0.244 HD
ENDBRANCH  21  23
BRANCH  20  25
HETATM   25  C   UNK N   1      36.640  13.103  13.276  0.00  0.00     0.075 A 
HETATM   26  N   UNK N   1      36.012  13.709  14.348  0.00  0.00    -0.335 N 
HETATM   27  C   UNK N   1      35.966  12.902  15.428  0.00  0.00     0.142 A 
ATOM     28  HN  UNK N   1      35.629  14.654  14.325  1.00  0.00     0.168 HD
HETATM   29  S   UNK N   1      36.679  11.463  15.084  0.00  0.00    -0.064 SA
HETATM   30  C   UNK N   1      37.097  11.786  13.510  0.00  0.00     0.085 A 
BRANCH  27  31
HETATM   31  N   UNK N   1      35.356  13.253  16.647  0.00  0.00    -0.380 N 
HETATM   32  H   UNK N   1      35.504  14.129  17.071  0.00  0.00     0.158 HD
HETATM   33  H   UNK N   1      34.762  12.603  17.090  0.00  0.00     0.158 HD
ENDBRANCH  27  31
ENDBRANCH  20  25
ENDBRANCH   3  20
TORSDOF 8
ENDMDL
MODEL 7
REMARK VINA RESULT:      -6.3      2.421      3.174
REMARK  8 active torsions:
REMARK  status: ('A' for Active; 'I' for Inactive)
REMARK    1  A    between atoms: O_4  and  C_21 
REMARK    2  A    between atoms: O_7  and  N_10 
REMARK    3  A    between atoms: C_16  and  N_9 
REMARK       I    between atoms: N_9  and  C_22 
REMARK    4  A    between atoms: N_14  and  C_28 
REMARK    5  A    between atoms: C_18  and  C_21 
REMARK    6  A    between atoms: C_20  and  C_23 
REMARK    7  A    between atoms: C_22  and  C_24 
REMARK    8  A    between atoms: C_24  and  C_26 
ROOT
HETATM    1  O   UNK N   1      36.852  15.856  10.565  0.00  0.00    -0.266 OA
HETATM    2  N   UNK N   1      35.518  14.344   9.606  0.00  0.00    -0.340 N 
HETATM    3  C   UNK N   1      36.456  14.698  10.520  0.00  0.00     0.273 C 
HETATM    4  H   UNK N   1      35.165  13.426   9.621  0.00  0.00     0.163 HD
ENDROOT
BRANCH   2   5
HETATM    5  C   UNK N   1      35.018  15.266   8.610  0.00  0.00     0.211 A 
HETATM    6  C   UNK N   1      33.746  14.669   7.805  0.00  0.00     0.187 A 
HETATM    7  S   UNK N   1      33.790  14.955   6.014  0.00  0.00    -0.136 SA
HETATM    8  N   UNK N   1      32.962  15.699   8.416  0.00  0.00    -0.293 N 
HETATM    9  C   UNK N   1      31.974  14.790   5.988  0.00  0.00     0.117 C 
HETATM   10  C   UNK N   1      31.285  15.924   6.719  0.00  0.00    -0.016 C 
HETATM   11  C   UNK N   1      31.759  16.330   7.938  0.00  0.00     0.119 C 
HETATM   12  C   UNK N   1      33.946  16.170   9.133  0.00  0.00     0.251 A 
HETATM   13  O   UNK N   1      34.011  17.238   9.715  0.00  0.00    -0.271 OA
BRANCH  10  14
HETATM   14  C   UNK N   1      30.119  16.567   6.067  0.00  0.00     0.000 C 
HETATM   15  C   UNK N   1      30.250  17.388   5.024  0.00  0.00     0.012 C 
ENDBRANCH  10  14
BRANCH  11  16
HETATM   16  C   UNK N   1      31.118  17.452   8.713  0.00  0.00     0.194 C 
HETATM   17  O   UNK N   1      31.418  18.610   8.480  0.00  0.00    -0.645 OA
BRANCH  16  18
HETATM   18  O   UNK N   1      30.226  17.207   9.692  0.00  0.00    -0.772 OA
HETATM   19  H   UNK N   1      29.312  17.357   9.544  0.00  0.00     0.167 HD
ENDBRANCH  16  18
ENDBRANCH  11  16
ENDBRANCH   2   5
BRANCH   3  20
HETATM   20  C   UNK N   1      37.003  13.695  11.489  0.00  0.00     0.149 C 
HETATM   21  N   UNK N   1      38.194  13.201  11.364  0.00  0.00    -0.262 N 
ATOM     22  HN  UNK N   1      38.507  12.499  12.035  1.00  0.00     0.194 HD
BRANCH  21  23
HETATM   23  O   UNK N   1      39.016  13.572  10.405  0.00  0.00    -0.289 OA
HETATM   24  H   UNK N   1      38.786  13.430   9.508  0.00  0.00     0.244 HD
ENDBRANCH  21  23
BRANCH  20  25
HETATM   25  C   UNK N   1      36.159  13.228  12.615  0.00  0.00     0.075 A 
HETATM   26  N   UNK N   1      35.238  12.209  12.462  0.00  0.00    -0.335 N 
HETATM   27  C   UNK N   1      34.627  11.903  13.626  0.00  0.00     0.142 A 
ATOM     28  HN  UNK N   1      35.042  11.745  11.576  1.00  0.00     0.168 HD
HETATM   29  S   UNK N   1      35.204  12.857  14.831  0.00  0.00    -0.064 SA
HETATM   30  C   UNK N   1      36.286  13.735  13.928  0.00  0.00     0.085 A 
BRANCH  27  31
HETATM   31  N   UNK N   1      33.667  10.882  13.766  0.00  0.00    -0.380 N 
HETATM   32  H   UNK N   1      33.250  10.449  12.986  0.00  0.00     0.158 HD
HETATM   33  H   UNK N   1      33.406  10.592  14.670  0.00  0.00     0.158 HD
ENDBRANCH  27  31
ENDBRANCH  20  25
ENDBRANCH   3  20
TORSDOF 8
ENDMDL
MODEL 8
REMARK VINA RESULT:      -6.3      2.994      7.908
REMARK  8 active torsions:
REMARK  status: ('A' for Active; 'I' for Inactive)
REMARK    1  A    between atoms: O_4  and  C_21 
REMARK    2  A    between atoms: O_7  and  N_10 
REMARK    3  A    between atoms: C_16  and  N_9 
REMARK       I    between atoms: N_9  and  C_22 
REMARK    4  A    between atoms: N_14  and  C_28 
REMARK    5  A    between atoms: C_18  and  C_21 
REMARK    6  A    between atoms: C_20  and  C_23 
REMARK    7  A    between atoms: C_22  and  C_24 
REMARK    8  A    between atoms: C_24  and  C_26 
ROOT
HETATM    1  O   UNK N   1      34.947  16.339   7.038  0.00  0.00    -0.266 OA
HETATM    2  N   UNK N   1      34.121  15.475   8.923  0.00  0.00    -0.340 N 
HETATM    3  C   UNK N   1      34.203  16.467   8.002  0.00  0.00     0.273 C 
HETATM    4  H   UNK N   1      33.475  15.564   9.660  0.00  0.00     0.163 HD
ENDROOT
BRANCH   2   5
HETATM    5  C   UNK N   1      34.946  14.288   8.862  0.00  0.00     0.211 A 
HETATM    6  C   UNK N   1      35.818  14.077  10.209  0.00  0.00     0.187 A 
HETATM    7  S   UNK N   1      37.539  13.582   9.918  0.00  0.00    -0.136 SA
HETATM    8  N   UNK N   1      35.036  12.902  10.450  0.00  0.00    -0.293 N 
HETATM    9  C   UNK N   1      37.565  12.854  11.591  0.00  0.00     0.117 C 
HETATM   10  C   UNK N   1      36.649  11.652  11.706  0.00  0.00    -0.016 C 
HETATM   11  C   UNK N   1      35.388  11.710  11.178  0.00  0.00     0.119 C 
HETATM   12  C   UNK N   1      34.267  13.072   9.410  0.00  0.00     0.251 A 
HETATM   13  O   UNK N   1      33.520  12.266   8.884  0.00  0.00    -0.271 OA
BRANCH  10  14
HETATM   14  C   UNK N   1      37.171  10.441  12.384  0.00  0.00     0.000 C 
HETATM   15  C   UNK N   1      37.760  10.492  13.580  0.00  0.00     0.012 C 
ENDBRANCH  10  14
BRANCH  11  16
HETATM   16  C   UNK N   1      34.431  10.549  11.260  0.00  0.00     0.194 C 
HETATM   17  O   UNK N   1      33.766  10.371  12.266  0.00  0.00    -0.645 OA
BRANCH  16  18
HETATM   18  O   UNK N   1      34.306   9.671  10.246  0.00  0.00    -0.772 OA
HETATM   19  H   UNK N   1      33.720   8.943  10.324  0.00  0.00     0.167 HD
ENDBRANCH  16  18
ENDBRANCH  11  16
ENDBRANCH   2   5
BRANCH   3  20
HETATM   20  C   UNK N   1      33.384  17.714   8.140  0.00  0.00     0.149 C 
HETATM   21  N   UNK N   1      33.927  18.869   8.360  0.00  0.00    -0.262 N 
ATOM     22  HN  UNK N   1      33.322  19.682   8.475  1.00  0.00     0.194 HD
BRANCH  21  23
HETATM   23  O   UNK N   1      35.231  19.035   8.440  0.00  0.00    -0.289 OA
HETATM   24  H   UNK N   1      35.693  18.755   9.204  0.00  0.00     0.244 HD
ENDBRANCH  21  23
BRANCH  20  25
HETATM   25  C   UNK N   1      31.907  17.634   8.046  0.00  0.00     0.075 A 
HETATM   26  N   UNK N   1      31.085  18.175   9.017  0.00  0.00    -0.335 N 
HETATM   27  C   UNK N   1      29.779  18.046   8.700  0.00  0.00     0.142 A 
ATOM     28  HN  UNK N   1      31.424  18.619   9.869  1.00  0.00     0.168 HD
HETATM   29  S   UNK N   1      29.624  17.285   7.253  0.00  0.00    -0.064 SA
HETATM   30  C   UNK N   1      31.239  17.069   6.935  0.00  0.00     0.085 A 
BRANCH  27  31
HETATM   31  N   UNK N   1      28.725  18.537   9.494  0.00  0.00    -0.380 N 
HETATM   32  H   UNK N   1      28.255  19.374   9.277  0.00  0.00     0.158 HD
HETATM   33  H   UNK N   1      28.449  18.027  10.291  0.00  0.00     0.158 HD
ENDBRANCH  27  31
ENDBRANCH  20  25
ENDBRANCH   3  20
TORSDOF 8
ENDMDL
MODEL 9
REMARK VINA RESULT:      -6.3      2.591      4.100
REMARK  8 active torsions:
REMARK  status: ('A' for Active; 'I' for Inactive)
REMARK    1  A    between atoms: O_4  and  C_21 
REMARK    2  A    between atoms: O_7  and  N_10 
REMARK    3  A    between atoms: C_16  and  N_9 
REMARK       I    between atoms: N_9  and  C_22 
REMARK    4  A    between atoms: N_14  and  C_28 
REMARK    5  A    between atoms: C_18  and  C_21 
REMARK    6  A    between atoms: C_20  and  C_23 
REMARK    7  A    between atoms: C_22  and  C_24 
REMARK    8  A    between atoms: C_24  and  C_26 
ROOT
HETATM    1  O   UNK N   1      36.358  14.234   8.636  0.00  0.00    -0.266 OA
HETATM    2  N   UNK N   1      34.803  15.813   8.373  0.00  0.00    -0.340 N 
HETATM    3  C   UNK N   1      35.643  15.085   9.150  0.00  0.00     0.273 C 
HETATM    4  H   UNK N   1      34.279  16.535   8.789  0.00  0.00     0.163 HD
ENDROOT
BRANCH   2   5
HETATM    5  C   UNK N   1      34.648  15.570   6.956  0.00  0.00     0.211 A 
HETATM    6  C   UNK N   1      33.346  14.667   6.626  0.00  0.00     0.187 A 
HETATM    7  S   UNK N   1      33.627  13.370   5.389  0.00  0.00    -0.136 SA
HETATM    8  N   UNK N   1      32.799  15.817   5.971  0.00  0.00    -0.293 N 
HETATM    9  C   UNK N   1      31.839  13.390   5.028  0.00  0.00     0.117 C 
HETATM   10  C   UNK N   1      31.399  14.690   4.386  0.00  0.00    -0.016 C 
HETATM   11  C   UNK N   1      31.846  15.880   4.892  0.00  0.00     0.119 C 
HETATM   12  C   UNK N   1      33.800  16.597   6.273  0.00  0.00     0.251 A 
HETATM   13  O   UNK N   1      34.083  17.681   5.794  0.00  0.00    -0.271 OA
BRANCH  10  14
HETATM   14  C   UNK N   1      30.502  14.616   3.208  0.00  0.00     0.000 C 
HETATM   15  C   UNK N   1      29.205  14.324   3.318  0.00  0.00     0.012 C 
ENDBRANCH  10  14
BRANCH  11  16
HETATM   16  C   UNK N   1      31.445  17.206   4.297  0.00  0.00     0.194 C 
HETATM   17  O   UNK N   1      30.454  17.786   4.703  0.00  0.00    -0.645 OA
BRANCH  16  18
HETATM   18  O   UNK N   1      32.149  17.765   3.295  0.00  0.00    -0.772 OA
HETATM   19  H   UNK N   1      32.021  17.476   2.412  0.00  0.00     0.167 HD
ENDBRANCH  16  18
ENDBRANCH  11  16
ENDBRANCH   2   5
BRANCH   3  20
HETATM   20  C   UNK N   1      35.722  15.319  10.627  0.00  0.00     0.149 C 
HETATM   21  N   UNK N   1      35.716  16.511  11.133  0.00  0.00    -0.262 N 
ATOM     22  HN  UNK N   1      35.801  16.615  12.145  1.00  0.00     0.194 HD
BRANCH  21  23
HETATM   23  O   UNK N   1      35.604  17.594  10.393  0.00  0.00    -0.289 OA
HETATM   24  H   UNK N   1      35.071  18.308  10.682  0.00  0.00     0.244 HD
ENDBRANCH  21  23
BRANCH  20  25
HETATM   25  C   UNK N   1      35.831  14.161  11.548  0.00  0.00     0.075 A 
HETATM   26  N   UNK N   1      36.806  14.097  12.524  0.00  0.00    -0.335 N 
HETATM   27  C   UNK N   1      36.683  12.991  13.288  0.00  0.00     0.142 A 
ATOM     28  HN  UNK N   1      37.532  14.801  12.653  1.00  0.00     0.168 HD
HETATM   29  S   UNK N   1      35.399  12.101  12.783  0.00  0.00    -0.064 SA
HETATM   30  C   UNK N   1      34.912  13.087  11.539  0.00  0.00     0.085 A 
BRANCH  27  31
HETATM   31  N   UNK N   1      37.523  12.688  14.376  0.00  0.00    -0.380 N 
HETATM   32  H   UNK N   1      37.430  11.853  14.890  0.00  0.00     0.158 HD
HETATM   33  H   UNK N   1      38.226  13.330  14.631  0.00  0.00     0.158 HD
ENDBRANCH  27  31
ENDBRANCH  20  25
ENDBRANCH   3  20
TORSDOF 8
ENDMDL
