REMARK  4 active torsions:
REMARK  status: ('A' for Active; 'I' for Inactive)
REMARK    1  A    between atoms: O_3  and  C_24 
REMARK    2  A    between atoms: N_5  and  C_8 
REMARK    3  A    between atoms: N_6  and  C_15 
REMARK    4  A    between atoms: C_18  and  C_24 
ROOT
HETATM    1  F   UNK N   1       8.257   2.022   0.190  0.00  0.00    -0.204 F 
HETATM    2  O   UNK N   1       3.454   3.201   0.220  0.00  0.00    -0.286 OA
HETATM    3  N   UNK N   1       3.492  -0.786  -0.280  0.00  0.00    -0.350 N 
HETATM    4  C   UNK N   1       4.680  -0.104  -0.160  0.00  0.00     0.051 A 
HETATM    5  C   UNK N   1       2.306  -0.114  -0.228  0.00  0.00     0.114 A 
HETATM    6  C   UNK N   1       4.681   1.298   0.013  0.00  0.00     0.045 A 
HETATM    7  C   UNK N   1       5.908  -0.779  -0.206  0.00  0.00     0.063 A 
HETATM    8  C   UNK N   1       7.134  -0.110  -0.080  0.00  0.00     0.071 A 
HETATM    9  C   UNK N   1       2.253   1.275  -0.046  0.00  0.00     0.104 A 
HETATM   10  C   UNK N   1       3.461   1.988   0.069  0.00  0.00     0.202 A 
HETATM   11  C   UNK N   1       5.898   1.982   0.121  0.00  0.00     0.062 A 
HETATM   12  C   UNK N   1       7.116   1.299   0.073  0.00  0.00     0.143 A 
ENDROOT
BRANCH   8  13
HETATM   13  N   UNK N   1       8.353  -0.874  -0.108  0.00  0.00    -0.375 N 
HETATM   14  C   UNK N   1       9.644  -0.202   0.001  0.00  0.00     0.142 C 
HETATM   15  C   UNK N   1      10.842  -1.120  -0.222  0.00  0.00     0.133 C 
HETATM   16  N   UNK N   1      10.625  -2.392   0.441  0.00  0.00    -0.418 N 
HETATM   17  C   UNK N   1       9.586  -3.055  -0.324  0.00  0.00     0.133 C 
HETATM   18  H   UNK N   1      11.102  -2.745   1.270  0.00  0.00     0.153 HD
HETATM   19  C   UNK N   1       8.252  -2.334  -0.148  0.00  0.00     0.142 C 
ENDBRANCH   8  13
BRANCH   3  20
HETATM   20  C   UNK N   1       3.453  -2.239  -0.530  0.00  0.00     0.090 A 
HETATM   21  C   UNK N   1       2.653  -2.949   0.555  0.00  0.00     0.028 A 
HETATM   22  C   UNK N   1       4.156  -3.028   0.569  0.00  0.00     0.028 A 
ENDBRANCH   3  20
BRANCH   9  23
HETATM   23  C   UNK N   1       0.923   1.938   0.013  0.00  0.00     0.181 C 
HETATM   24  O   UNK N   1       0.832   3.149   0.146  0.00  0.00    -0.646 OA
BRANCH  23  25
HETATM   25  O   UNK N   1      -0.201   1.201  -0.078  0.00  0.00    -0.772 OA
HETATM   26  H   UNK N   1      -1.036   1.622  -0.141  0.00  0.00     0.167 HD
ENDBRANCH  23  25
ENDBRANCH   9  23
TORSDOF 4
