MODEL 1
REMARK VINA RESULT:      -7.8      0.000      0.000
REMARK  4 active torsions:
REMARK  status: ('A' for Active; 'I' for Inactive)
REMARK    1  A    between atoms: O_3  and  C_24 
REMARK    2  A    between atoms: N_5  and  C_8 
REMARK    3  A    between atoms: N_6  and  C_15 
REMARK    4  A    between atoms: C_18  and  C_24 
ROOT
HETATM    1  F   UNK N   1      30.870  16.604   2.481  0.00  0.00    -0.204 F 
HETATM    2  O   UNK N   1      34.301  17.651   5.885  0.00  0.00    -0.286 OA
HETATM    3  N   UNK N   1      30.877  17.404   7.974  0.00  0.00    -0.350 N 
HETATM    4  C   UNK N   1      30.861  17.199   6.614  0.00  0.00     0.051 A 
HETATM    5  C   UNK N   1      32.049  17.688   8.612  0.00  0.00     0.114 A 
HETATM    6  C   UNK N   1      32.057  17.285   5.868  0.00  0.00     0.045 A 
HETATM    7  C   UNK N   1      29.667  16.900   5.943  0.00  0.00     0.063 A 
HETATM    8  C   UNK N   1      29.622  16.680   4.559  0.00  0.00     0.071 A 
HETATM    9  C   UNK N   1      33.264  17.774   7.918  0.00  0.00     0.104 A 
HETATM   10  C   UNK N   1      33.262  17.575   6.525  0.00  0.00     0.202 A 
HETATM   11  C   UNK N   1      32.025  17.087   4.482  0.00  0.00     0.062 A 
HETATM   12  C   UNK N   1      30.829  16.791   3.823  0.00  0.00     0.143 A 
ENDROOT
BRANCH   8  13
HETATM   13  N   UNK N   1      28.364  16.350   3.944  0.00  0.00    -0.375 N 
HETATM   14  C   UNK N   1      27.365  17.388   3.712  0.00  0.00     0.142 C 
HETATM   15  C   UNK N   1      26.022  16.857   3.219  0.00  0.00     0.133 C 
HETATM   16  N   UNK N   1      26.230  15.814   2.233  0.00  0.00    -0.418 N 
HETATM   17  C   UNK N   1      26.753  14.681   2.973  0.00  0.00     0.133 C 
HETATM   18  H   UNK N   1      26.048  15.866   1.232  0.00  0.00     0.153 HD
HETATM   19  C   UNK N   1      28.164  14.977   3.476  0.00  0.00     0.142 C 
ENDBRANCH   8  13
BRANCH   3  20
HETATM   20  C   UNK N   1      29.639  17.389   8.776  0.00  0.00     0.090 A 
HETATM   21  C   UNK N   1      28.831  18.659   8.538  0.00  0.00     0.028 A 
HETATM   22  C   UNK N   1      29.616  18.506   9.813  0.00  0.00     0.028 A 
ENDBRANCH   3  20
BRANCH   9  23
HETATM   23  C   UNK N   1      34.504  18.076   8.682  0.00  0.00     0.181 C 
HETATM   24  O   UNK N   1      34.864  17.357   9.602  0.00  0.00    -0.646 OA
BRANCH  23  25
HETATM   25  O   UNK N   1      35.244  19.156   8.365  0.00  0.00    -0.772 OA
HETATM   26  H   UNK N   1      34.858  19.870   7.898  0.00  0.00     0.167 HD
ENDBRANCH  23  25
ENDBRANCH   9  23
TORSDOF 4
ENDMDL
MODEL 2
REMARK VINA RESULT:      -7.5      5.730      8.806
REMARK  4 active torsions:
REMARK  status: ('A' for Active; 'I' for Inactive)
REMARK    1  A    between atoms: O_3  and  C_24 
REMARK    2  A    between atoms: N_5  and  C_8 
REMARK    3  A    between atoms: N_6  and  C_15 
REMARK    4  A    between atoms: C_18  and  C_24 
ROOT
HETATM    1  F   UNK N   1      28.233  20.371   4.293  0.00  0.00    -0.204 F 
HETATM    2  O   UNK N   1      23.603  21.283   2.813  0.00  0.00    -0.286 OA
HETATM    3  N   UNK N   1      23.425  17.600   4.410  0.00  0.00    -0.350 N 
HETATM    4  C   UNK N   1      24.622  18.277   4.393  0.00  0.00     0.051 A 
HETATM    5  C   UNK N   1      22.303  18.175   3.890  0.00  0.00     0.114 A 
HETATM    6  C   UNK N   1      24.699  19.571   3.831  0.00  0.00     0.045 A 
HETATM    7  C   UNK N   1      25.784  17.703   4.927  0.00  0.00     0.063 A 
HETATM    8  C   UNK N   1      27.016  18.373   4.928  0.00  0.00     0.071 A 
HETATM    9  C   UNK N   1      22.325  19.461   3.333  0.00  0.00     0.104 A 
HETATM   10  C   UNK N   1      23.544  20.163   3.299  0.00  0.00     0.202 A 
HETATM   11  C   UNK N   1      25.927  20.244   3.808  0.00  0.00     0.062 A 
HETATM   12  C   UNK N   1      27.079  19.662   4.343  0.00  0.00     0.143 A 
ENDROOT
BRANCH   8  13
HETATM   13  N   UNK N   1      28.160  17.731   5.521  0.00  0.00    -0.375 N 
HETATM   14  C   UNK N   1      29.047  16.910   4.704  0.00  0.00     0.142 C 
HETATM   15  C   UNK N   1      30.106  16.157   5.504  0.00  0.00     0.133 C 
HETATM   16  N   UNK N   1      30.655  17.015   6.537  0.00  0.00    -0.418 N 
HETATM   17  C   UNK N   1      29.592  17.174   7.512  0.00  0.00     0.133 C 
HETATM   18  H   UNK N   1      31.589  17.421   6.570  0.00  0.00     0.153 HD
HETATM   19  C   UNK N   1      28.454  18.008   6.929  0.00  0.00     0.142 C 
ENDBRANCH   8  13
BRANCH   3  20
HETATM   20  C   UNK N   1      23.321  16.222   4.925  0.00  0.00     0.090 A 
HETATM   21  C   UNK N   1      21.861  15.797   5.030  0.00  0.00     0.028 A 
HETATM   22  C   UNK N   1      22.618  16.168   6.277  0.00  0.00     0.028 A 
ENDBRANCH   3  20
BRANCH   9  23
HETATM   23  C   UNK N   1      21.059  20.029   2.796  0.00  0.00     0.181 C 
HETATM   24  O   UNK N   1      20.358  19.384   2.030  0.00  0.00    -0.646 OA
BRANCH  23  25
HETATM   25  O   UNK N   1      20.674  21.270   3.151  0.00  0.00    -0.772 OA
HETATM   26  H   UNK N   1      20.718  21.971   2.531  0.00  0.00     0.167 HD
ENDBRANCH  23  25
ENDBRANCH   9  23
TORSDOF 4
ENDMDL
MODEL 3
REMARK VINA RESULT:      -6.9      2.930      4.361
REMARK  4 active torsions:
REMARK  status: ('A' for Active; 'I' for Inactive)
REMARK    1  A    between atoms: O_3  and  C_24 
REMARK    2  A    between atoms: N_5  and  C_8 
REMARK    3  A    between atoms: N_6  and  C_15 
REMARK    4  A    between atoms: C_18  and  C_24 
ROOT
HETATM    1  F   UNK N   1      26.627  20.434   7.434  0.00  0.00    -0.204 F 
HETATM    2  O   UNK N   1      30.586  18.199   9.381  0.00  0.00    -0.286 OA
HETATM    3  N   UNK N   1      30.198  16.534   5.744  0.00  0.00    -0.350 N 
HETATM    4  C   UNK N   1      29.309  17.502   6.148  0.00  0.00     0.051 A 
HETATM    5  C   UNK N   1      31.207  16.140   6.573  0.00  0.00     0.114 A 
HETATM    6  C   UNK N   1      29.432  18.093   7.425  0.00  0.00     0.045 A 
HETATM    7  C   UNK N   1      28.268  17.922   5.307  0.00  0.00     0.063 A 
HETATM    8  C   UNK N   1      27.351  18.912   5.690  0.00  0.00     0.071 A 
HETATM    9  C   UNK N   1      31.380  16.705   7.844  0.00  0.00     0.104 A 
HETATM   10  C   UNK N   1      30.472  17.690   8.275  0.00  0.00     0.202 A 
HETATM   11  C   UNK N   1      28.513  19.069   7.828  0.00  0.00     0.062 A 
HETATM   12  C   UNK N   1      27.479  19.480   6.983  0.00  0.00     0.143 A 
ENDROOT
BRANCH   8  13
HETATM   13  N   UNK N   1      26.327  19.312   4.762  0.00  0.00    -0.375 N 
HETATM   14  C   UNK N   1      24.954  18.848   4.939  0.00  0.00     0.142 C 
HETATM   15  C   UNK N   1      24.024  19.208   3.784  0.00  0.00     0.133 C 
HETATM   16  N   UNK N   1      24.283  20.565   3.340  0.00  0.00    -0.418 N 
HETATM   17  C   UNK N   1      25.577  20.518   2.687  0.00  0.00     0.133 C 
HETATM   18  H   UNK N   1      23.682  21.379   3.463  0.00  0.00     0.153 HD
HETATM   19  C   UNK N   1      26.682  20.265   3.710  0.00  0.00     0.142 C 
ENDBRANCH   8  13
BRANCH   3  20
HETATM   20  C   UNK N   1      30.060  15.846   4.447  0.00  0.00     0.090 A 
HETATM   21  C   UNK N   1      31.348  15.114   4.088  0.00  0.00     0.028 A 
HETATM   22  C   UNK N   1      31.011  16.408   3.397  0.00  0.00     0.028 A 
ENDBRANCH   3  20
BRANCH   9  23
HETATM   23  C   UNK N   1      32.511  16.235   8.688  0.00  0.00     0.181 C 
HETATM   24  O   UNK N   1      32.768  15.044   8.785  0.00  0.00    -0.646 OA
BRANCH  23  25
HETATM   25  O   UNK N   1      33.266  17.126   9.358  0.00  0.00    -0.772 OA
HETATM   26  H   UNK N   1      33.441  17.969   8.987  0.00  0.00     0.167 HD
ENDBRANCH  23  25
ENDBRANCH   9  23
TORSDOF 4
ENDMDL
MODEL 4
REMARK VINA RESULT:      -6.9      7.755      9.848
REMARK  4 active torsions:
REMARK  status: ('A' for Active; 'I' for Inactive)
REMARK    1  A    between atoms: O_3  and  C_24 
REMARK    2  A    between atoms: N_5  and  C_8 
REMARK    3  A    between atoms: N_6  and  C_15 
REMARK    4  A    between atoms: C_18  and  C_24 
ROOT
HETATM    1  F   UNK N   1      24.142  16.788   3.800  0.00  0.00    -0.204 F 
HETATM    2  O   UNK N   1      20.836  18.756   6.908  0.00  0.00    -0.286 OA
HETATM    3  N   UNK N   1      21.253  14.965   8.175  0.00  0.00    -0.350 N 
HETATM    4  C   UNK N   1      21.979  15.404   7.093  0.00  0.00     0.051 A 
HETATM    5  C   UNK N   1      20.397  15.811   8.817  0.00  0.00     0.114 A 
HETATM    6  C   UNK N   1      21.839  16.733   6.635  0.00  0.00     0.045 A 
HETATM    7  C   UNK N   1      22.867  14.550   6.424  0.00  0.00     0.063 A 
HETATM    8  C   UNK N   1      23.624  14.973   5.322  0.00  0.00     0.071 A 
HETATM    9  C   UNK N   1      20.232  17.142   8.409  0.00  0.00     0.104 A 
HETATM   10  C   UNK N   1      20.961  17.604   7.297  0.00  0.00     0.202 A 
HETATM   11  C   UNK N   1      22.575  17.164   5.524  0.00  0.00     0.062 A 
HETATM   12  C   UNK N   1      23.456  16.304   4.865  0.00  0.00     0.143 A 
ENDROOT
BRANCH   8  13
HETATM   13  N   UNK N   1      24.536  14.047   4.705  0.00  0.00    -0.375 N 
HETATM   14  C   UNK N   1      24.067  13.133   3.668  0.00  0.00     0.142 C 
HETATM   15  C   UNK N   1      25.102  12.098   3.238  0.00  0.00     0.133 C 
HETATM   16  N   UNK N   1      26.409  12.718   3.125  0.00  0.00    -0.418 N 
HETATM   17  C   UNK N   1      26.817  13.011   4.486  0.00  0.00     0.133 C 
HETATM   18  H   UNK N   1      26.930  12.908   2.270  0.00  0.00     0.153 HD
HETATM   19  C   UNK N   1      25.951  14.121   5.075  0.00  0.00     0.142 C 
ENDBRANCH   8  13
BRANCH   3  20
HETATM   20  C   UNK N   1      21.320  13.566   8.639  0.00  0.00     0.090 A 
HETATM   21  C   UNK N   1      20.714  13.433  10.030  0.00  0.00     0.028 A 
HETATM   22  C   UNK N   1      22.210  13.413   9.867  0.00  0.00     0.028 A 
ENDBRANCH   3  20
BRANCH   9  23
HETATM   23  C   UNK N   1      19.290  18.010   9.165  0.00  0.00     0.181 C 
HETATM   24  O   UNK N   1      18.139  17.655   9.372  0.00  0.00    -0.646 OA
BRANCH  23  25
HETATM   25  O   UNK N   1      19.701  19.205   9.630  0.00  0.00    -0.772 OA
HETATM   26  H   UNK N   1      20.513  19.571   9.336  0.00  0.00     0.167 HD
ENDBRANCH  23  25
ENDBRANCH   9  23
TORSDOF 4
ENDMDL
MODEL 5
REMARK VINA RESULT:      -6.8      4.075      5.796
REMARK  4 active torsions:
REMARK  status: ('A' for Active; 'I' for Inactive)
REMARK    1  A    between atoms: O_3  and  C_24 
REMARK    2  A    between atoms: N_5  and  C_8 
REMARK    3  A    between atoms: N_6  and  C_15 
REMARK    4  A    between atoms: C_18  and  C_24 
ROOT
HETATM    1  F   UNK N   1      33.719  18.634   7.387  0.00  0.00    -0.204 F 
HETATM    2  O   UNK N   1      35.360  16.508  11.540  0.00  0.00    -0.286 OA
HETATM    3  N   UNK N   1      33.969  13.444   9.341  0.00  0.00    -0.350 N 
HETATM    4  C   UNK N   1      33.905  14.724   8.842  0.00  0.00     0.051 A 
HETATM    5  C   UNK N   1      34.503  13.214  10.575  0.00  0.00     0.114 A 
HETATM    6  C   UNK N   1      34.388  15.810   9.606  0.00  0.00     0.045 A 
HETATM    7  C   UNK N   1      33.365  14.979   7.574  0.00  0.00     0.063 A 
HETATM    8  C   UNK N   1      33.293  16.272   7.038  0.00  0.00     0.071 A 
HETATM    9  C   UNK N   1      35.006  14.256  11.367  0.00  0.00     0.104 A 
HETATM   10  C   UNK N   1      34.939  15.573  10.874  0.00  0.00     0.202 A 
HETATM   11  C   UNK N   1      34.305  17.110   9.091  0.00  0.00     0.062 A 
HETATM   12  C   UNK N   1      33.763  17.352   7.826  0.00  0.00     0.143 A 
ENDROOT
BRANCH   8  13
HETATM   13  N   UNK N   1      32.751  16.452   5.717  0.00  0.00    -0.375 N 
HETATM   14  C   UNK N   1      31.410  17.000   5.541  0.00  0.00     0.142 C 
HETATM   15  C   UNK N   1      30.909  16.965   4.100  0.00  0.00     0.133 C 
HETATM   16  N   UNK N   1      31.975  17.345   3.193  0.00  0.00    -0.418 N 
HETATM   17  C   UNK N   1      32.915  16.240   3.216  0.00  0.00     0.133 C 
HETATM   18  H   UNK N   1      32.049  18.207   2.653  0.00  0.00     0.153 HD
HETATM   19  C   UNK N   1      33.615  16.164   4.571  0.00  0.00     0.142 C 
ENDBRANCH   8  13
BRANCH   3  20
HETATM   20  C   UNK N   1      33.414  12.295   8.603  0.00  0.00     0.090 A 
HETATM   21  C   UNK N   1      33.886  10.983   9.218  0.00  0.00     0.028 A 
HETATM   22  C   UNK N   1      34.504  11.464   7.933  0.00  0.00     0.028 A 
ENDBRANCH   3  20
BRANCH   9  23
HETATM   23  C   UNK N   1      35.585  13.928  12.697  0.00  0.00     0.181 C 
HETATM   24  O   UNK N   1      34.892  13.444  13.579  0.00  0.00    -0.646 OA
BRANCH  23  25
HETATM   25  O   UNK N   1      36.888  14.167  12.942  0.00  0.00    -0.772 OA
HETATM   26  H   UNK N   1      37.177  15.036  13.142  0.00  0.00     0.167 HD
ENDBRANCH  23  25
ENDBRANCH   9  23
TORSDOF 4
ENDMDL
MODEL 6
REMARK VINA RESULT:      -6.8      3.868      7.232
REMARK  4 active torsions:
REMARK  status: ('A' for Active; 'I' for Inactive)
REMARK    1  A    between atoms: O_3  and  C_24 
REMARK    2  A    between atoms: N_5  and  C_8 
REMARK    3  A    between atoms: N_6  and  C_15 
REMARK    4  A    between atoms: C_18  and  C_24 
ROOT
HETATM    1  F   UNK N   1      30.236  18.720   9.793  0.00  0.00    -0.204 F 
HETATM    2  O   UNK N   1      26.736  19.699   6.438  0.00  0.00    -0.286 OA
HETATM    3  N   UNK N   1      29.215  17.148   4.568  0.00  0.00    -0.350 N 
HETATM    4  C   UNK N   1      29.478  17.525   5.864  0.00  0.00     0.051 A 
HETATM    5  C   UNK N   1      28.118  17.636   3.920  0.00  0.00     0.114 A 
HETATM    6  C   UNK N   1      28.616  18.423   6.532  0.00  0.00     0.045 A 
HETATM    7  C   UNK N   1      30.598  17.030   6.547  0.00  0.00     0.063 A 
HETATM    8  C   UNK N   1      30.886  17.393   7.871  0.00  0.00     0.071 A 
HETATM    9  C   UNK N   1      27.226  18.520   4.542  0.00  0.00     0.104 A 
HETATM   10  C   UNK N   1      27.487  18.922   5.866  0.00  0.00     0.202 A 
HETATM   11  C   UNK N   1      28.902  18.809   7.847  0.00  0.00     0.062 A 
HETATM   12  C   UNK N   1      30.021  18.310   8.518  0.00  0.00     0.143 A 
ENDROOT
BRANCH   8  13
HETATM   13  N   UNK N   1      32.038  16.821   8.516  0.00  0.00    -0.375 N 
HETATM   14  C   UNK N   1      33.269  17.595   8.644  0.00  0.00     0.142 C 
HETATM   15  C   UNK N   1      34.450  16.798   9.188  0.00  0.00     0.133 C 
HETATM   16  N   UNK N   1      34.014  15.940  10.273  0.00  0.00    -0.418 N 
HETATM   17  C   UNK N   1      33.209  14.906   9.650  0.00  0.00     0.133 C 
HETATM   18  H   UNK N   1      34.228  16.042  11.265  0.00  0.00     0.153 HD
HETATM   19  C   UNK N   1      31.904  15.494   9.120  0.00  0.00     0.142 C 
ENDBRANCH   8  13
BRANCH   3  20
HETATM   20  C   UNK N   1      30.128  16.267   3.816  0.00  0.00     0.090 A 
HETATM   21  C   UNK N   1      29.414  15.651   2.619  0.00  0.00     0.028 A 
HETATM   22  C   UNK N   1      29.671  14.813   3.842  0.00  0.00     0.028 A 
ENDBRANCH   3  20
BRANCH   9  23
HETATM   23  C   UNK N   1      26.045  19.000   3.777  0.00  0.00     0.181 C 
HETATM   24  O   UNK N   1      25.214  18.214   3.348  0.00  0.00    -0.646 OA
BRANCH  23  25
HETATM   25  O   UNK N   1      25.881  20.318   3.549  0.00  0.00    -0.772 OA
HETATM   26  H   UNK N   1      25.020  20.675   3.451  0.00  0.00     0.167 HD
ENDBRANCH  23  25
ENDBRANCH   9  23
TORSDOF 4
ENDMDL
MODEL 7
REMARK VINA RESULT:      -6.6      4.562      6.392
REMARK  4 active torsions:
REMARK  status: ('A' for Active; 'I' for Inactive)
REMARK    1  A    between atoms: O_3  and  C_24 
REMARK    2  A    between atoms: N_5  and  C_8 
REMARK    3  A    between atoms: N_6  and  C_15 
REMARK    4  A    between atoms: C_18  and  C_24 
ROOT
HETATM    1  F   UNK N   1      22.790  16.049   3.328  0.00  0.00    -0.204 F 
HETATM    2  O   UNK N   1      27.201  15.448   5.482  0.00  0.00    -0.286 OA
HETATM    3  N   UNK N   1      26.616  19.424   5.515  0.00  0.00    -0.350 N 
HETATM    4  C   UNK N   1      25.657  18.599   4.975  0.00  0.00     0.051 A 
HETATM    5  C   UNK N   1      27.759  18.896   6.040  0.00  0.00     0.114 A 
HETATM    6  C   UNK N   1      25.852  17.200   4.954  0.00  0.00     0.045 A 
HETATM    7  C   UNK N   1      24.474  19.124   4.436  0.00  0.00     0.063 A 
HETATM    8  C   UNK N   1      23.477  18.307   3.884  0.00  0.00     0.071 A 
HETATM    9  C   UNK N   1      27.995  17.514   6.054  0.00  0.00     0.104 A 
HETATM   10  C   UNK N   1      27.027  16.658   5.496  0.00  0.00     0.202 A 
HETATM   11  C   UNK N   1      24.874  16.373   4.389  0.00  0.00     0.062 A 
HETATM   12  C   UNK N   1      23.699  16.907   3.854  0.00  0.00     0.143 A 
ENDROOT
BRANCH   8  13
HETATM   13  N   UNK N   1      22.276  18.916   3.376  0.00  0.00    -0.375 N 
HETATM   14  C   UNK N   1      22.331  20.225   2.733  0.00  0.00     0.142 C 
HETATM   15  C   UNK N   1      20.962  20.814   2.409  0.00  0.00     0.133 C 
HETATM   16  N   UNK N   1      20.087  19.783   1.886  0.00  0.00    -0.418 N 
HETATM   17  C   UNK N   1      19.788  18.920   3.013  0.00  0.00     0.133 C 
HETATM   18  H   UNK N   1      19.753  19.684   0.927  0.00  0.00     0.153 HD
HETATM   19  C   UNK N   1      21.033  18.145   3.436  0.00  0.00     0.142 C 
ENDBRANCH   8  13
BRANCH   3  20
HETATM   20  C   UNK N   1      26.479  20.892   5.493  0.00  0.00     0.090 A 
HETATM   21  C   UNK N   1      27.612  21.549   6.272  0.00  0.00     0.028 A 
HETATM   22  C   UNK N   1      26.240  21.466   6.886  0.00  0.00     0.028 A 
ENDBRANCH   3  20
BRANCH   9  23
HETATM   23  C   UNK N   1      29.259  17.010   6.654  0.00  0.00     0.181 C 
HETATM   24  O   UNK N   1      29.599  17.352   7.776  0.00  0.00    -0.646 OA
BRANCH  23  25
HETATM   25  O   UNK N   1      30.046  16.168   5.956  0.00  0.00    -0.772 OA
HETATM   26  H   UNK N   1      30.478  15.459   6.391  0.00  0.00     0.167 HD
ENDBRANCH  23  25
ENDBRANCH   9  23
TORSDOF 4
ENDMDL
MODEL 8
REMARK VINA RESULT:      -6.4     11.866     14.941
REMARK  4 active torsions:
REMARK  status: ('A' for Active; 'I' for Inactive)
REMARK    1  A    between atoms: O_3  and  C_24 
REMARK    2  A    between atoms: N_5  and  C_8 
REMARK    3  A    between atoms: N_6  and  C_15 
REMARK    4  A    between atoms: C_18  and  C_24 
ROOT
HETATM    1  F   UNK N   1      34.847  13.314  19.387  0.00  0.00    -0.204 F 
HETATM    2  O   UNK N   1      35.727  13.963  14.564  0.00  0.00    -0.286 OA
HETATM    3  N   UNK N   1      36.761  10.142  15.254  0.00  0.00    -0.350 N 
HETATM    4  C   UNK N   1      36.284  10.914  16.286  0.00  0.00     0.051 A 
HETATM    5  C   UNK N   1      36.881  10.668  14.001  0.00  0.00     0.114 A 
HETATM    6  C   UNK N   1      35.919  12.260  16.058  0.00  0.00     0.045 A 
HETATM    7  C   UNK N   1      36.148  10.389  17.579  0.00  0.00     0.063 A 
HETATM    8  C   UNK N   1      35.658  11.152  18.649  0.00  0.00     0.071 A 
HETATM    9  C   UNK N   1      36.522  11.993  13.721  0.00  0.00     0.104 A 
HETATM   10  C   UNK N   1      36.041  12.800  14.769  0.00  0.00     0.202 A 
HETATM   11  C   UNK N   1      35.447  13.040  17.121  0.00  0.00     0.062 A 
HETATM   12  C   UNK N   1      35.317  12.506  18.405  0.00  0.00     0.143 A 
ENDROOT
BRANCH   8  13
HETATM   13  N   UNK N   1      35.520  10.535  19.942  0.00  0.00    -0.375 N 
HETATM   14  C   UNK N   1      36.661  10.467  20.849  0.00  0.00     0.142 C 
HETATM   15  C   UNK N   1      36.410   9.632  22.101  0.00  0.00     0.133 C 
HETATM   16  N   UNK N   1      35.081   9.900  22.620  0.00  0.00    -0.418 N 
HETATM   17  C   UNK N   1      34.166   9.304  21.666  0.00  0.00     0.133 C 
HETATM   18  H   UNK N   1      34.842  10.402  23.474  0.00  0.00     0.153 HD
HETATM   19  C   UNK N   1      34.191  10.075  20.348  0.00  0.00     0.142 C 
ENDBRANCH   8  13
BRANCH   3  20
HETATM   20  C   UNK N   1      37.215   8.755  15.468  0.00  0.00     0.090 A 
HETATM   21  C   UNK N   1      37.305   8.009  14.143  0.00  0.00     0.028 A 
HETATM   22  C   UNK N   1      36.152   7.737  15.071  0.00  0.00     0.028 A 
ENDBRANCH   3  20
BRANCH   9  23
HETATM   23  C   UNK N   1      36.670  12.494  12.328  0.00  0.00     0.181 C 
HETATM   24  O   UNK N   1      36.222  11.862  11.384  0.00  0.00    -0.646 OA
BRANCH  23  25
HETATM   25  O   UNK N   1      37.306  13.659  12.096  0.00  0.00    -0.772 OA
HETATM   26  H   UNK N   1      36.814  14.442  11.944  0.00  0.00     0.167 HD
ENDBRANCH  23  25
ENDBRANCH   9  23
TORSDOF 4
ENDMDL
MODEL 9
REMARK VINA RESULT:      -6.4      3.711      7.074
REMARK  4 active torsions:
REMARK  status: ('A' for Active; 'I' for Inactive)
REMARK    1  A    between atoms: O_3  and  C_24 
REMARK    2  A    between atoms: N_5  and  C_8 
REMARK    3  A    between atoms: N_6  and  C_15 
REMARK    4  A    between atoms: C_18  and  C_24 
ROOT
HETATM    1  F   UNK N   1      35.003  13.984   7.213  0.00  0.00    -0.204 F 
HETATM    2  O   UNK N   1      31.296  15.486   4.304  0.00  0.00    -0.286 OA
HETATM    3  N   UNK N   1      30.303  16.843   7.953  0.00  0.00    -0.350 N 
HETATM    4  C   UNK N   1      31.473  16.141   7.784  0.00  0.00     0.051 A 
HETATM    5  C   UNK N   1      29.484  17.080   6.889  0.00  0.00     0.114 A 
HETATM    6  C   UNK N   1      31.832  15.655   6.507  0.00  0.00     0.045 A 
HETATM    7  C   UNK N   1      32.329  15.892   8.866  0.00  0.00     0.063 A 
HETATM    8  C   UNK N   1      33.531  15.184   8.721  0.00  0.00     0.071 A 
HETATM    9  C   UNK N   1      29.801  16.630   5.600  0.00  0.00     0.104 A 
HETATM   10  C   UNK N   1      30.991  15.901   5.412  0.00  0.00     0.202 A 
HETATM   11  C   UNK N   1      33.020  14.930   6.351  0.00  0.00     0.062 A 
HETATM   12  C   UNK N   1      33.865  14.687   7.436  0.00  0.00     0.143 A 
ENDROOT
BRANCH   8  13
HETATM   13  N   UNK N   1      34.373  14.993   9.872  0.00  0.00    -0.375 N 
HETATM   14  C   UNK N   1      34.569  13.657  10.425  0.00  0.00     0.142 C 
HETATM   15  C   UNK N   1      35.339  13.638  11.742  0.00  0.00     0.133 C 
HETATM   16  N   UNK N   1      36.447  14.572  11.685  0.00  0.00    -0.418 N 
HETATM   17  C   UNK N   1      35.843  15.891  11.705  0.00  0.00     0.133 C 
HETATM   18  H   UNK N   1      37.441  14.349  11.641  0.00  0.00     0.153 HD
HETATM   19  C   UNK N   1      35.094  16.153  10.401  0.00  0.00     0.142 C 
ENDBRANCH   8  13
BRANCH   3  20
HETATM   20  C   UNK N   1      29.861  17.306   9.282  0.00  0.00     0.090 A 
HETATM   21  C   UNK N   1      28.722  18.309   9.150  0.00  0.00     0.028 A 
HETATM   22  C   UNK N   1      30.107  18.798   9.479  0.00  0.00     0.028 A 
ENDBRANCH   3  20
BRANCH   9  23
HETATM   23  C   UNK N   1      28.866  16.937   4.485  0.00  0.00     0.181 C 
HETATM   24  O   UNK N   1      28.424  18.065   4.330  0.00  0.00    -0.646 OA
BRANCH  23  25
HETATM   25  O   UNK N   1      28.494  15.963   3.631  0.00  0.00    -0.772 OA
HETATM   26  H   UNK N   1      27.784  15.391   3.850  0.00  0.00     0.167 HD
ENDBRANCH  23  25
ENDBRANCH   9  23
TORSDOF 4
ENDMDL
