MODEL 1
REMARK VINA RESULT:      -6.2      0.000      0.000
REMARK  9 active torsions:
REMARK  status: ('A' for Active; 'I' for Inactive)
REMARK    1  A    between atoms: O_2  and  C_13 
REMARK    2  A    between atoms: O_2  and  C_21 
REMARK    3  A    between atoms: N_3  and  C_20 
REMARK    4  A    between atoms: C_4  and  C_6 
REMARK    5  A    between atoms: C_4  and  C_8 
REMARK    6  A    between atoms: C_5  and  C_7 
REMARK    7  A    between atoms: C_5  and  C_9 
REMARK    8  A    between atoms: C_7  and  C_12 
REMARK    9  A    between atoms: C_20  and  C_21 
ROOT
HETATM    1  C   UNK N   1      27.375  25.784  -5.398  0.00  0.00    -0.009 C 
HETATM    2  C   UNK N   1      26.742  25.231  -6.520  0.00  0.00    -0.035 C 
ENDROOT
BRANCH   1   3
HETATM    3  C   UNK N   1      28.372  24.998  -4.547  0.00  0.00    -0.024 A 
HETATM    4  C   UNK N   1      27.922  24.132  -3.531  0.00  0.00     0.015 A 
HETATM    5  C   UNK N   1      28.816  23.381  -2.761  0.00  0.00     0.037 A 
HETATM    6  C   UNK N   1      30.187  23.458  -3.003  0.00  0.00     0.068 A 
HETATM    7  C   UNK N   1      30.654  24.347  -3.979  0.00  0.00     0.037 A 
HETATM    8  C   UNK N   1      29.759  25.122  -4.715  0.00  0.00     0.015 A 
BRANCH   6   9
HETATM    9  O   UNK N   1      31.028  22.662  -2.295  0.00  0.00    -0.349 OA
BRANCH   9  10
HETATM   10  C   UNK N   1      31.933  21.769  -2.847  0.00  0.00     0.206 C 
BRANCH  10  11
HETATM   11  C   UNK N   1      31.301  20.721  -3.753  0.00  0.00     0.297 C 
BRANCH  11  12
HETATM   12  N   UNK N   1      32.046  20.663  -5.003  0.00  0.00     0.082 N 
HETATM   13  C   UNK N   1      31.190  21.187  -6.051  0.00  0.00     0.309 C 
HETATM   14  C   UNK N   1      33.183  21.562  -4.891  0.00  0.00     0.309 C 
ENDBRANCH  11  12
ENDBRANCH  10  11
ENDBRANCH   9  10
ENDBRANCH   6   9
ENDBRANCH   1   3
BRANCH   1  15
HETATM   15  C   UNK N   1      27.122  27.243  -4.998  0.00  0.00    -0.025 A 
HETATM   16  C   UNK N   1      27.858  28.312  -5.546  0.00  0.00     0.012 A 
HETATM   17  C   UNK N   1      27.608  29.636  -5.178  0.00  0.00     0.001 A 
HETATM   18  C   UNK N   1      26.611  29.924  -4.248  0.00  0.00     0.000 A 
HETATM   19  C   UNK N   1      25.866  28.888  -3.689  0.00  0.00     0.001 A 
HETATM   20  C   UNK N   1      26.118  27.565  -4.063  0.00  0.00     0.012 A 
ENDBRANCH   1  15
BRANCH   2  21
HETATM   21  C   UNK N   1      25.876  26.102  -7.405  0.00  0.00     0.055 C 
BRANCH  21  22
HETATM   22  C   UNK N   1      26.381  26.172  -8.833  0.00  0.00     0.119 C 
HETATM   23 Cl   UNK N   1      27.998  26.911  -8.832  0.00  0.00    -0.130 Cl
ENDBRANCH  21  22
ENDBRANCH   2  21
BRANCH   2  24
HETATM   24  C   UNK N   1      26.793  23.781  -6.950  0.00  0.00    -0.029 A 
HETATM   25  C   UNK N   1      25.645  22.971  -6.997  0.00  0.00     0.012 A 
HETATM   26  C   UNK N   1      25.712  21.649  -7.447  0.00  0.00     0.001 A 
HETATM   27  C   UNK N   1      26.926  21.123  -7.891  0.00  0.00     0.000 A 
HETATM   28  C   UNK N   1      28.067  21.926  -7.903  0.00  0.00     0.001 A 
HETATM   29  C   UNK N   1      27.995  23.246  -7.453  0.00  0.00     0.012 A 
ENDBRANCH   2  24
TORSDOF 9
ENDMDL
MODEL 2
REMARK VINA RESULT:      -6.0     11.628     13.877
REMARK  9 active torsions:
REMARK  status: ('A' for Active; 'I' for Inactive)
REMARK    1  A    between atoms: O_2  and  C_13 
REMARK    2  A    between atoms: O_2  and  C_21 
REMARK    3  A    between atoms: N_3  and  C_20 
REMARK    4  A    between atoms: C_4  and  C_6 
REMARK    5  A    between atoms: C_4  and  C_8 
REMARK    6  A    between atoms: C_5  and  C_7 
REMARK    7  A    between atoms: C_5  and  C_9 
REMARK    8  A    between atoms: C_7  and  C_12 
REMARK    9  A    between atoms: C_20  and  C_21 
ROOT
HETATM    1  C   UNK N   1      28.835  17.502   4.818  0.00  0.00    -0.009 C 
HETATM    2  C   UNK N   1      28.214  16.503   4.055  0.00  0.00    -0.035 C 
ENDROOT
BRANCH   1   3
HETATM    3  C   UNK N   1      30.277  17.383   5.310  0.00  0.00    -0.024 A 
HETATM    4  C   UNK N   1      31.355  17.572   4.422  0.00  0.00     0.015 A 
HETATM    5  C   UNK N   1      32.682  17.497   4.858  0.00  0.00     0.037 A 
HETATM    6  C   UNK N   1      32.966  17.255   6.202  0.00  0.00     0.068 A 
HETATM    7  C   UNK N   1      31.908  17.021   7.087  0.00  0.00     0.037 A 
HETATM    8  C   UNK N   1      30.589  17.057   6.638  0.00  0.00     0.015 A 
BRANCH   6   9
HETATM    9  O   UNK N   1      34.260  17.264   6.615  0.00  0.00    -0.349 OA
BRANCH   9  10
HETATM   10  C   UNK N   1      34.674  17.311   7.937  0.00  0.00     0.206 C 
BRANCH  10  11
HETATM   11  C   UNK N   1      34.884  15.944   8.574  0.00  0.00     0.297 C 
BRANCH  11  12
HETATM   12  N   UNK N   1      34.395  15.980   9.945  0.00  0.00     0.082 N 
HETATM   13  C   UNK N   1      34.256  14.608  10.398  0.00  0.00     0.309 C 
HETATM   14  C   UNK N   1      35.418  16.601  10.771  0.00  0.00     0.309 C 
ENDBRANCH  11  12
ENDBRANCH  10  11
ENDBRANCH   9  10
ENDBRANCH   6   9
ENDBRANCH   1   3
BRANCH   1  15
HETATM   15  C   UNK N   1      28.092  18.800   5.158  0.00  0.00    -0.025 A 
HETATM   16  C   UNK N   1      27.642  19.693   4.163  0.00  0.00     0.012 A 
HETATM   17  C   UNK N   1      26.958  20.866   4.489  0.00  0.00     0.001 A 
HETATM   18  C   UNK N   1      26.708  21.178   5.824  0.00  0.00     0.000 A 
HETATM   19  C   UNK N   1      27.140  20.316   6.830  0.00  0.00     0.001 A 
HETATM   20  C   UNK N   1      27.821  19.141   6.498  0.00  0.00     0.012 A 
ENDBRANCH   1  15
BRANCH   2  21
HETATM   21  C   UNK N   1      26.835  16.741   3.477  0.00  0.00     0.055 C 
BRANCH  21  22
HETATM   22  C   UNK N   1      25.729  16.170   4.342  0.00  0.00     0.119 C 
HETATM   23 Cl   UNK N   1      24.723  17.508   4.941  0.00  0.00    -0.130 Cl
ENDBRANCH  21  22
ENDBRANCH   2  21
BRANCH   2  24
HETATM   24  C   UNK N   1      28.772  15.128   3.760  0.00  0.00    -0.029 A 
HETATM   25  C   UNK N   1      28.875  14.132   4.747  0.00  0.00     0.012 A 
HETATM   26  C   UNK N   1      29.347  12.853   4.435  0.00  0.00     0.001 A 
HETATM   27  C   UNK N   1      29.694  12.538   3.121  0.00  0.00     0.000 A 
HETATM   28  C   UNK N   1      29.550  13.495   2.117  0.00  0.00     0.001 A 
HETATM   29  C   UNK N   1      29.078  14.771   2.433  0.00  0.00     0.012 A 
ENDBRANCH   2  24
TORSDOF 9
ENDMDL
MODEL 3
REMARK VINA RESULT:      -6.0     11.807     14.771
REMARK  9 active torsions:
REMARK  status: ('A' for Active; 'I' for Inactive)
REMARK    1  A    between atoms: O_2  and  C_13 
REMARK    2  A    between atoms: O_2  and  C_21 
REMARK    3  A    between atoms: N_3  and  C_20 
REMARK    4  A    between atoms: C_4  and  C_6 
REMARK    5  A    between atoms: C_4  and  C_8 
REMARK    6  A    between atoms: C_5  and  C_7 
REMARK    7  A    between atoms: C_5  and  C_9 
REMARK    8  A    between atoms: C_7  and  C_12 
REMARK    9  A    between atoms: C_20  and  C_21 
ROOT
HETATM    1  C   UNK N   1      29.687  17.511   5.870  0.00  0.00    -0.009 C 
HETATM    2  C   UNK N   1      30.023  17.648   7.224  0.00  0.00    -0.035 C 
ENDROOT
BRANCH   1   3
HETATM    3  C   UNK N   1      30.527  16.689   4.893  0.00  0.00    -0.024 A 
HETATM    4  C   UNK N   1      31.568  17.292   4.159  0.00  0.00     0.015 A 
HETATM    5  C   UNK N   1      32.369  16.553   3.283  0.00  0.00     0.037 A 
HETATM    6  C   UNK N   1      32.165  15.181   3.136  0.00  0.00     0.068 A 
HETATM    7  C   UNK N   1      31.108  14.575   3.823  0.00  0.00     0.037 A 
HETATM    8  C   UNK N   1      30.288  15.326   4.665  0.00  0.00     0.015 A 
BRANCH   6   9
HETATM    9  O   UNK N   1      33.005  14.471   2.339  0.00  0.00    -0.349 OA
BRANCH   9  10
HETATM   10  C   UNK N   1      34.383  14.415   2.482  0.00  0.00     0.206 C 
BRANCH  10  11
HETATM   11  C   UNK N   1      34.858  13.464   3.572  0.00  0.00     0.297 C 
BRANCH  11  12
HETATM   12  N   UNK N   1      35.333  14.243   4.707  0.00  0.00     0.082 N 
HETATM   13  C   UNK N   1      34.431  13.999   5.817  0.00  0.00     0.309 C 
HETATM   14  C   UNK N   1      36.636  13.726   5.093  0.00  0.00     0.309 C 
ENDBRANCH  11  12
ENDBRANCH  10  11
ENDBRANCH   9  10
ENDBRANCH   6   9
ENDBRANCH   1   3
BRANCH   1  15
HETATM   15  C   UNK N   1      28.411  18.156   5.313  0.00  0.00    -0.025 A 
HETATM   16  C   UNK N   1      28.389  19.477   4.822  0.00  0.00     0.012 A 
HETATM   17  C   UNK N   1      27.221  20.046   4.309  0.00  0.00     0.001 A 
HETATM   18  C   UNK N   1      26.041  19.304   4.275  0.00  0.00     0.000 A 
HETATM   19  C   UNK N   1      26.032  17.996   4.753  0.00  0.00     0.001 A 
HETATM   20  C   UNK N   1      27.204  17.430   5.263  0.00  0.00     0.012 A 
ENDBRANCH   1  15
BRANCH   2  21
HETATM   21  C   UNK N   1      29.076  18.353   8.170  0.00  0.00     0.055 C 
BRANCH  21  22
HETATM   22  C   UNK N   1      28.189  17.392   8.938  0.00  0.00     0.119 C 
HETATM   23 Cl   UNK N   1      29.003  16.955  10.457  0.00  0.00    -0.130 Cl
ENDBRANCH  21  22
ENDBRANCH   2  21
BRANCH   2  24
HETATM   24  C   UNK N   1      31.307  17.183   7.877  0.00  0.00    -0.029 A 
HETATM   25  C   UNK N   1      31.534  15.837   8.213  0.00  0.00     0.012 A 
HETATM   26  C   UNK N   1      32.749  15.427   8.769  0.00  0.00     0.001 A 
HETATM   27  C   UNK N   1      33.774  16.353   8.968  0.00  0.00     0.000 A 
HETATM   28  C   UNK N   1      33.590  17.683   8.592  0.00  0.00     0.001 A 
HETATM   29  C   UNK N   1      32.374  18.089   8.037  0.00  0.00     0.012 A 
ENDBRANCH   2  24
TORSDOF 9
ENDMDL
MODEL 4
REMARK VINA RESULT:      -6.0     11.779     14.625
REMARK  9 active torsions:
REMARK  status: ('A' for Active; 'I' for Inactive)
REMARK    1  A    between atoms: O_2  and  C_13 
REMARK    2  A    between atoms: O_2  and  C_21 
REMARK    3  A    between atoms: N_3  and  C_20 
REMARK    4  A    between atoms: C_4  and  C_6 
REMARK    5  A    between atoms: C_4  and  C_8 
REMARK    6  A    between atoms: C_5  and  C_7 
REMARK    7  A    between atoms: C_5  and  C_9 
REMARK    8  A    between atoms: C_7  and  C_12 
REMARK    9  A    between atoms: C_20  and  C_21 
ROOT
HETATM    1  C   UNK N   1      30.067  17.309   5.712  0.00  0.00    -0.009 C 
HETATM    2  C   UNK N   1      30.235  17.362   7.103  0.00  0.00    -0.035 C 
ENDROOT
BRANCH   1   3
HETATM    3  C   UNK N   1      31.129  16.731   4.777  0.00  0.00    -0.024 A 
HETATM    4  C   UNK N   1      31.232  15.339   4.581  0.00  0.00     0.015 A 
HETATM    5  C   UNK N   1      32.177  14.792   3.707  0.00  0.00     0.037 A 
HETATM    6  C   UNK N   1      33.031  15.626   2.986  0.00  0.00     0.068 A 
HETATM    7  C   UNK N   1      32.972  17.008   3.203  0.00  0.00     0.037 A 
HETATM    8  C   UNK N   1      32.055  17.543   4.106  0.00  0.00     0.015 A 
BRANCH   6   9
HETATM    9  O   UNK N   1      33.886  15.075   2.087  0.00  0.00    -0.349 OA
BRANCH   9  10
HETATM   10  C   UNK N   1      34.454  13.815   2.195  0.00  0.00     0.206 C 
BRANCH  10  11
HETATM   11  C   UNK N   1      34.330  12.965   0.938  0.00  0.00     0.297 C 
BRANCH  11  12
HETATM   12  N   UNK N   1      32.965  12.467   0.835  0.00  0.00     0.082 N 
HETATM   13  C   UNK N   1      32.864  11.713  -0.400  0.00  0.00     0.309 C 
HETATM   14  C   UNK N   1      32.744  11.533   1.926  0.00  0.00     0.309 C 
ENDBRANCH  11  12
ENDBRANCH  10  11
ENDBRANCH   9  10
ENDBRANCH   6   9
ENDBRANCH   1   3
BRANCH   1  15
HETATM   15  C   UNK N   1      28.765  17.796   5.064  0.00  0.00    -0.025 A 
HETATM   16  C   UNK N   1      28.520  19.158   4.798  0.00  0.00     0.012 A 
HETATM   17  C   UNK N   1      27.333  19.584   4.198  0.00  0.00     0.001 A 
HETATM   18  C   UNK N   1      26.357  18.653   3.848  0.00  0.00     0.000 A 
HETATM   19  C   UNK N   1      26.569  17.299   4.099  0.00  0.00     0.001 A 
HETATM   20  C   UNK N   1      27.760  16.878   4.696  0.00  0.00     0.012 A 
ENDBRANCH   1  15
BRANCH   2  21
HETATM   21  C   UNK N   1      29.091  17.812   7.986  0.00  0.00     0.055 C 
BRANCH  21  22
HETATM   22  C   UNK N   1      29.545  18.209   9.377  0.00  0.00     0.119 C 
HETATM   23 Cl   UNK N   1      29.087  16.923  10.516  0.00  0.00    -0.130 Cl
ENDBRANCH  21  22
ENDBRANCH   2  21
BRANCH   2  24
HETATM   24  C   UNK N   1      31.506  17.045   7.862  0.00  0.00    -0.029 A 
HETATM   25  C   UNK N   1      31.759  15.771   8.400  0.00  0.00     0.012 A 
HETATM   26  C   UNK N   1      32.964  15.490   9.052  0.00  0.00     0.001 A 
HETATM   27  C   UNK N   1      33.951  16.472   9.149  0.00  0.00     0.000 A 
HETATM   28  C   UNK N   1      33.741  17.726   8.576  0.00  0.00     0.001 A 
HETATM   29  C   UNK N   1      32.537  18.001   7.925  0.00  0.00     0.012 A 
ENDBRANCH   2  24
TORSDOF 9
ENDMDL
MODEL 5
REMARK VINA RESULT:      -5.9     10.952     13.657
REMARK  9 active torsions:
REMARK  status: ('A' for Active; 'I' for Inactive)
REMARK    1  A    between atoms: O_2  and  C_13 
REMARK    2  A    between atoms: O_2  and  C_21 
REMARK    3  A    between atoms: N_3  and  C_20 
REMARK    4  A    between atoms: C_4  and  C_6 
REMARK    5  A    between atoms: C_4  and  C_8 
REMARK    6  A    between atoms: C_5  and  C_7 
REMARK    7  A    between atoms: C_5  and  C_9 
REMARK    8  A    between atoms: C_7  and  C_12 
REMARK    9  A    between atoms: C_20  and  C_21 
ROOT
HETATM    1  C   UNK N   1      27.873  17.554   4.672  0.00  0.00    -0.009 C 
HETATM    2  C   UNK N   1      27.269  18.817   4.608  0.00  0.00    -0.035 C 
ENDROOT
BRANCH   1   3
HETATM    3  C   UNK N   1      27.222  16.301   4.085  0.00  0.00    -0.024 A 
HETATM    4  C   UNK N   1      26.809  15.247   4.925  0.00  0.00     0.015 A 
HETATM    5  C   UNK N   1      26.185  14.106   4.411  0.00  0.00     0.037 A 
HETATM    6  C   UNK N   1      25.933  13.999   3.044  0.00  0.00     0.068 A 
HETATM    7  C   UNK N   1      26.377  15.016   2.191  0.00  0.00     0.037 A 
HETATM    8  C   UNK N   1      27.035  16.133   2.706  0.00  0.00     0.015 A 
BRANCH   6   9
HETATM    9  O   UNK N   1      25.257  12.917   2.580  0.00  0.00    -0.349 OA
BRANCH   9  10
HETATM   10  C   UNK N   1      24.012  12.956   1.972  0.00  0.00     0.206 C 
BRANCH  10  11
HETATM   11  C   UNK N   1      22.854  13.186   2.934  0.00  0.00     0.297 C 
BRANCH  11  12
HETATM   12  N   UNK N   1      22.046  14.295   2.448  0.00  0.00     0.082 N 
HETATM   13  C   UNK N   1      22.517  15.502   3.103  0.00  0.00     0.309 C 
HETATM   14  C   UNK N   1      22.305  14.451   1.026  0.00  0.00     0.309 C 
ENDBRANCH  11  12
ENDBRANCH  10  11
ENDBRANCH   9  10
ENDBRANCH   6   9
ENDBRANCH   1   3
BRANCH   1  15
HETATM   15  C   UNK N   1      29.259  17.382   5.306  0.00  0.00    -0.025 A 
HETATM   16  C   UNK N   1      30.445  17.422   4.545  0.00  0.00     0.012 A 
HETATM   17  C   UNK N   1      31.700  17.273   5.139  0.00  0.00     0.001 A 
HETATM   18  C   UNK N   1      31.800  17.079   6.515  0.00  0.00     0.000 A 
HETATM   19  C   UNK N   1      30.646  17.034   7.294  0.00  0.00     0.001 A 
HETATM   20  C   UNK N   1      29.392  17.186   6.695  0.00  0.00     0.012 A 
ENDBRANCH   1  15
BRANCH   2  21
HETATM   21  C   UNK N   1      28.025  20.041   5.078  0.00  0.00     0.055 C 
BRANCH  21  22
HETATM   22  C   UNK N   1      27.643  20.464   6.483  0.00  0.00     0.119 C 
HETATM   23 Cl   UNK N   1      26.471  21.797   6.380  0.00  0.00    -0.130 Cl
ENDBRANCH  21  22
ENDBRANCH   2  21
BRANCH   2  24
HETATM   24  C   UNK N   1      25.861  19.112   4.137  0.00  0.00    -0.029 A 
HETATM   25  C   UNK N   1      24.735  18.487   4.701  0.00  0.00     0.012 A 
HETATM   26  C   UNK N   1      23.442  18.816   4.282  0.00  0.00     0.001 A 
HETATM   27  C   UNK N   1      23.251  19.800   3.312  0.00  0.00     0.000 A 
HETATM   28  C   UNK N   1      24.352  20.470   2.777  0.00  0.00     0.001 A 
HETATM   29  C   UNK N   1      25.641  20.138   3.199  0.00  0.00     0.012 A 
ENDBRANCH   2  24
TORSDOF 9
ENDMDL
MODEL 6
REMARK VINA RESULT:      -5.9     26.012     30.140
REMARK  9 active torsions:
REMARK  status: ('A' for Active; 'I' for Inactive)
REMARK    1  A    between atoms: O_2  and  C_13 
REMARK    2  A    between atoms: O_2  and  C_21 
REMARK    3  A    between atoms: N_3  and  C_20 
REMARK    4  A    between atoms: C_4  and  C_6 
REMARK    5  A    between atoms: C_4  and  C_8 
REMARK    6  A    between atoms: C_5  and  C_7 
REMARK    7  A    between atoms: C_5  and  C_9 
REMARK    8  A    between atoms: C_7  and  C_12 
REMARK    9  A    between atoms: C_20  and  C_21 
ROOT
HETATM    1  C   UNK N   1      36.308  10.044  20.915  0.00  0.00    -0.009 C 
HETATM    2  C   UNK N   1      35.389   9.217  21.575  0.00  0.00    -0.035 C 
ENDROOT
BRANCH   1   3
HETATM    3  C   UNK N   1      35.926  10.894  19.703  0.00  0.00    -0.024 A 
HETATM    4  C   UNK N   1      35.454  12.211  19.871  0.00  0.00     0.015 A 
HETATM    5  C   UNK N   1      35.128  13.015  18.775  0.00  0.00     0.037 A 
HETATM    6  C   UNK N   1      35.288  12.532  17.477  0.00  0.00     0.068 A 
HETATM    7  C   UNK N   1      35.714  11.211  17.294  0.00  0.00     0.037 A 
HETATM    8  C   UNK N   1      35.999  10.401  18.393  0.00  0.00     0.015 A 
BRANCH   6   9
HETATM    9  O   UNK N   1      35.039  13.358  16.429  0.00  0.00    -0.349 OA
BRANCH   9  10
HETATM   10  C   UNK N   1      34.983  12.966  15.100  0.00  0.00     0.206 C 
BRANCH  10  11
HETATM   11  C   UNK N   1      35.968  13.691  14.194  0.00  0.00     0.297 C 
BRANCH  11  12
HETATM   12  N   UNK N   1      35.827  13.182  12.837  0.00  0.00     0.082 N 
HETATM   13  C   UNK N   1      34.940  12.034  12.887  0.00  0.00     0.309 C 
HETATM   14  C   UNK N   1      35.163  14.201  12.041  0.00  0.00     0.309 C 
ENDBRANCH  11  12
ENDBRANCH  10  11
ENDBRANCH   9  10
ENDBRANCH   6   9
ENDBRANCH   1   3
BRANCH   1  15
HETATM   15  C   UNK N   1      37.751  10.166  21.419  0.00  0.00    -0.025 A 
HETATM   16  C   UNK N   1      38.137  11.131  22.372  0.00  0.00     0.012 A 
HETATM   17  C   UNK N   1      39.454  11.223  22.829  0.00  0.00     0.001 A 
HETATM   18  C   UNK N   1      40.422  10.348  22.340  0.00  0.00     0.000 A 
HETATM   19  C   UNK N   1      40.072   9.384  21.397  0.00  0.00     0.001 A 
HETATM   20  C   UNK N   1      38.753   9.294  20.946  0.00  0.00     0.012 A 
ENDBRANCH   1  15
BRANCH   2  21
HETATM   21  C   UNK N   1      35.789   8.512  22.853  0.00  0.00     0.055 C 
BRANCH  21  22
HETATM   22  C   UNK N   1      35.375   9.273  24.097  0.00  0.00     0.119 C 
HETATM   23 Cl   UNK N   1      36.795   9.460  25.152  0.00  0.00    -0.130 Cl
ENDBRANCH  21  22
ENDBRANCH   2  21
BRANCH   2  24
HETATM   24  C   UNK N   1      33.983   8.898  21.115  0.00  0.00    -0.029 A 
HETATM   25  C   UNK N   1      32.875   9.676  21.493  0.00  0.00     0.012 A 
HETATM   26  C   UNK N   1      31.594   9.390  21.012  0.00  0.00     0.001 A 
HETATM   27  C   UNK N   1      31.403   8.336  20.117  0.00  0.00     0.000 A 
HETATM   28  C   UNK N   1      32.496   7.584  19.688  0.00  0.00     0.001 A 
HETATM   29  C   UNK N   1      33.775   7.875  20.171  0.00  0.00     0.012 A 
ENDBRANCH   2  24
TORSDOF 9
ENDMDL
MODEL 7
REMARK VINA RESULT:      -5.8     17.788     22.272
REMARK  9 active torsions:
REMARK  status: ('A' for Active; 'I' for Inactive)
REMARK    1  A    between atoms: O_2  and  C_13 
REMARK    2  A    between atoms: O_2  and  C_21 
REMARK    3  A    between atoms: N_3  and  C_20 
REMARK    4  A    between atoms: C_4  and  C_6 
REMARK    5  A    between atoms: C_4  and  C_8 
REMARK    6  A    between atoms: C_5  and  C_7 
REMARK    7  A    between atoms: C_5  and  C_9 
REMARK    8  A    between atoms: C_7  and  C_12 
REMARK    9  A    between atoms: C_20  and  C_21 
ROOT
HETATM    1  C   UNK N   1      36.355  13.305  12.898  0.00  0.00    -0.009 C 
HETATM    2  C   UNK N   1      37.224  12.299  12.452  0.00  0.00    -0.035 C 
ENDROOT
BRANCH   1   3
HETATM    3  C   UNK N   1      35.653  14.267  11.941  0.00  0.00    -0.024 A 
HETATM    4  C   UNK N   1      36.062  15.612  11.848  0.00  0.00     0.015 A 
HETATM    5  C   UNK N   1      35.452  16.502  10.958  0.00  0.00     0.037 A 
HETATM    6  C   UNK N   1      34.431  16.062  10.116  0.00  0.00     0.068 A 
HETATM    7  C   UNK N   1      33.983  14.741  10.227  0.00  0.00     0.037 A 
HETATM    8  C   UNK N   1      34.568  13.870  11.146  0.00  0.00     0.015 A 
BRANCH   6   9
HETATM    9  O   UNK N   1      33.908  16.924   9.206  0.00  0.00    -0.349 OA
BRANCH   9  10
HETATM   10  C   UNK N   1      33.180  16.556   8.086  0.00  0.00     0.206 C 
BRANCH  10  11
HETATM   11  C   UNK N   1      31.710  16.949   8.140  0.00  0.00     0.297 C 
BRANCH  11  12
HETATM   12  N   UNK N   1      31.130  16.798   6.813  0.00  0.00     0.082 N 
HETATM   13  C   UNK N   1      31.173  15.389   6.471  0.00  0.00     0.309 C 
HETATM   14  C   UNK N   1      29.729  17.178   6.889  0.00  0.00     0.309 C 
ENDBRANCH  11  12
ENDBRANCH  10  11
ENDBRANCH   9  10
ENDBRANCH   6   9
ENDBRANCH   1   3
BRANCH   1  15
HETATM   15  C   UNK N   1      36.033  13.454  14.390  0.00  0.00    -0.025 A 
HETATM   16  C   UNK N   1      36.846  14.203  15.265  0.00  0.00     0.012 A 
HETATM   17  C   UNK N   1      36.534  14.336  16.620  0.00  0.00     0.001 A 
HETATM   18  C   UNK N   1      35.395  13.720  17.135  0.00  0.00     0.000 A 
HETATM   19  C   UNK N   1      34.571  12.973  16.296  0.00  0.00     0.001 A 
HETATM   20  C   UNK N   1      34.887  12.845  14.940  0.00  0.00     0.012 A 
ENDBRANCH   1  15
BRANCH   2  21
HETATM   21  C   UNK N   1      37.776  11.288  13.434  0.00  0.00     0.055 C 
BRANCH  21  22
HETATM   22  C   UNK N   1      36.902  10.056  13.561  0.00  0.00     0.119 C 
HETATM   23 Cl   UNK N   1      36.637   9.718  15.287  0.00  0.00    -0.130 Cl
ENDBRANCH  21  22
ENDBRANCH   2  21
BRANCH   2  24
HETATM   24  C   UNK N   1      37.733  12.120  11.038  0.00  0.00    -0.029 A 
HETATM   25  C   UNK N   1      37.180  11.177  10.155  0.00  0.00     0.012 A 
HETATM   26  C   UNK N   1      37.635  11.068   8.838  0.00  0.00     0.001 A 
HETATM   27  C   UNK N   1      38.632  11.925   8.370  0.00  0.00     0.000 A 
HETATM   28  C   UNK N   1      39.158  12.903   9.213  0.00  0.00     0.001 A 
HETATM   29  C   UNK N   1      38.700  13.008  10.529  0.00  0.00     0.012 A 
ENDBRANCH   2  24
TORSDOF 9
ENDMDL
MODEL 8
REMARK VINA RESULT:      -5.7      3.316      6.493
REMARK  9 active torsions:
REMARK  status: ('A' for Active; 'I' for Inactive)
REMARK    1  A    between atoms: O_2  and  C_13 
REMARK    2  A    between atoms: O_2  and  C_21 
REMARK    3  A    between atoms: N_3  and  C_20 
REMARK    4  A    between atoms: C_4  and  C_6 
REMARK    5  A    between atoms: C_4  and  C_8 
REMARK    6  A    between atoms: C_5  and  C_7 
REMARK    7  A    between atoms: C_5  and  C_9 
REMARK    8  A    between atoms: C_7  and  C_12 
REMARK    9  A    between atoms: C_20  and  C_21 
ROOT
HETATM    1  C   UNK N   1      27.022  26.020  -7.473  0.00  0.00    -0.009 C 
HETATM    2  C   UNK N   1      27.460  24.773  -7.006  0.00  0.00    -0.035 C 
ENDROOT
BRANCH   1   3
HETATM    3  C   UNK N   1      26.985  27.263  -6.584  0.00  0.00    -0.024 A 
HETATM    4  C   UNK N   1      26.007  27.396  -5.578  0.00  0.00     0.015 A 
HETATM    5  C   UNK N   1      25.973  28.510  -4.734  0.00  0.00     0.037 A 
HETATM    6  C   UNK N   1      26.933  29.514  -4.858  0.00  0.00     0.068 A 
HETATM    7  C   UNK N   1      27.884  29.419  -5.881  0.00  0.00     0.037 A 
HETATM    8  C   UNK N   1      27.887  28.324  -6.745  0.00  0.00     0.015 A 
BRANCH   6   9
HETATM    9  O   UNK N   1      26.926  30.547  -3.978  0.00  0.00    -0.349 OA
BRANCH   9  10
HETATM   10  C   UNK N   1      28.015  30.964  -3.229  0.00  0.00     0.206 C 
BRANCH  10  11
HETATM   11  C   UNK N   1      27.768  30.987  -1.727  0.00  0.00     0.297 C 
BRANCH  11  12
HETATM   12  N   UNK N   1      28.361  29.799  -1.130  0.00  0.00     0.082 N 
HETATM   13  C   UNK N   1      29.702  29.660  -1.667  0.00  0.00     0.309 C 
HETATM   14  C   UNK N   1      28.495  30.032   0.299  0.00  0.00     0.309 C 
ENDBRANCH  11  12
ENDBRANCH  10  11
ENDBRANCH   9  10
ENDBRANCH   6   9
ENDBRANCH   1   3
BRANCH   1  15
HETATM   15  C   UNK N   1      26.598  26.202  -8.935  0.00  0.00    -0.025 A 
HETATM   16  C   UNK N   1      27.509  26.582  -9.942  0.00  0.00     0.012 A 
HETATM   17  C   UNK N   1      27.108  26.733 -11.271  0.00  0.00     0.001 A 
HETATM   18  C   UNK N   1      25.780  26.508 -11.628  0.00  0.00     0.000 A 
HETATM   19  C   UNK N   1      24.856  26.131 -10.656  0.00  0.00     0.001 A 
HETATM   20  C   UNK N   1      25.263  25.978  -9.327  0.00  0.00     0.012 A 
ENDBRANCH   1  15
BRANCH   2  21
HETATM   21  C   UNK N   1      27.611  23.616  -7.970  0.00  0.00     0.055 C 
BRANCH  21  22
HETATM   22  C   UNK N   1      26.407  22.694  -7.972  0.00  0.00     0.119 C 
HETATM   23 Cl   UNK N   1      25.936  22.373  -9.657  0.00  0.00    -0.130 Cl
ENDBRANCH  21  22
ENDBRANCH   2  21
BRANCH   2  24
HETATM   24  C   UNK N   1      27.778  24.418  -5.569  0.00  0.00    -0.029 A 
HETATM   25  C   UNK N   1      29.092  24.423  -5.069  0.00  0.00     0.012 A 
HETATM   26  C   UNK N   1      29.353  24.141  -3.725  0.00  0.00     0.001 A 
HETATM   27  C   UNK N   1      28.299  23.880  -2.848  0.00  0.00     0.000 A 
HETATM   28  C   UNK N   1      26.985  23.922  -3.312  0.00  0.00     0.001 A 
HETATM   29  C   UNK N   1      26.729  24.205  -4.656  0.00  0.00     0.012 A 
ENDBRANCH   2  24
TORSDOF 9
ENDMDL
MODEL 9
REMARK VINA RESULT:      -5.7     23.805     27.989
REMARK  9 active torsions:
REMARK  status: ('A' for Active; 'I' for Inactive)
REMARK    1  A    between atoms: O_2  and  C_13 
REMARK    2  A    between atoms: O_2  and  C_21 
REMARK    3  A    between atoms: N_3  and  C_20 
REMARK    4  A    between atoms: C_4  and  C_6 
REMARK    5  A    between atoms: C_4  and  C_8 
REMARK    6  A    between atoms: C_5  and  C_7 
REMARK    7  A    between atoms: C_5  and  C_9 
REMARK    8  A    between atoms: C_7  and  C_12 
REMARK    9  A    between atoms: C_20  and  C_21 
ROOT
HETATM    1  C   UNK N   1      34.793   9.156  18.047  0.00  0.00    -0.009 C 
HETATM    2  C   UNK N   1      35.508   7.979  17.784  0.00  0.00    -0.035 C 
ENDROOT
BRANCH   1   3
HETATM    3  C   UNK N   1      34.767  10.335  17.076  0.00  0.00    -0.024 A 
HETATM    4  C   UNK N   1      35.323  11.578  17.441  0.00  0.00     0.015 A 
HETATM    5  C   UNK N   1      35.337  12.661  16.556  0.00  0.00     0.037 A 
HETATM    6  C   UNK N   1      34.814  12.523  15.271  0.00  0.00     0.068 A 
HETATM    7  C   UNK N   1      34.218  11.310  14.908  0.00  0.00     0.037 A 
HETATM    8  C   UNK N   1      34.172  10.247  15.809  0.00  0.00     0.015 A 
BRANCH   6   9
HETATM    9  O   UNK N   1      34.909  13.565  14.405  0.00  0.00    -0.349 OA
BRANCH   9  10
HETATM   10  C   UNK N   1      35.917  13.733  13.468  0.00  0.00     0.206 C 
BRANCH  10  11
HETATM   11  C   UNK N   1      35.417  14.011  12.057  0.00  0.00     0.297 C 
BRANCH  11  12
HETATM   12  N   UNK N   1      36.207  15.088  11.477  0.00  0.00     0.082 N 
HETATM   13  C   UNK N   1      36.701  14.628  10.193  0.00  0.00     0.309 C 
HETATM   14  C   UNK N   1      35.319  16.209  11.218  0.00  0.00     0.309 C 
ENDBRANCH  11  12
ENDBRANCH  10  11
ENDBRANCH   9  10
ENDBRANCH   6   9
ENDBRANCH   1   3
BRANCH   1  15
HETATM   15  C   UNK N   1      33.956   9.292  19.325  0.00  0.00    -0.025 A 
HETATM   16  C   UNK N   1      32.694   8.680  19.467  0.00  0.00     0.012 A 
HETATM   17  C   UNK N   1      31.948   8.806  20.641  0.00  0.00     0.001 A 
HETATM   18  C   UNK N   1      32.449   9.552  21.707  0.00  0.00     0.000 A 
HETATM   19  C   UNK N   1      33.693  10.169  21.597  0.00  0.00     0.001 A 
HETATM   20  C   UNK N   1      34.436  10.037  20.421  0.00  0.00     0.012 A 
ENDBRANCH   1  15
BRANCH   2  21
HETATM   21  C   UNK N   1      35.379   6.793  18.716  0.00  0.00     0.055 C 
BRANCH  21  22
HETATM   22  C   UNK N   1      36.407   6.808  19.830  0.00  0.00     0.119 C 
HETATM   23 Cl   UNK N   1      35.557   6.750  21.392  0.00  0.00    -0.130 Cl
ENDBRANCH  21  22
ENDBRANCH   2  21
BRANCH   2  24
HETATM   24  C   UNK N   1      36.474   7.757  16.641  0.00  0.00    -0.029 A 
HETATM   25  C   UNK N   1      37.807   8.199  16.688  0.00  0.00     0.012 A 
HETATM   26  C   UNK N   1      38.693   7.936  15.639  0.00  0.00     0.001 A 
HETATM   27  C   UNK N   1      38.268   7.195  14.535  0.00  0.00     0.000 A 
HETATM   28  C   UNK N   1      36.964   6.702  14.492  0.00  0.00     0.001 A 
HETATM   29  C   UNK N   1      36.083   6.967  15.543  0.00  0.00     0.012 A 
ENDBRANCH   2  24
TORSDOF 9
ENDMDL
