MODEL 1
REMARK VINA RESULT:      -6.9      0.000      0.000
REMARK  3 active torsions:
REMARK  status: ('A' for Active; 'I' for Inactive)
REMARK    1  A    between atoms: N_1  and  C_17 
REMARK    2  A    between atoms: C_9  and  C_14 
REMARK    3  A    between atoms: C_14  and  C_17 
ROOT
HETATM    1  C   UNK N   1      35.689  12.621  19.502  0.00  0.00     0.044 C 
HETATM    2  C   UNK N   1      34.907  13.736  18.883  0.00  0.00     0.044 C 
HETATM    3  C   UNK N   1      35.215  11.340  18.943  0.00  0.00    -0.047 A 
HETATM    4  C   UNK N   1      35.738  14.247  17.778  0.00  0.00    -0.047 A 
HETATM    5  C   UNK N   1      35.605  12.014  16.434  0.00  0.00    -0.018 C 
HETATM    6  C   UNK N   1      35.178  11.058  17.545  0.00  0.00    -0.019 A 
HETATM    7  C   UNK N   1      36.064  13.460  16.641  0.00  0.00    -0.019 A 
HETATM    8  C   UNK N   1      35.554  11.492  15.175  0.00  0.00    -0.012 C 
HETATM    9  C   UNK N   1      34.798  10.376  19.869  0.00  0.00     0.008 A 
HETATM   10  C   UNK N   1      36.201  15.565  17.889  0.00  0.00     0.008 A 
HETATM   11  C   UNK N   1      34.722   9.774  17.162  0.00  0.00     0.013 A 
HETATM   12  C   UNK N   1      36.867  14.069  15.654  0.00  0.00     0.013 A 
HETATM   13  C   UNK N   1      34.351   9.126  19.453  0.00  0.00     0.001 A 
HETATM   14  C   UNK N   1      36.996  16.127  16.894  0.00  0.00     0.001 A 
HETATM   15  C   UNK N   1      34.317   8.824  18.097  0.00  0.00     0.001 A 
HETATM   16  C   UNK N   1      37.329  15.378  15.774  0.00  0.00     0.001 A 
ENDROOT
BRANCH   8  17
HETATM   17  C   UNK N   1      35.822  12.211  13.889  0.00  0.00     0.047 C 
BRANCH  17  18
HETATM   18  C   UNK N   1      34.802  11.823  12.836  0.00  0.00     0.117 C 
BRANCH  18  19
HETATM   19  N   UNK N   1      34.593  12.936  11.923  0.00  0.00    -0.425 N 
HETATM   20  C   UNK N   1      35.497  14.005  12.312  0.00  0.00     0.139 C 
HETATM   21  H   UNK N   1      33.930  12.962  11.148  0.00  0.00     0.152 HD
ENDBRANCH  18  19
ENDBRANCH  17  18
ENDBRANCH   8  17
TORSDOF 3
ENDMDL
MODEL 2
REMARK VINA RESULT:      -6.9      1.845      4.490
REMARK  3 active torsions:
REMARK  status: ('A' for Active; 'I' for Inactive)
REMARK    1  A    between atoms: N_1  and  C_17 
REMARK    2  A    between atoms: C_9  and  C_14 
REMARK    3  A    between atoms: C_14  and  C_17 
ROOT
HETATM    1  C   UNK N   1      35.265   9.585  17.365  0.00  0.00     0.044 C 
HETATM    2  C   UNK N   1      36.412   9.314  16.443  0.00  0.00     0.044 C 
HETATM    3  C   UNK N   1      35.258  11.022  17.704  0.00  0.00    -0.047 A 
HETATM    4  C   UNK N   1      35.849   9.332  15.082  0.00  0.00    -0.047 A 
HETATM    5  C   UNK N   1      35.198  11.856  15.214  0.00  0.00    -0.018 C 
HETATM    6  C   UNK N   1      35.223  12.061  16.727  0.00  0.00    -0.019 A 
HETATM    7  C   UNK N   1      35.287  10.502  14.503  0.00  0.00    -0.019 A 
HETATM    8  C   UNK N   1      35.087  13.001  14.481  0.00  0.00    -0.012 C 
HETATM    9  C   UNK N   1      35.275  11.336  19.068  0.00  0.00     0.008 A 
HETATM   10  C   UNK N   1      35.891   8.132  14.361  0.00  0.00     0.008 A 
HETATM   11  C   UNK N   1      35.193  13.392  17.207  0.00  0.00     0.013 A 
HETATM   12  C   UNK N   1      34.783  10.386  13.191  0.00  0.00     0.013 A 
HETATM   13  C   UNK N   1      35.250  12.659  19.501  0.00  0.00     0.001 A 
HETATM   14  C   UNK N   1      35.377   8.058  13.069  0.00  0.00     0.001 A 
HETATM   15  C   UNK N   1      35.204  13.687  18.569  0.00  0.00     0.001 A 
HETATM   16  C   UNK N   1      34.822   9.187  12.483  0.00  0.00     0.001 A 
ENDROOT
BRANCH   8  17
HETATM   17  C   UNK N   1      35.127  13.125  12.989  0.00  0.00     0.047 C 
BRANCH  17  18
HETATM   18  C   UNK N   1      36.313  13.964  12.554  0.00  0.00     0.117 C 
BRANCH  18  19
HETATM   19  N   UNK N   1      37.475  13.108  12.364  0.00  0.00    -0.425 N 
HETATM   20  C   UNK N   1      37.780  13.081  10.944  0.00  0.00     0.139 C 
HETATM   21  H   UNK N   1      37.985  12.616  13.098  0.00  0.00     0.152 HD
ENDBRANCH  18  19
ENDBRANCH  17  18
ENDBRANCH   8  17
TORSDOF 3
ENDMDL
MODEL 3
REMARK VINA RESULT:      -6.8      7.994     12.417
REMARK  3 active torsions:
REMARK  status: ('A' for Active; 'I' for Inactive)
REMARK    1  A    between atoms: N_1  and  C_17 
REMARK    2  A    between atoms: C_9  and  C_14 
REMARK    3  A    between atoms: C_14  and  C_17 
ROOT
HETATM    1  C   UNK N   1      28.917  16.765   5.783  0.00  0.00     0.044 C 
HETATM    2  C   UNK N   1      29.744  15.532   5.601  0.00  0.00     0.044 C 
HETATM    3  C   UNK N   1      29.065  17.236   7.174  0.00  0.00    -0.047 A 
HETATM    4  C   UNK N   1      31.013  15.983   5.002  0.00  0.00    -0.047 A 
HETATM    5  C   UNK N   1      31.686  17.385   7.098  0.00  0.00    -0.018 C 
HETATM    6  C   UNK N   1      30.326  17.524   7.776  0.00  0.00    -0.019 A 
HETATM    7  C   UNK N   1      31.919  16.837   5.687  0.00  0.00    -0.019 A 
HETATM    8  C   UNK N   1      32.748  17.794   7.850  0.00  0.00    -0.012 C 
HETATM    9  C   UNK N   1      27.880  17.406   7.900  0.00  0.00     0.008 A 
HETATM   10  C   UNK N   1      31.304  15.526   3.710  0.00  0.00     0.008 A 
HETATM   11  C   UNK N   1      30.306  17.994   9.111  0.00  0.00     0.013 A 
HETATM   12  C   UNK N   1      33.099  17.193   5.002  0.00  0.00     0.013 A 
HETATM   13  C   UNK N   1      27.903  17.865   9.213  0.00  0.00     0.001 A 
HETATM   14  C   UNK N   1      32.478  15.905   3.067  0.00  0.00     0.001 A 
HETATM   15  C   UNK N   1      29.117  18.163   9.818  0.00  0.00     0.001 A 
HETATM   16  C   UNK N   1      33.378  16.741   3.714  0.00  0.00     0.001 A 
ENDROOT
BRANCH   8  17
HETATM   17  C   UNK N   1      34.199  17.695   7.492  0.00  0.00     0.047 C 
BRANCH  17  18
HETATM   18  C   UNK N   1      34.949  16.872   8.521  0.00  0.00     0.117 C 
BRANCH  18  19
HETATM   19  N   UNK N   1      34.575  17.304   9.860  0.00  0.00    -0.425 N 
HETATM   20  C   UNK N   1      35.309  16.487  10.812  0.00  0.00     0.139 C 
HETATM   21  H   UNK N   1      33.917  18.048  10.089  0.00  0.00     0.152 HD
ENDBRANCH  18  19
ENDBRANCH  17  18
ENDBRANCH   8  17
TORSDOF 3
ENDMDL
MODEL 4
REMARK VINA RESULT:      -6.6     22.419     26.544
REMARK  3 active torsions:
REMARK  status: ('A' for Active; 'I' for Inactive)
REMARK    1  A    between atoms: N_1  and  C_17 
REMARK    2  A    between atoms: C_9  and  C_14 
REMARK    3  A    between atoms: C_14  and  C_17 
ROOT
HETATM    1  C   UNK N   1      25.949  24.947  -7.266  0.00  0.00     0.044 C 
HETATM    2  C   UNK N   1      25.634  23.521  -6.944  0.00  0.00     0.044 C 
HETATM    3  C   UNK N   1      25.981  25.723  -6.010  0.00  0.00    -0.047 A 
HETATM    4  C   UNK N   1      26.932  22.824  -6.889  0.00  0.00    -0.047 A 
HETATM    5  C   UNK N   1      27.761  24.195  -4.830  0.00  0.00    -0.018 C 
HETATM    6  C   UNK N   1      26.808  25.386  -4.899  0.00  0.00    -0.019 A 
HETATM    7  C   UNK N   1      27.921  23.126  -5.915  0.00  0.00    -0.019 A 
HETATM    8  C   UNK N   1      28.508  24.122  -3.691  0.00  0.00    -0.012 C 
HETATM    9  C   UNK N   1      25.147  26.846  -5.956  0.00  0.00     0.008 A 
HETATM   10  C   UNK N   1      27.159  21.829  -7.849  0.00  0.00     0.008 A 
HETATM   11  C   UNK N   1      26.749  26.241  -3.773  0.00  0.00     0.013 A 
HETATM   12  C   UNK N   1      29.119  22.385  -5.972  0.00  0.00     0.013 A 
HETATM   13  C   UNK N   1      25.112  27.660  -4.827  0.00  0.00     0.001 A 
HETATM   14  C   UNK N   1      28.359  21.123  -7.874  0.00  0.00     0.001 A 
HETATM   15  C   UNK N   1      25.917  27.359  -3.736  0.00  0.00     0.001 A 
HETATM   16  C   UNK N   1      29.341  21.402  -6.934  0.00  0.00     0.001 A 
ENDROOT
BRANCH   8  17
HETATM   17  C   UNK N   1      29.454  23.029  -3.301  0.00  0.00     0.047 C 
BRANCH  17  18
HETATM   18  C   UNK N   1      30.819  23.598  -2.962  0.00  0.00     0.117 C 
BRANCH  18  19
HETATM   19  N   UNK N   1      31.856  22.675  -3.399  0.00  0.00    -0.425 N 
HETATM   20  C   UNK N   1      31.336  21.325  -3.262  0.00  0.00     0.139 C 
HETATM   21  H   UNK N   1      32.782  22.931  -3.742  0.00  0.00     0.152 HD
ENDBRANCH  18  19
ENDBRANCH  17  18
ENDBRANCH   8  17
TORSDOF 3
ENDMDL
MODEL 5
REMARK VINA RESULT:      -6.5      2.841      5.953
REMARK  3 active torsions:
REMARK  status: ('A' for Active; 'I' for Inactive)
REMARK    1  A    between atoms: N_1  and  C_17 
REMARK    2  A    between atoms: C_9  and  C_14 
REMARK    3  A    between atoms: C_14  and  C_17 
ROOT
HETATM    1  C   UNK N   1      35.069  12.405  15.348  0.00  0.00     0.044 C 
HETATM    2  C   UNK N   1      33.941  11.551  14.862  0.00  0.00     0.044 C 
HETATM    3  C   UNK N   1      35.142  12.303  16.819  0.00  0.00    -0.047 A 
HETATM    4  C   UNK N   1      34.551  10.274  14.450  0.00  0.00    -0.047 A 
HETATM    5  C   UNK N   1      35.332   9.684  16.869  0.00  0.00    -0.018 C 
HETATM    6  C   UNK N   1      35.266  11.065  17.517  0.00  0.00    -0.019 A 
HETATM    7  C   UNK N   1      35.194   9.403  15.370  0.00  0.00    -0.019 A 
HETATM    8  C   UNK N   1      35.529   8.652  17.738  0.00  0.00    -0.012 C 
HETATM    9  C   UNK N   1      35.095  13.511  17.526  0.00  0.00     0.008 A 
HETATM   10  C   UNK N   1      34.469   9.939  13.092  0.00  0.00     0.008 A 
HETATM   11  C   UNK N   1      35.351  11.131  18.928  0.00  0.00     0.013 A 
HETATM   12  C   UNK N   1      35.736   8.210  14.847  0.00  0.00     0.013 A 
HETATM   13  C   UNK N   1      35.176  13.533  18.915  0.00  0.00     0.001 A 
HETATM   14  C   UNK N   1      35.022   8.754  12.615  0.00  0.00     0.001 A 
HETATM   15  C   UNK N   1      35.309  12.342  19.616  0.00  0.00     0.001 A 
HETATM   16  C   UNK N   1      35.657   7.888  13.494  0.00  0.00     0.001 A 
ENDROOT
BRANCH   8  17
HETATM   17  C   UNK N   1      35.547   7.190  17.413  0.00  0.00     0.047 C 
BRANCH  17  18
HETATM   18  C   UNK N   1      34.984   6.379  18.564  0.00  0.00     0.117 C 
BRANCH  18  19
HETATM   19  N   UNK N   1      34.001   7.171  19.287  0.00  0.00    -0.425 N 
HETATM   20  C   UNK N   1      32.814   6.352  19.467  0.00  0.00     0.139 C 
HETATM   21  H   UNK N   1      34.123   8.131  19.611  0.00  0.00     0.152 HD
ENDBRANCH  18  19
ENDBRANCH  17  18
ENDBRANCH   8  17
TORSDOF 3
ENDMDL
MODEL 6
REMARK VINA RESULT:      -6.2      2.970      5.524
REMARK  3 active torsions:
REMARK  status: ('A' for Active; 'I' for Inactive)
REMARK    1  A    between atoms: N_1  and  C_17 
REMARK    2  A    between atoms: C_9  and  C_14 
REMARK    3  A    between atoms: C_14  and  C_17 
ROOT
HETATM    1  C   UNK N   1      34.079  11.938  15.017  0.00  0.00     0.044 C 
HETATM    2  C   UNK N   1      35.256  12.688  15.554  0.00  0.00     0.044 C 
HETATM    3  C   UNK N   1      34.553  10.672  14.422  0.00  0.00    -0.047 A 
HETATM    4  C   UNK N   1      35.312  12.374  16.993  0.00  0.00    -0.047 A 
HETATM    5  C   UNK N   1      35.794   9.842  16.583  0.00  0.00    -0.018 C 
HETATM    6  C   UNK N   1      35.332   9.712  15.134  0.00  0.00    -0.019 A 
HETATM    7  C   UNK N   1      35.562  11.063  17.479  0.00  0.00    -0.019 A 
HETATM    8  C   UNK N   1      36.463   8.759  17.072  0.00  0.00    -0.012 C 
HETATM    9  C   UNK N   1      34.187  10.439  13.091  0.00  0.00     0.008 A 
HETATM   10  C   UNK N   1      35.110  13.436  17.884  0.00  0.00     0.008 A 
HETATM   11  C   UNK N   1      35.690   8.534  14.437  0.00  0.00     0.013 A 
HETATM   12  C   UNK N   1      35.591  10.896  18.879  0.00  0.00     0.013 A 
HETATM   13  C   UNK N   1      34.564   9.269  12.438  0.00  0.00     0.001 A 
HETATM   14  C   UNK N   1      35.141  13.229  19.260  0.00  0.00     0.001 A 
HETATM   15  C   UNK N   1      35.313   8.314  13.114  0.00  0.00     0.001 A 
HETATM   16  C   UNK N   1      35.382  11.956  19.759  0.00  0.00     0.001 A 
ENDROOT
BRANCH   8  17
HETATM   17  C   UNK N   1      37.110   8.630  18.417  0.00  0.00     0.047 C 
BRANCH  17  18
HETATM   18  C   UNK N   1      36.887   7.242  18.987  0.00  0.00     0.117 C 
BRANCH  18  19
HETATM   19  N   UNK N   1      36.408   7.347  20.356  0.00  0.00    -0.425 N 
HETATM   20  C   UNK N   1      34.968   7.538  20.310  0.00  0.00     0.139 C 
HETATM   21  H   UNK N   1      36.980   7.294  21.199  0.00  0.00     0.152 HD
ENDBRANCH  18  19
ENDBRANCH  17  18
ENDBRANCH   8  17
TORSDOF 3
ENDMDL
MODEL 7
REMARK VINA RESULT:      -6.2      8.216     12.842
REMARK  3 active torsions:
REMARK  status: ('A' for Active; 'I' for Inactive)
REMARK    1  A    between atoms: N_1  and  C_17 
REMARK    2  A    between atoms: C_9  and  C_14 
REMARK    3  A    between atoms: C_14  and  C_17 
ROOT
HETATM    1  C   UNK N   1      29.039  17.084   5.047  0.00  0.00     0.044 C 
HETATM    2  C   UNK N   1      28.942  18.327   5.873  0.00  0.00     0.044 C 
HETATM    3  C   UNK N   1      30.393  17.007   4.462  0.00  0.00    -0.047 A 
HETATM    4  C   UNK N   1      29.200  17.909   7.263  0.00  0.00    -0.047 A 
HETATM    5  C   UNK N   1      31.656  17.187   6.757  0.00  0.00    -0.018 C 
HETATM    6  C   UNK N   1      31.588  17.049   5.238  0.00  0.00    -0.019 A 
HETATM    7  C   UNK N   1      30.452  17.383   7.682  0.00  0.00    -0.019 A 
HETATM    8  C   UNK N   1      32.913  17.126   7.283  0.00  0.00    -0.012 C 
HETATM    9  C   UNK N   1      30.458  16.874   3.069  0.00  0.00     0.008 A 
HETATM   10  C   UNK N   1      28.148  18.055   8.176  0.00  0.00     0.008 A 
HETATM   11  C   UNK N   1      32.812  16.937   4.536  0.00  0.00     0.013 A 
HETATM   12  C   UNK N   1      30.569  17.022   9.040  0.00  0.00     0.013 A 
HETATM   13  C   UNK N   1      31.682  16.772   2.415  0.00  0.00     0.001 A 
HETATM   14  C   UNK N   1      28.302  17.681   9.508  0.00  0.00     0.001 A 
HETATM   15  C   UNK N   1      32.860  16.800   3.150  0.00  0.00     0.001 A 
HETATM   16  C   UNK N   1      29.515  17.163   9.941  0.00  0.00     0.001 A 
ENDROOT
BRANCH   8  17
HETATM   17  C   UNK N   1      33.301  17.319   8.717  0.00  0.00     0.047 C 
BRANCH  17  18
HETATM   18  C   UNK N   1      34.078  16.121   9.227  0.00  0.00     0.117 C 
BRANCH  18  19
HETATM   19  N   UNK N   1      34.245  16.224  10.669  0.00  0.00    -0.425 N 
HETATM   20  C   UNK N   1      35.641  16.532  10.934  0.00  0.00     0.139 C 
HETATM   21  H   UNK N   1      33.513  16.103  11.369  0.00  0.00     0.152 HD
ENDBRANCH  18  19
ENDBRANCH  17  18
ENDBRANCH   8  17
TORSDOF 3
ENDMDL
MODEL 8
REMARK VINA RESULT:      -6.1     14.339     16.513
REMARK  3 active torsions:
REMARK  status: ('A' for Active; 'I' for Inactive)
REMARK    1  A    between atoms: N_1  and  C_17 
REMARK    2  A    between atoms: C_9  and  C_14 
REMARK    3  A    between atoms: C_14  and  C_17 
ROOT
HETATM    1  C   UNK N   1      24.254  12.938   7.569  0.00  0.00     0.044 C 
HETATM    2  C   UNK N   1      24.782  14.337   7.570  0.00  0.00     0.044 C 
HETATM    3  C   UNK N   1      23.339  12.774   8.716  0.00  0.00    -0.047 A 
HETATM    4  C   UNK N   1      23.935  15.089   6.626  0.00  0.00    -0.047 A 
HETATM    5  C   UNK N   1      21.784  14.791   8.073  0.00  0.00    -0.018 C 
HETATM    6  C   UNK N   1      22.210  13.614   8.948  0.00  0.00    -0.019 A 
HETATM    7  C   UNK N   1      22.549  15.306   6.851  0.00  0.00    -0.019 A 
HETATM    8  C   UNK N   1      20.623  15.398   8.453  0.00  0.00    -0.012 C 
HETATM    9  C   UNK N   1      23.628  11.720   9.591  0.00  0.00     0.008 A 
HETATM   10  C   UNK N   1      24.558  15.597   5.479  0.00  0.00     0.008 A 
HETATM   11  C   UNK N   1      21.411  13.316  10.077  0.00  0.00     0.013 A 
HETATM   12  C   UNK N   1      21.852  16.043   5.871  0.00  0.00     0.013 A 
HETATM   13  C   UNK N   1      22.820  11.463  10.695  0.00  0.00     0.001 A 
HETATM   14  C   UNK N   1      23.833  16.315   4.532  0.00  0.00     0.001 A 
HETATM   15  C   UNK N   1      21.708  12.260  10.936  0.00  0.00     0.001 A 
HETATM   16  C   UNK N   1      22.477  16.539   4.729  0.00  0.00     0.001 A 
ENDROOT
BRANCH   8  17
HETATM   17  C   UNK N   1      20.007  16.623   7.850  0.00  0.00     0.047 C 
BRANCH  17  18
HETATM   18  C   UNK N   1      19.115  17.324   8.857  0.00  0.00     0.117 C 
BRANCH  18  19
HETATM   19  N   UNK N   1      19.623  18.664   9.110  0.00  0.00    -0.425 N 
HETATM   20  C   UNK N   1      19.114  19.096  10.401  0.00  0.00     0.139 C 
HETATM   21  H   UNK N   1      20.229  19.204   8.492  0.00  0.00     0.152 HD
ENDBRANCH  18  19
ENDBRANCH  17  18
ENDBRANCH   8  17
TORSDOF 3
ENDMDL
MODEL 9
REMARK VINA RESULT:      -6.0      2.133      4.589
REMARK  3 active torsions:
REMARK  status: ('A' for Active; 'I' for Inactive)
REMARK    1  A    between atoms: N_1  and  C_17 
REMARK    2  A    between atoms: C_9  and  C_14 
REMARK    3  A    between atoms: C_14  and  C_17 
ROOT
HETATM    1  C   UNK N   1      36.416   9.876  15.786  0.00  0.00     0.044 C 
HETATM    2  C   UNK N   1      37.770  10.077  15.182  0.00  0.00     0.044 C 
HETATM    3  C   UNK N   1      36.003  11.127  16.453  0.00  0.00    -0.047 A 
HETATM    4  C   UNK N   1      37.535  10.410  13.766  0.00  0.00    -0.047 A 
HETATM    5  C   UNK N   1      36.309  12.643  14.330  0.00  0.00    -0.018 C 
HETATM    6  C   UNK N   1      35.949  12.390  15.792  0.00  0.00    -0.019 A 
HETATM    7  C   UNK N   1      36.863  11.595  13.361  0.00  0.00    -0.019 A 
HETATM    8  C   UNK N   1      36.104  13.922  13.901  0.00  0.00    -0.012 C 
HETATM    9  C   UNK N   1      35.643  11.019  17.802  0.00  0.00     0.008 A 
HETATM   10  C   UNK N   1      38.012   9.501  12.812  0.00  0.00     0.008 A 
HETATM   11  C   UNK N   1      35.508  13.495  16.557  0.00  0.00     0.013 A 
HETATM   12  C   UNK N   1      36.705  11.795  11.975  0.00  0.00     0.013 A 
HETATM   13  C   UNK N   1      35.220  12.131  18.522  0.00  0.00     0.001 A 
HETATM   14  C   UNK N   1      37.830   9.734  11.452  0.00  0.00     0.001 A 
HETATM   15  C   UNK N   1      35.148  13.370  17.898  0.00  0.00     0.001 A 
HETATM   16  C   UNK N   1      37.175  10.884  11.032  0.00  0.00     0.001 A 
ENDROOT
BRANCH   8  17
HETATM   17  C   UNK N   1      36.446  14.488  12.558  0.00  0.00     0.047 C 
BRANCH  17  18
HETATM   18  C   UNK N   1      35.255  15.218  11.966  0.00  0.00     0.117 C 
BRANCH  18  19
HETATM   19  N   UNK N   1      35.305  15.137  10.514  0.00  0.00    -0.425 N 
HETATM   20  C   UNK N   1      34.962  16.446   9.984  0.00  0.00     0.139 C 
HETATM   21  H   UNK N   1      35.541  14.310   9.965  0.00  0.00     0.152 HD
ENDBRANCH  18  19
ENDBRANCH  17  18
ENDBRANCH   8  17
TORSDOF 3
ENDMDL
