REMARK  3 active torsions:
REMARK  status: ('A' for Active; 'I' for Inactive)
REMARK    1  A    between atoms: N_1  and  C_17 
REMARK    2  A    between atoms: C_9  and  C_14 
REMARK    3  A    between atoms: C_14  and  C_17 
ROOT
HETATM    1  C   UNK N   1       4.490   3.418  -0.417  0.00  0.00     0.044 C 
HETATM    2  C   UNK N   1       3.541   3.346   0.737  0.00  0.00     0.044 C 
HETATM    3  C   UNK N   1       5.638   2.530  -0.145  0.00  0.00    -0.047 A 
HETATM    4  C   UNK N   1       2.505   2.373   0.347  0.00  0.00    -0.047 A 
HETATM    5  C   UNK N   1       4.186   0.379   0.259  0.00  0.00    -0.018 C 
HETATM    6  C   UNK N   1       5.504   1.143   0.160  0.00  0.00    -0.019 A 
HETATM    7  C   UNK N   1       2.792   0.999   0.126  0.00  0.00    -0.019 A 
HETATM    8  C   UNK N   1       4.314  -0.960   0.486  0.00  0.00    -0.012 C 
HETATM    9  C   UNK N   1       6.906   3.120  -0.211  0.00  0.00     0.008 A 
HETATM   10  C   UNK N   1       1.199   2.859   0.203  0.00  0.00     0.008 A 
HETATM   11  C   UNK N   1       6.699   0.415   0.371  0.00  0.00     0.013 A 
HETATM   12  C   UNK N   1       1.710   0.173  -0.242  0.00  0.00     0.013 A 
HETATM   13  C   UNK N   1       8.058   2.371   0.009  0.00  0.00     0.001 A 
HETATM   14  C   UNK N   1       0.159   2.011  -0.167  0.00  0.00     0.001 A 
HETATM   15  C   UNK N   1       7.954   1.016   0.296  0.00  0.00     0.001 A 
HETATM   16  C   UNK N   1       0.415   0.665  -0.390  0.00  0.00     0.001 A 
ENDROOT
BRANCH   8  17
HETATM   17  C   UNK N   1       3.210  -1.945   0.719  0.00  0.00     0.047 C 
BRANCH  17  18
HETATM   18  C   UNK N   1       3.063  -2.875  -0.470  0.00  0.00     0.117 C 
BRANCH  18  19
HETATM   19  N   UNK N   1       1.653  -3.047  -0.785  0.00  0.00    -0.425 N 
HETATM   20  C   UNK N   1       1.140  -4.124   0.045  0.00  0.00     0.139 C 
HETATM   21  H   UNK N   1       1.119  -2.507  -1.466  0.00  0.00     0.152 HD
ENDBRANCH  18  19
ENDBRANCH  17  18
ENDBRANCH   8  17
TORSDOF 3
