MODEL 1
REMARK VINA RESULT:      -7.3      0.000      0.000
REMARK  13 active torsions:
REMARK  status: ('A' for Active; 'I' for Inactive)
REMARK    1  A    between atoms: C_21  and  O_1 
REMARK    2  A    between atoms: O_1  and  C_37 
REMARK    3  A    between atoms: C_19  and  O_2 
REMARK    4  A    between atoms: O_3  and  C_29 
REMARK    5  A    between atoms: O_6  and  C_35 
REMARK    6  A    between atoms: O_8  and  C_41 
REMARK    7  A    between atoms: C_47  and  O_10 
REMARK    8  A    between atoms: N_12  and  C_33 
REMARK    9  A    between atoms: C_17  and  C_24 
REMARK   10  A    between atoms: C_19  and  C_29 
REMARK   11  A    between atoms: C_34  and  C_36 
REMARK   12  A    between atoms: C_36  and  C_41 
REMARK   13  A    between atoms: C_47  and  C_54 
ROOT
HETATM    1  N   UNK N   1      26.570  12.711   1.895  0.00  0.00     0.098 N 
HETATM    2  N   UNK N   1      26.597  16.863   4.267  0.00  0.00    -0.315 N 
HETATM    3  C   UNK N   1      26.646  14.739   3.168  0.00  0.00     0.047 C 
HETATM    4  C   UNK N   1      27.395  13.909   2.139  0.00  0.00     0.253 C 
HETATM    5  C   UNK N   1      28.834  13.532   2.711  0.00  0.00     0.039 C 
HETATM    6  C   UNK N   1      27.505  15.960   3.601  0.00  0.00     0.155 C 
HETATM    7  C   UNK N   1      29.017  16.053   3.792  0.00  0.00     0.195 C 
HETATM    8  C   UNK N   1      26.215  13.631   4.127  0.00  0.00     0.049 C 
HETATM    9  C   UNK N   1      29.616  14.851   3.008  0.00  0.00     0.193 C 
HETATM   10  C   UNK N   1      25.362  15.529   2.909  0.00  0.00    -0.017 C 
HETATM   11  C   UNK N   1      25.878  12.459   3.167  0.00  0.00     0.274 C 
HETATM   12  C   UNK N   1      29.460  12.728   1.608  0.00  0.00    -0.015 C 
HETATM   13  C   UNK N   1      25.425  16.744   3.567  0.00  0.00     0.047 C 
HETATM   14  C   UNK N   1      27.315  11.492   1.494  0.00  0.00     0.300 C 
HETATM   15  C   UNK N   1      28.740  11.751   1.036  0.00  0.00    -0.000 C 
HETATM   16  C   UNK N   1      24.167  14.931   2.670  0.00  0.00     0.022 C 
HETATM   17  C   UNK N   1      24.319  17.428   3.966  0.00  0.00     0.067 C 
HETATM   18  C   UNK N   1      23.040  15.481   3.276  0.00  0.00     0.000 C 
HETATM   19  C   UNK N   1      23.124  16.783   3.919  0.00  0.00     0.078 C 
ENDROOT
BRANCH  18  20
HETATM   20  C   UNK N   1      22.080  14.431   3.760  0.00  0.00     0.121 C 
HETATM   21  C   UNK N   1      22.215  13.245   2.866  0.00  0.00     0.038 C 
HETATM   22  C   UNK N   1      21.046  12.652   2.097  0.00  0.00     0.018 C 
HETATM   23  C   UNK N   1      21.545  12.301   0.713  0.00  0.00     0.046 C 
HETATM   24  C   UNK N   1      20.652  11.358   2.759  0.00  0.00     0.277 C 
HETATM   25  C   UNK N   1      22.747  11.336   0.736  0.00  0.00     0.084 C 
HETATM   26  C   UNK N   1      23.006  10.680   2.139  0.00  0.00     0.310 C 
HETATM   27  N   UNK N   1      21.809  10.488   3.011  0.00  0.00     0.092 N 
HETATM   28  C   UNK N   1      22.083  10.513   4.469  0.00  0.00     0.277 C 
HETATM   29  C   UNK N   1      23.092  11.573   4.971  0.00  0.00     0.072 C 
HETATM   30  C   UNK N   1      22.577  12.787   5.742  0.00  0.00    -0.020 A 
HETATM   31  C   UNK N   1      22.264  14.045   5.210  0.00  0.00     0.040 A 
HETATM   32  C   UNK N   1      22.342  12.915   7.105  0.00  0.00    -0.001 A 
HETATM   33  N   UNK N   1      21.942  14.916   6.200  0.00  0.00    -0.357 N 
HETATM   34  C   UNK N   1      21.971  14.219   7.333  0.00  0.00     0.043 A 
HETATM   35  H   UNK N   1      21.730  15.873   6.100  0.00  0.00     0.166 HD
HETATM   36  C   UNK N   1      21.613  14.696   8.587  0.00  0.00     0.030 A 
HETATM   37  C   UNK N   1      21.627  13.788   9.654  0.00  0.00     0.002 A 
HETATM   38  C   UNK N   1      22.010  12.445   9.437  0.00  0.00     0.001 A 
HETATM   39  C   UNK N   1      22.387  11.997   8.150  0.00  0.00     0.014 A 
BRANCH  25  40
HETATM   40  O   UNK N   1      23.897  12.050   0.393  0.00  0.00    -0.388 OA
HETATM   41  H   UNK N   1      24.456  12.833   0.514  0.00  0.00     0.210 HD
ENDBRANCH  25  40
BRANCH  25  42
HETATM   42  C   UNK N   1      22.542  10.303  -0.361  0.00  0.00     0.035 C 
HETATM   43  C   UNK N   1      23.838   9.645  -0.797  0.00  0.00     0.008 C 
ENDBRANCH  25  42
BRANCH  20  44
HETATM   44  C   UNK N   1      20.677  15.085   3.625  0.00  0.00     0.278 C 
HETATM   45  O   UNK N   1      20.392  15.770   2.647  0.00  0.00    -0.264 OA
BRANCH  44  46
HETATM   46  O   UNK N   1      19.726  14.839   4.563  0.00  0.00    -0.325 OA
HETATM   47  C   UNK N   1      18.847  15.813   4.984  0.00  0.00     0.213 C 
ENDBRANCH  44  46
ENDBRANCH  20  44
ENDBRANCH  18  20
BRANCH  19  48
HETATM   48  O   UNK N   1      22.142  17.303   4.695  0.00  0.00    -0.355 OA
HETATM   49  C   UNK N   1      21.644  18.584   4.515  0.00  0.00     0.210 C 
ENDBRANCH  19  48
BRANCH   2  50
HETATM   50  C   UNK N   1      26.453  17.016   5.623  0.00  0.00     0.356 C 
HETATM   51  O   UNK N   1      26.212  16.100   6.390  0.00  0.00    -0.283 OA
ENDBRANCH   2  50
BRANCH   5  52
HETATM   52  C   UNK N   1      28.777  12.656   3.989  0.00  0.00     0.014 C 
HETATM   53  C   UNK N   1      29.947  11.711   4.178  0.00  0.00     0.006 C 
ENDBRANCH   5  52
BRANCH   7  54
HETATM   54  O   UNK N   1      29.479  17.183   3.096  0.00  0.00    -0.375 OA
HETATM   55  H   UNK N   1      29.777  18.106   3.061  0.00  0.00     0.211 HD
ENDBRANCH   7  54
BRANCH   7  56
HETATM   56  C   UNK N   1      29.442  16.260   5.237  0.00  0.00     0.298 C 
HETATM   57  O   UNK N   1      29.423  15.322   6.014  0.00  0.00    -0.262 OA
BRANCH  56  58
HETATM   58  O   UNK N   1      29.783  17.503   5.715  0.00  0.00    -0.324 OA
HETATM   59  C   UNK N   1      29.727  17.904   7.040  0.00  0.00     0.213 C 
ENDBRANCH  56  58
ENDBRANCH   7  56
BRANCH   9  60
HETATM   60  O   UNK N   1      30.956  14.909   2.691  0.00  0.00    -0.311 OA
BRANCH  60  61
HETATM   61  C   UNK N   1      31.915  14.999   3.635  0.00  0.00     0.255 C 
HETATM   62  O   UNK N   1      32.066  14.094   4.441  0.00  0.00    -0.266 OA
HETATM   63  C   UNK N   1      32.804  16.187   3.677  0.00  0.00     0.126 C 
ENDBRANCH  60  61
ENDBRANCH   9  60
TORSDOF 13
ENDMDL
MODEL 2
REMARK VINA RESULT:      -6.7      2.638      8.004
REMARK  13 active torsions:
REMARK  status: ('A' for Active; 'I' for Inactive)
REMARK    1  A    between atoms: C_21  and  O_1 
REMARK    2  A    between atoms: O_1  and  C_37 
REMARK    3  A    between atoms: C_19  and  O_2 
REMARK    4  A    between atoms: O_3  and  C_29 
REMARK    5  A    between atoms: O_6  and  C_35 
REMARK    6  A    between atoms: O_8  and  C_41 
REMARK    7  A    between atoms: C_47  and  O_10 
REMARK    8  A    between atoms: N_12  and  C_33 
REMARK    9  A    between atoms: C_17  and  C_24 
REMARK   10  A    between atoms: C_19  and  C_29 
REMARK   11  A    between atoms: C_34  and  C_36 
REMARK   12  A    between atoms: C_36  and  C_41 
REMARK   13  A    between atoms: C_47  and  C_54 
ROOT
HETATM    1  N   UNK N   1      20.290  13.672   1.835  0.00  0.00     0.098 N 
HETATM    2  N   UNK N   1      23.961  10.670   2.459  0.00  0.00    -0.315 N 
HETATM    3  C   UNK N   1      22.054  12.090   2.194  0.00  0.00     0.047 C 
HETATM    4  C   UNK N   1      20.968  12.515   1.220  0.00  0.00     0.253 C 
HETATM    5  C   UNK N   1      19.968  11.298   0.982  0.00  0.00     0.039 C 
HETATM    6  C   UNK N   1      22.737  10.784   1.702  0.00  0.00     0.155 C 
HETATM    7  C   UNK N   1      22.117   9.584   0.988  0.00  0.00     0.195 C 
HETATM    8  C   UNK N   1      21.277  12.190   3.506  0.00  0.00     0.049 C 
HETATM    9  C   UNK N   1      20.772  10.094   0.397  0.00  0.00     0.193 C 
HETATM   10  C   UNK N   1      23.350  12.855   2.470  0.00  0.00    -0.017 C 
HETATM   11  C   UNK N   1      20.393  13.447   3.285  0.00  0.00     0.274 C 
HETATM   12  C   UNK N   1      18.961  11.845   0.010  0.00  0.00    -0.015 C 
HETATM   13  C   UNK N   1      24.398  11.961   2.594  0.00  0.00     0.047 C 
HETATM   14  C   UNK N   1      18.864  13.847   1.467  0.00  0.00     0.300 C 
HETATM   15  C   UNK N   1      18.430  13.053   0.247  0.00  0.00    -0.000 C 
HETATM   16  C   UNK N   1      23.376  14.048   3.118  0.00  0.00     0.022 C 
HETATM   17  C   UNK N   1      25.519  12.229   3.316  0.00  0.00     0.067 C 
HETATM   18  C   UNK N   1      24.388  14.250   4.053  0.00  0.00     0.000 C 
HETATM   19  C   UNK N   1      25.504  13.319   4.128  0.00  0.00     0.078 C 
ENDROOT
BRANCH  18  20
HETATM   20  C   UNK N   1      23.907  14.992   5.268  0.00  0.00     0.121 C 
HETATM   21  C   UNK N   1      22.810  15.906   4.837  0.00  0.00     0.038 C 
HETATM   22  C   UNK N   1      22.848  17.409   5.065  0.00  0.00     0.018 C 
HETATM   23  C   UNK N   1      22.325  18.071   3.810  0.00  0.00     0.046 C 
HETATM   24  C   UNK N   1      21.883  17.743   6.171  0.00  0.00     0.277 C 
HETATM   25  C   UNK N   1      20.908  17.599   3.430  0.00  0.00     0.084 C 
HETATM   26  C   UNK N   1      20.186  16.785   4.562  0.00  0.00     0.310 C 
HETATM   27  N   UNK N   1      20.567  17.123   5.966  0.00  0.00     0.092 N 
HETATM   28  C   UNK N   1      20.438  16.008   6.938  0.00  0.00     0.277 C 
HETATM   29  C   UNK N   1      20.890  14.609   6.458  0.00  0.00     0.072 C 
HETATM   30  C   UNK N   1      22.192  14.020   6.998  0.00  0.00    -0.020 A 
HETATM   31  C   UNK N   1      23.457  14.098   6.401  0.00  0.00     0.040 A 
HETATM   32  C   UNK N   1      22.395  13.274   8.153  0.00  0.00    -0.001 A 
HETATM   33  N   UNK N   1      24.362  13.368   7.101  0.00  0.00    -0.357 N 
HETATM   34  C   UNK N   1      23.716  12.896   8.165  0.00  0.00     0.043 A 
HETATM   35  H   UNK N   1      25.308  13.217   6.869  0.00  0.00     0.166 HD
HETATM   36  C   UNK N   1      24.287  12.171   9.204  0.00  0.00     0.030 A 
HETATM   37  C   UNK N   1      23.463  11.830  10.284  0.00  0.00     0.002 A 
HETATM   38  C   UNK N   1      22.101  12.208  10.285  0.00  0.00     0.001 A 
HETATM   39  C   UNK N   1      21.549  12.929   9.202  0.00  0.00     0.014 A 
BRANCH  25  40
HETATM   40  O   UNK N   1      21.002  16.765   2.314  0.00  0.00    -0.388 OA
HETATM   41  H   UNK N   1      20.985  16.663   1.349  0.00  0.00     0.210 HD
ENDBRANCH  25  40
BRANCH  25  42
HETATM   42  C   UNK N   1      20.109  18.816   2.988  0.00  0.00     0.035 C 
HETATM   43  C   UNK N   1      20.812  20.124   3.300  0.00  0.00     0.008 C 
ENDBRANCH  25  42
BRANCH  20  44
HETATM   44  C   UNK N   1      25.145  15.788   5.763  0.00  0.00     0.278 C 
HETATM   45  O   UNK N   1      25.500  15.735   6.937  0.00  0.00    -0.264 OA
BRANCH  44  46
HETATM   46  O   UNK N   1      25.891  16.496   4.877  0.00  0.00    -0.325 OA
HETATM   47  C   UNK N   1      26.796  17.452   5.283  0.00  0.00     0.213 C 
ENDBRANCH  44  46
ENDBRANCH  20  44
ENDBRANCH  18  20
BRANCH  19  48
HETATM   48  O   UNK N   1      26.422  13.326   5.124  0.00  0.00    -0.355 OA
HETATM   49  C   UNK N   1      27.785  13.421   4.886  0.00  0.00     0.210 C 
ENDBRANCH  19  48
BRANCH   2  50
HETATM   50  C   UNK N   1      24.167   9.867   3.552  0.00  0.00     0.356 C 
HETATM   51  O   UNK N   1      23.509   9.929   4.576  0.00  0.00    -0.283 OA
ENDBRANCH   2  50
BRANCH   5  52
HETATM   52  C   UNK N   1      19.221  10.856   2.268  0.00  0.00     0.014 C 
HETATM   53  C   UNK N   1      17.819  10.325   2.052  0.00  0.00     0.006 C 
ENDBRANCH   5  52
BRANCH   7  54
HETATM   54  O   UNK N   1      22.901   9.291  -0.141  0.00  0.00    -0.375 OA
HETATM   55  H   UNK N   1      23.682   8.902  -0.563  0.00  0.00     0.211 HD
ENDBRANCH   7  54
BRANCH   7  56
HETATM   56  C   UNK N   1      22.107   8.312   1.822  0.00  0.00     0.298 C 
HETATM   57  O   UNK N   1      22.839   7.386   1.522  0.00  0.00    -0.262 OA
BRANCH  56  58
HETATM   58  O   UNK N   1      21.236   8.148   2.872  0.00  0.00    -0.324 OA
HETATM   59  C   UNK N   1      21.317   7.166   3.844  0.00  0.00     0.213 C 
ENDBRANCH  56  58
ENDBRANCH   7  56
BRANCH   9  60
HETATM   60  O   UNK N   1      20.200   9.344  -0.607  0.00  0.00    -0.311 OA
BRANCH  60  61
HETATM   61  C   UNK N   1      19.961   8.023  -0.472  0.00  0.00     0.255 C 
HETATM   62  O   UNK N   1      20.686   7.211  -1.026  0.00  0.00    -0.266 OA
HETATM   63  C   UNK N   1      18.834   7.557   0.373  0.00  0.00     0.126 C 
ENDBRANCH  60  61
ENDBRANCH   9  60
TORSDOF 13
ENDMDL
MODEL 3
REMARK VINA RESULT:      -6.7      9.488     14.573
REMARK  13 active torsions:
REMARK  status: ('A' for Active; 'I' for Inactive)
REMARK    1  A    between atoms: C_21  and  O_1 
REMARK    2  A    between atoms: O_1  and  C_37 
REMARK    3  A    between atoms: C_19  and  O_2 
REMARK    4  A    between atoms: O_3  and  C_29 
REMARK    5  A    between atoms: O_6  and  C_35 
REMARK    6  A    between atoms: O_8  and  C_41 
REMARK    7  A    between atoms: C_47  and  O_10 
REMARK    8  A    between atoms: N_12  and  C_33 
REMARK    9  A    between atoms: C_17  and  C_24 
REMARK   10  A    between atoms: C_19  and  C_29 
REMARK   11  A    between atoms: C_34  and  C_36 
REMARK   12  A    between atoms: C_36  and  C_41 
REMARK   13  A    between atoms: C_47  and  C_54 
ROOT
HETATM    1  N   UNK N   1      35.396  14.258  10.364  0.00  0.00     0.098 N 
HETATM    2  N   UNK N   1      37.325  11.643   6.854  0.00  0.00    -0.315 N 
HETATM    3  C   UNK N   1      36.256  12.940   8.557  0.00  0.00     0.047 C 
HETATM    4  C   UNK N   1      35.922  14.358   8.989  0.00  0.00     0.253 C 
HETATM    5  C   UNK N   1      34.849  14.976   7.987  0.00  0.00     0.039 C 
HETATM    6  C   UNK N   1      36.686  12.920   7.064  0.00  0.00     0.155 C 
HETATM    7  C   UNK N   1      36.159  13.757   5.899  0.00  0.00     0.195 C 
HETATM    8  C   UNK N   1      35.021  12.212   9.086  0.00  0.00     0.049 C 
HETATM    9  C   UNK N   1      35.453  14.983   6.547  0.00  0.00     0.193 C 
HETATM   10  C   UNK N   1      37.430  12.106   9.073  0.00  0.00    -0.017 C 
HETATM   11  C   UNK N   1      34.742  12.943  10.426  0.00  0.00     0.274 C 
HETATM   12  C   UNK N   1      34.615  16.361   8.519  0.00  0.00    -0.015 C 
HETATM   13  C   UNK N   1      37.995  11.403   8.025  0.00  0.00     0.047 C 
HETATM   14  C   UNK N   1      34.423  15.308  10.754  0.00  0.00     0.300 C 
HETATM   15  C   UNK N   1      34.403  16.516   9.834  0.00  0.00    -0.000 C 
HETATM   16  C   UNK N   1      37.488  11.626  10.342  0.00  0.00     0.022 C 
HETATM   17  C   UNK N   1      38.674  10.236   8.196  0.00  0.00     0.067 C 
HETATM   18  C   UNK N   1      37.957  10.325  10.516  0.00  0.00     0.000 C 
HETATM   19  C   UNK N   1      38.592   9.628   9.409  0.00  0.00     0.078 C 
ENDROOT
BRANCH  18  20
HETATM   20  C   UNK N   1      37.198   9.580  11.577  0.00  0.00     0.121 C 
HETATM   21  C   UNK N   1      36.795  10.563  12.623  0.00  0.00     0.038 C 
HETATM   22  C   UNK N   1      37.177  10.415  14.088  0.00  0.00     0.018 C 
HETATM   23  C   UNK N   1      37.568  11.786  14.594  0.00  0.00     0.046 C 
HETATM   24  C   UNK N   1      35.951   9.999  14.856  0.00  0.00     0.277 C 
HETATM   25  C   UNK N   1      36.452  12.833  14.410  0.00  0.00     0.084 C 
HETATM   26  C   UNK N   1      35.059  12.215  14.033  0.00  0.00     0.310 C 
HETATM   27  N   UNK N   1      34.786  10.838  14.540  0.00  0.00     0.092 N 
HETATM   28  C   UNK N   1      33.863  10.031  13.704  0.00  0.00     0.277 C 
HETATM   29  C   UNK N   1      34.037  10.138  12.171  0.00  0.00     0.072 C 
HETATM   30  C   UNK N   1      34.653   8.969  11.406  0.00  0.00    -0.020 A 
HETATM   31  C   UNK N   1      36.001   8.814  11.059  0.00  0.00     0.040 A 
HETATM   32  C   UNK N   1      34.024   7.849  10.877  0.00  0.00    -0.001 A 
HETATM   33  N   UNK N   1      36.173   7.711  10.287  0.00  0.00    -0.357 N 
HETATM   34  C   UNK N   1      34.981   7.127  10.203  0.00  0.00     0.043 A 
HETATM   35  H   UNK N   1      37.012   7.404   9.871  0.00  0.00     0.166 HD
HETATM   36  C   UNK N   1      34.715   5.912   9.583  0.00  0.00     0.030 A 
HETATM   37  C   UNK N   1      33.409   5.413   9.670  0.00  0.00     0.002 A 
HETATM   38  C   UNK N   1      32.413   6.145  10.356  0.00  0.00     0.001 A 
HETATM   39  C   UNK N   1      32.714   7.387  10.959  0.00  0.00     0.014 A 
BRANCH  25  40
HETATM   40  O   UNK N   1      36.818  13.695  13.374  0.00  0.00    -0.388 OA
HETATM   41  H   UNK N   1      36.554  14.273  12.642  0.00  0.00     0.210 HD
ENDBRANCH  25  40
BRANCH  25  42
HETATM   42  C   UNK N   1      36.390  13.682  15.671  0.00  0.00     0.035 C 
HETATM   43  C   UNK N   1      37.231  14.941  15.572  0.00  0.00     0.008 C 
ENDBRANCH  25  42
BRANCH  20  44
HETATM   44  C   UNK N   1      38.211   8.543  12.135  0.00  0.00     0.278 C 
HETATM   45  O   UNK N   1      39.377   8.857  12.357  0.00  0.00    -0.264 OA
BRANCH  44  46
HETATM   46  O   UNK N   1      37.790   7.291  12.450  0.00  0.00    -0.325 OA
HETATM   47  C   UNK N   1      37.912   6.778  13.722  0.00  0.00     0.213 C 
ENDBRANCH  44  46
ENDBRANCH  20  44
ENDBRANCH  18  20
BRANCH  19  48
HETATM   48  O   UNK N   1      38.898   8.308   9.428  0.00  0.00    -0.355 OA
HETATM   49  C   UNK N   1      39.120   7.573   8.273  0.00  0.00     0.210 C 
ENDBRANCH  19  48
BRANCH   2  50
HETATM   50  C   UNK N   1      36.759  10.538   6.270  0.00  0.00     0.356 C 
HETATM   51  O   UNK N   1      35.790   9.952   6.719  0.00  0.00    -0.283 OA
ENDBRANCH   2  50
BRANCH   5  52
HETATM   52  C   UNK N   1      33.498  14.214   7.986  0.00  0.00     0.014 C 
HETATM   53  C   UNK N   1      32.266  15.079   7.813  0.00  0.00     0.006 C 
ENDBRANCH   5  52
BRANCH   7  54
HETATM   54  O   UNK N   1      37.258  14.310   5.222  0.00  0.00    -0.375 OA
HETATM   55  H   UNK N   1      37.659  14.969   4.633  0.00  0.00     0.211 HD
ENDBRANCH   7  54
BRANCH   7  56
HETATM   56  C   UNK N   1      35.399  12.949   4.858  0.00  0.00     0.298 C 
HETATM   57  O   UNK N   1      35.857  12.825   3.736  0.00  0.00    -0.262 OA
BRANCH  56  58
HETATM   58  O   UNK N   1      34.165  12.409   5.128  0.00  0.00    -0.324 OA
HETATM   59  C   UNK N   1      33.549  11.399   4.408  0.00  0.00     0.213 C 
ENDBRANCH  56  58
ENDBRANCH   7  56
BRANCH   9  60
HETATM   60  O   UNK N   1      35.229  16.079   5.742  0.00  0.00    -0.311 OA
BRANCH  60  61
HETATM   61  C   UNK N   1      34.036  16.309   5.156  0.00  0.00     0.255 C 
HETATM   62  O   UNK N   1      33.519  15.447   4.463  0.00  0.00    -0.266 OA
HETATM   63  C   UNK N   1      33.340  17.601   5.378  0.00  0.00     0.126 C 
ENDBRANCH  60  61
ENDBRANCH   9  60
TORSDOF 13
ENDMDL
MODEL 4
REMARK VINA RESULT:      -6.5     12.971     16.572
REMARK  13 active torsions:
REMARK  status: ('A' for Active; 'I' for Inactive)
REMARK    1  A    between atoms: C_21  and  O_1 
REMARK    2  A    between atoms: O_1  and  C_37 
REMARK    3  A    between atoms: C_19  and  O_2 
REMARK    4  A    between atoms: O_3  and  C_29 
REMARK    5  A    between atoms: O_6  and  C_35 
REMARK    6  A    between atoms: O_8  and  C_41 
REMARK    7  A    between atoms: C_47  and  O_10 
REMARK    8  A    between atoms: N_12  and  C_33 
REMARK    9  A    between atoms: C_17  and  C_24 
REMARK   10  A    between atoms: C_19  and  C_29 
REMARK   11  A    between atoms: C_34  and  C_36 
REMARK   12  A    between atoms: C_36  and  C_41 
REMARK   13  A    between atoms: C_47  and  C_54 
ROOT
HETATM    1  N   UNK N   1      28.612  21.488  -8.672  0.00  0.00     0.098 N 
HETATM    2  N   UNK N   1      29.759  23.065  -4.305  0.00  0.00    -0.315 N 
HETATM    3  C   UNK N   1      29.193  22.386  -6.528  0.00  0.00     0.047 C 
HETATM    4  C   UNK N   1      28.030  22.108  -7.466  0.00  0.00     0.253 C 
HETATM    5  C   UNK N   1      27.284  23.475  -7.802  0.00  0.00     0.039 C 
HETATM    6  C   UNK N   1      28.701  23.173  -5.282  0.00  0.00     0.155 C 
HETATM    7  C   UNK N   1      27.628  24.256  -5.189  0.00  0.00     0.195 C 
HETATM    8  C   UNK N   1      30.203  22.944  -7.530  0.00  0.00     0.049 C 
HETATM    9  C   UNK N   1      26.761  24.101  -6.471  0.00  0.00     0.193 C 
HETATM   10  C   UNK N   1      29.982  21.331  -5.752  0.00  0.00    -0.017 C 
HETATM   11  C   UNK N   1      29.958  22.068  -8.787  0.00  0.00     0.274 C 
HETATM   12  C   UNK N   1      26.170  23.060  -8.720  0.00  0.00    -0.015 C 
HETATM   13  C   UNK N   1      30.252  21.799  -4.478  0.00  0.00     0.047 C 
HETATM   14  C   UNK N   1      27.868  21.724  -9.934  0.00  0.00     0.300 C 
HETATM   15  C   UNK N   1      26.451  22.235  -9.739  0.00  0.00    -0.000 C 
HETATM   16  C   UNK N   1      30.813  20.443  -6.355  0.00  0.00     0.022 C 
HETATM   17  C   UNK N   1      31.316  21.375  -3.743  0.00  0.00     0.067 C 
HETATM   18  C   UNK N   1      32.031  20.177  -5.733  0.00  0.00     0.000 C 
HETATM   19  C   UNK N   1      32.269  20.639  -4.375  0.00  0.00     0.078 C 
ENDROOT
BRANCH  18  20
HETATM   20  C   UNK N   1      33.157  20.030  -6.718  0.00  0.00     0.121 C 
HETATM   21  C   UNK N   1      32.597  19.428  -7.962  0.00  0.00     0.038 C 
HETATM   22  C   UNK N   1      33.123  18.135  -8.563  0.00  0.00     0.018 C 
HETATM   23  C   UNK N   1      31.928  17.327  -9.018  0.00  0.00     0.046 C 
HETATM   24  C   UNK N   1      33.914  18.475  -9.798  0.00  0.00     0.277 C 
HETATM   25  C   UNK N   1      31.036  18.088 -10.019  0.00  0.00     0.084 C 
HETATM   26  C   UNK N   1      31.697  19.391 -10.593  0.00  0.00     0.310 C 
HETATM   27  N   UNK N   1      33.187  19.390 -10.689  0.00  0.00     0.092 N 
HETATM   28  C   UNK N   1      33.825  20.726 -10.580  0.00  0.00     0.277 C 
HETATM   29  C   UNK N   1      33.241  21.694  -9.525  0.00  0.00     0.072 C 
HETATM   30  C   UNK N   1      34.031  21.972  -8.248  0.00  0.00    -0.020 A 
HETATM   31  C   UNK N   1      33.888  21.319  -7.017  0.00  0.00     0.040 A 
HETATM   32  C   UNK N   1      35.016  22.926  -8.026  0.00  0.00    -0.001 A 
HETATM   33  N   UNK N   1      34.675  21.898  -6.074  0.00  0.00    -0.357 N 
HETATM   34  C   UNK N   1      35.365  22.849  -6.699  0.00  0.00     0.043 A 
HETATM   35  H   UNK N   1      34.725  21.662  -5.119  0.00  0.00     0.166 HD
HETATM   36  C   UNK N   1      36.362  23.632  -6.131  0.00  0.00     0.030 A 
HETATM   37  C   UNK N   1      37.039  24.527  -6.970  0.00  0.00     0.002 A 
HETATM   38  C   UNK N   1      36.689  24.622  -8.336  0.00  0.00     0.001 A 
HETATM   39  C   UNK N   1      35.656  23.823  -8.877  0.00  0.00     0.014 A 
BRANCH  25  40
HETATM   40  O   UNK N   1      29.862  18.470  -9.367  0.00  0.00    -0.388 OA
HETATM   41  H   UNK N   1      29.421  19.031  -8.710  0.00  0.00     0.210 HD
ENDBRANCH  25  40
BRANCH  25  42
HETATM   42  C   UNK N   1      30.621  17.116 -11.112  0.00  0.00     0.035 C 
HETATM   43  C   UNK N   1      29.764  17.767 -12.182  0.00  0.00     0.008 C 
ENDBRANCH  25  42
BRANCH  20  44
HETATM   44  C   UNK N   1      34.164  19.070  -6.028  0.00  0.00     0.278 C 
HETATM   45  O   UNK N   1      35.373  19.190  -6.207  0.00  0.00    -0.264 OA
BRANCH  44  46
HETATM   46  O   UNK N   1      33.713  18.130  -5.158  0.00  0.00    -0.325 OA
HETATM   47  C   UNK N   1      34.559  17.464  -4.298  0.00  0.00     0.213 C 
ENDBRANCH  44  46
ENDBRANCH  20  44
ENDBRANCH  18  20
BRANCH  19  48
HETATM   48  O   UNK N   1      33.480  20.598  -3.768  0.00  0.00    -0.355 OA
HETATM   49  C   UNK N   1      33.729  21.212  -2.550  0.00  0.00     0.210 C 
ENDBRANCH  19  48
BRANCH   2  50
HETATM   50  C   UNK N   1      30.698  24.022  -4.016  0.00  0.00     0.356 C 
HETATM   51  O   UNK N   1      30.758  24.620  -2.956  0.00  0.00    -0.283 OA
ENDBRANCH   2  50
BRANCH   5  52
HETATM   52  C   UNK N   1      28.181  24.498  -8.547  0.00  0.00     0.014 C 
HETATM   53  C   UNK N   1      27.477  25.331  -9.599  0.00  0.00     0.006 C 
ENDBRANCH   5  52
BRANCH   7  54
HETATM   54  O   UNK N   1      26.755  23.921  -4.140  0.00  0.00    -0.375 OA
HETATM   55  H   UNK N   1      26.085  24.150  -3.477  0.00  0.00     0.211 HD
ENDBRANCH   7  54
BRANCH   7  56
HETATM   56  C   UNK N   1      28.173  25.633  -4.845  0.00  0.00     0.298 C 
HETATM   57  O   UNK N   1      27.884  26.150  -3.780  0.00  0.00    -0.262 OA
BRANCH  56  58
HETATM   58  O   UNK N   1      28.933  26.349  -5.738  0.00  0.00    -0.324 OA
HETATM   59  C   UNK N   1      28.686  27.647  -6.153  0.00  0.00     0.213 C 
ENDBRANCH  56  58
ENDBRANCH   7  56
BRANCH   9  60
HETATM   60  O   UNK N   1      25.511  24.683  -6.461  0.00  0.00    -0.311 OA
BRANCH  60  61
HETATM   61  C   UNK N   1      25.339  26.016  -6.567  0.00  0.00     0.255 C 
HETATM   62  O   UNK N   1      25.605  26.585  -7.615  0.00  0.00    -0.266 OA
HETATM   63  C   UNK N   1      24.799  26.787  -5.420  0.00  0.00     0.126 C 
ENDBRANCH  60  61
ENDBRANCH   9  60
TORSDOF 13
ENDMDL
MODEL 5
REMARK VINA RESULT:      -6.4      1.902      2.663
REMARK  13 active torsions:
REMARK  status: ('A' for Active; 'I' for Inactive)
REMARK    1  A    between atoms: C_21  and  O_1 
REMARK    2  A    between atoms: O_1  and  C_37 
REMARK    3  A    between atoms: C_19  and  O_2 
REMARK    4  A    between atoms: O_3  and  C_29 
REMARK    5  A    between atoms: O_6  and  C_35 
REMARK    6  A    between atoms: O_8  and  C_41 
REMARK    7  A    between atoms: C_47  and  O_10 
REMARK    8  A    between atoms: N_12  and  C_33 
REMARK    9  A    between atoms: C_17  and  C_24 
REMARK   10  A    between atoms: C_19  and  C_29 
REMARK   11  A    between atoms: C_34  and  C_36 
REMARK   12  A    between atoms: C_36  and  C_41 
REMARK   13  A    between atoms: C_47  and  C_54 
ROOT
HETATM    1  N   UNK N   1      29.372  12.727   2.597  0.00  0.00     0.098 N 
HETATM    2  N   UNK N   1      27.934  16.919   4.394  0.00  0.00    -0.315 N 
HETATM    3  C   UNK N   1      28.704  14.799   3.598  0.00  0.00     0.047 C 
HETATM    4  C   UNK N   1      29.831  14.106   2.849  0.00  0.00     0.253 C 
HETATM    5  C   UNK N   1      31.153  14.139   3.736  0.00  0.00     0.039 C 
HETATM    6  C   UNK N   1      29.147  16.222   4.038  0.00  0.00     0.155 C 
HETATM    7  C   UNK N   1      30.519  16.699   4.511  0.00  0.00     0.195 C 
HETATM    8  C   UNK N   1      28.332  13.692   4.583  0.00  0.00     0.049 C 
HETATM    9  C   UNK N   1      31.532  15.628   4.017  0.00  0.00     0.193 C 
HETATM   10  C   UNK N   1      27.366  15.226   2.994  0.00  0.00    -0.017 C 
HETATM   11  C   UNK N   1      28.490  12.406   3.728  0.00  0.00     0.274 C 
HETATM   12  C   UNK N   1      32.173  13.436   2.888  0.00  0.00    -0.015 C 
HETATM   13  C   UNK N   1      27.005  16.464   3.496  0.00  0.00     0.047 C 
HETATM   14  C   UNK N   1      30.443  11.704   2.506  0.00  0.00     0.300 C 
HETATM   15  C   UNK N   1      31.838  12.273   2.311  0.00  0.00    -0.000 C 
HETATM   16  C   UNK N   1      26.420  14.336   2.599  0.00  0.00     0.022 C 
HETATM   17  C   UNK N   1      25.713  16.881   3.580  0.00  0.00     0.067 C 
HETATM   18  C   UNK N   1      25.092  14.634   2.897  0.00  0.00     0.000 C 
HETATM   19  C   UNK N   1      24.735  15.960   3.377  0.00  0.00     0.078 C 
ENDROOT
BRANCH  18  20
HETATM   20  C   UNK N   1      24.310  13.418   3.307  0.00  0.00     0.121 C 
HETATM   21  C   UNK N   1      24.927  12.235   2.641  0.00  0.00     0.038 C 
HETATM   22  C   UNK N   1      24.148  11.299   1.730  0.00  0.00     0.018 C 
HETATM   23  C   UNK N   1      25.035  10.973   0.550  0.00  0.00     0.046 C 
HETATM   24  C   UNK N   1      23.913  10.008   2.470  0.00  0.00     0.277 C 
HETATM   25  C   UNK N   1      26.384  10.353   0.967  0.00  0.00     0.084 C 
HETATM   26  C   UNK N   1      26.438   9.906   2.470  0.00  0.00     0.310 C 
HETATM   27  N   UNK N   1      25.142   9.488   3.084  0.00  0.00     0.092 N 
HETATM   28  C   UNK N   1      25.040   9.706   4.549  0.00  0.00     0.277 C 
HETATM   29  C   UNK N   1      25.626  11.027   5.099  0.00  0.00     0.072 C 
HETATM   30  C   UNK N   1      24.676  12.129   5.562  0.00  0.00    -0.020 A 
HETATM   31  C   UNK N   1      24.221  13.215   4.803  0.00  0.00     0.040 A 
HETATM   32  C   UNK N   1      24.093  12.307   6.811  0.00  0.00    -0.001 A 
HETATM   33  N   UNK N   1      23.477  14.055   5.567  0.00  0.00    -0.357 N 
HETATM   34  C   UNK N   1      23.389  13.486   6.767  0.00  0.00     0.043 A 
HETATM   35  H   UNK N   1      23.082  14.914   5.290  0.00  0.00     0.166 HD
HETATM   36  C   UNK N   1      22.638  13.960   7.835  0.00  0.00     0.030 A 
HETATM   37  C   UNK N   1      22.600  13.179   8.997  0.00  0.00     0.002 A 
HETATM   38  C   UNK N   1      23.322  11.966   9.060  0.00  0.00     0.001 A 
HETATM   39  C   UNK N   1      24.092  11.523   7.961  0.00  0.00     0.014 A 
BRANCH  25  40
HETATM   40  O   UNK N   1      27.387  11.306   0.780  0.00  0.00    -0.388 OA
HETATM   41  H   UNK N   1      27.654  12.238   0.762  0.00  0.00     0.210 HD
ENDBRANCH  25  40
BRANCH  25  42
HETATM   42  C   UNK N   1      26.694   9.213   0.009  0.00  0.00     0.035 C 
HETATM   43  C   UNK N   1      25.444   8.547  -0.535  0.00  0.00     0.008 C 
ENDBRANCH  25  42
BRANCH  20  44
HETATM   44  C   UNK N   1      22.871  13.676   2.783  0.00  0.00     0.278 C 
HETATM   45  O   UNK N   1      21.891  13.387   3.465  0.00  0.00    -0.264 OA
BRANCH  44  46
HETATM   46  O   UNK N   1      22.689  14.294   1.589  0.00  0.00    -0.325 OA
HETATM   47  C   UNK N   1      21.486  14.868   1.239  0.00  0.00     0.213 C 
ENDBRANCH  44  46
ENDBRANCH  20  44
ENDBRANCH  18  20
BRANCH  19  48
HETATM   48  O   UNK N   1      23.515  16.276   3.873  0.00  0.00    -0.355 OA
HETATM   49  C   UNK N   1      23.231  17.513   4.432  0.00  0.00     0.210 C 
ENDBRANCH  19  48
BRANCH   2  50
HETATM   50  C   UNK N   1      27.462  17.130   5.664  0.00  0.00     0.356 C 
HETATM   51  O   UNK N   1      27.350  18.231   6.175  0.00  0.00    -0.283 OA
ENDBRANCH   2  50
BRANCH   5  52
HETATM   52  C   UNK N   1      31.013  13.371   5.077  0.00  0.00     0.014 C 
HETATM   53  C   UNK N   1      32.288  12.738   5.596  0.00  0.00     0.006 C 
ENDBRANCH   5  52
BRANCH   7  54
HETATM   54  O   UNK N   1      30.857  17.854   3.786  0.00  0.00    -0.375 OA
HETATM   55  H   UNK N   1      30.641  18.575   3.174  0.00  0.00     0.211 HD
ENDBRANCH   7  54
BRANCH   7  56
HETATM   56  C   UNK N   1      30.554  17.110   5.976  0.00  0.00     0.298 C 
HETATM   57  O   UNK N   1      30.548  18.291   6.273  0.00  0.00    -0.262 OA
BRANCH  56  58
HETATM   58  O   UNK N   1      30.665  16.179   6.980  0.00  0.00    -0.324 OA
HETATM   59  C   UNK N   1      31.172  16.412   8.247  0.00  0.00     0.213 C 
ENDBRANCH  56  58
ENDBRANCH   7  56
BRANCH   9  60
HETATM   60  O   UNK N   1      32.860  15.992   3.967  0.00  0.00    -0.311 OA
BRANCH  60  61
HETATM   61  C   UNK N   1      33.506  16.503   5.035  0.00  0.00     0.255 C 
HETATM   62  O   UNK N   1      33.627  17.712   5.155  0.00  0.00    -0.266 OA
HETATM   63  C   UNK N   1      34.047  15.596   6.077  0.00  0.00     0.126 C 
ENDBRANCH  60  61
ENDBRANCH   9  60
TORSDOF 13
ENDMDL
MODEL 6
REMARK VINA RESULT:      -6.4     11.537     15.933
REMARK  13 active torsions:
REMARK  status: ('A' for Active; 'I' for Inactive)
REMARK    1  A    between atoms: C_21  and  O_1 
REMARK    2  A    between atoms: O_1  and  C_37 
REMARK    3  A    between atoms: C_19  and  O_2 
REMARK    4  A    between atoms: O_3  and  C_29 
REMARK    5  A    between atoms: O_6  and  C_35 
REMARK    6  A    between atoms: O_8  and  C_41 
REMARK    7  A    between atoms: C_47  and  O_10 
REMARK    8  A    between atoms: N_12  and  C_33 
REMARK    9  A    between atoms: C_17  and  C_24 
REMARK   10  A    between atoms: C_19  and  C_29 
REMARK   11  A    between atoms: C_34  and  C_36 
REMARK   12  A    between atoms: C_36  and  C_41 
REMARK   13  A    between atoms: C_47  and  C_54 
ROOT
HETATM    1  N   UNK N   1      34.426   9.181  10.055  0.00  0.00     0.098 N 
HETATM    2  N   UNK N   1      35.575  12.371  13.428  0.00  0.00    -0.315 N 
HETATM    3  C   UNK N   1      35.086  10.820  11.673  0.00  0.00     0.047 C 
HETATM    4  C   UNK N   1      34.206  10.583  10.457  0.00  0.00     0.253 C 
HETATM    5  C   UNK N   1      34.615  11.603   9.303  0.00  0.00     0.039 C 
HETATM    6  C   UNK N   1      35.034  12.316  12.090  0.00  0.00     0.155 C 
HETATM    7  C   UNK N   1      34.944  13.559  11.207  0.00  0.00     0.195 C 
HETATM    8  C   UNK N   1      36.361  10.120  11.208  0.00  0.00     0.049 C 
HETATM    9  C   UNK N   1      34.420  13.060   9.830  0.00  0.00     0.193 C 
HETATM   10  C   UNK N   1      34.839  10.254  13.073  0.00  0.00    -0.017 C 
HETATM   11  C   UNK N   1      35.814   8.888  10.439  0.00  0.00     0.274 C 
HETATM   12  C   UNK N   1      33.678  11.268   8.179  0.00  0.00    -0.015 C 
HETATM   13  C   UNK N   1      35.133  11.218  14.021  0.00  0.00     0.047 C 
HETATM   14  C   UNK N   1      34.246   8.895   8.610  0.00  0.00     0.300 C 
HETATM   15  C   UNK N   1      33.511   9.980   7.843  0.00  0.00    -0.000 C 
HETATM   16  C   UNK N   1      34.965   8.934  13.365  0.00  0.00     0.022 C 
HETATM   17  C   UNK N   1      35.511  10.916  15.292  0.00  0.00     0.067 C 
HETATM   18  C   UNK N   1      35.579   8.597  14.569  0.00  0.00     0.000 C 
HETATM   19  C   UNK N   1      35.831   9.624  15.568  0.00  0.00     0.078 C 
ENDROOT
BRANCH  18  20
HETATM   20  C   UNK N   1      36.473   7.396  14.440  0.00  0.00     0.121 C 
HETATM   21  C   UNK N   1      35.890   6.506  13.395  0.00  0.00     0.038 C 
HETATM   22  C   UNK N   1      35.517   5.056  13.659  0.00  0.00     0.018 C 
HETATM   23  C   UNK N   1      34.195   4.796  12.972  0.00  0.00     0.046 C 
HETATM   24  C   UNK N   1      36.539   4.176  12.989  0.00  0.00     0.277 C 
HETATM   25  C   UNK N   1      34.236   5.097  11.460  0.00  0.00     0.084 C 
HETATM   26  C   UNK N   1      35.686   5.305  10.895  0.00  0.00     0.310 C 
HETATM   27  N   UNK N   1      36.782   4.570  11.594  0.00  0.00     0.092 N 
HETATM   28  C   UNK N   1      38.114   5.222  11.536  0.00  0.00     0.277 C 
HETATM   29  C   UNK N   1      38.146   6.758  11.709  0.00  0.00     0.072 C 
HETATM   30  C   UNK N   1      38.674   7.351  13.014  0.00  0.00    -0.020 A 
HETATM   31  C   UNK N   1      37.915   7.729  14.129  0.00  0.00     0.040 A 
HETATM   32  C   UNK N   1      39.983   7.664  13.360  0.00  0.00    -0.001 A 
HETATM   33  N   UNK N   1      38.701   8.320  15.065  0.00  0.00    -0.357 N 
HETATM   34  C   UNK N   1      39.946   8.254  14.600  0.00  0.00     0.043 A 
HETATM   35  H   UNK N   1      38.409   8.718  15.918  0.00  0.00     0.166 HD
HETATM   36  C   UNK N   1      41.088   8.657  15.282  0.00  0.00     0.030 A 
HETATM   37  C   UNK N   1      42.324   8.432  14.663  0.00  0.00     0.002 A 
HETATM   38  C   UNK N   1      42.379   7.829  13.385  0.00  0.00     0.001 A 
HETATM   39  C   UNK N   1      41.196   7.449  12.712  0.00  0.00     0.014 A 
BRANCH  25  40
HETATM   40  O   UNK N   1      33.524   6.274  11.223  0.00  0.00    -0.388 OA
HETATM   41  H   UNK N   1      33.244   7.151  11.526  0.00  0.00     0.210 HD
ENDBRANCH  25  40
BRANCH  25  42
HETATM   42  C   UNK N   1      33.484   3.988  10.740  0.00  0.00     0.035 C 
HETATM   43  C   UNK N   1      32.233   3.552  11.478  0.00  0.00     0.008 C 
ENDBRANCH  25  42
BRANCH  20  44
HETATM   44  C   UNK N   1      36.439   6.724  15.840  0.00  0.00     0.278 C 
HETATM   45  O   UNK N   1      35.391   6.639  16.473  0.00  0.00    -0.264 OA
BRANCH  44  46
HETATM   46  O   UNK N   1      37.566   6.158  16.344  0.00  0.00    -0.325 OA
HETATM   47  C   UNK N   1      37.605   4.842  16.746  0.00  0.00     0.213 C 
ENDBRANCH  44  46
ENDBRANCH  20  44
ENDBRANCH  18  20
BRANCH  19  48
HETATM   48  O   UNK N   1      36.591   9.428  16.672  0.00  0.00    -0.355 OA
HETATM   49  C   UNK N   1      36.311  10.029  17.890  0.00  0.00     0.210 C 
ENDBRANCH  19  48
BRANCH   2  50
HETATM   50  C   UNK N   1      36.847  12.753  13.773  0.00  0.00     0.356 C 
HETATM   51  O   UNK N   1      37.100  13.696  14.502  0.00  0.00    -0.283 OA
ENDBRANCH   2  50
BRANCH   5  52
HETATM   52  C   UNK N   1      36.071  11.414   8.804  0.00  0.00     0.014 C 
HETATM   53  C   UNK N   1      36.289  11.681   7.329  0.00  0.00     0.006 C 
ENDBRANCH   5  52
BRANCH   7  54
HETATM   54  O   UNK N   1      33.908  14.372  11.696  0.00  0.00    -0.375 OA
HETATM   55  H   UNK N   1      33.079  14.503  12.182  0.00  0.00     0.211 HD
ENDBRANCH   7  54
BRANCH   7  56
HETATM   56  C   UNK N   1      36.194  14.425  11.236  0.00  0.00     0.298 C 
HETATM   57  O   UNK N   1      36.113  15.593  11.573  0.00  0.00    -0.262 OA
BRANCH  56  58
HETATM   58  O   UNK N   1      37.413  13.942  10.823  0.00  0.00    -0.324 OA
HETATM   59  C   UNK N   1      38.137  14.400   9.736  0.00  0.00     0.213 C 
ENDBRANCH  56  58
ENDBRANCH   7  56
BRANCH   9  60
HETATM   60  O   UNK N   1      33.886  14.003   8.979  0.00  0.00    -0.311 OA
BRANCH  60  61
HETATM   61  C   UNK N   1      34.633  14.981   8.428  0.00  0.00     0.255 C 
HETATM   62  O   UNK N   1      35.543  14.698   7.664  0.00  0.00    -0.266 OA
HETATM   63  C   UNK N   1      34.333  16.403   8.730  0.00  0.00     0.126 C 
ENDBRANCH  60  61
ENDBRANCH   9  60
TORSDOF 13
ENDMDL
MODEL 7
REMARK VINA RESULT:      -6.0     13.361     16.394
REMARK  13 active torsions:
REMARK  status: ('A' for Active; 'I' for Inactive)
REMARK    1  A    between atoms: C_21  and  O_1 
REMARK    2  A    between atoms: O_1  and  C_37 
REMARK    3  A    between atoms: C_19  and  O_2 
REMARK    4  A    between atoms: O_3  and  C_29 
REMARK    5  A    between atoms: O_6  and  C_35 
REMARK    6  A    between atoms: O_8  and  C_41 
REMARK    7  A    between atoms: C_47  and  O_10 
REMARK    8  A    between atoms: N_12  and  C_33 
REMARK    9  A    between atoms: C_17  and  C_24 
REMARK   10  A    between atoms: C_19  and  C_29 
REMARK   11  A    between atoms: C_34  and  C_36 
REMARK   12  A    between atoms: C_36  and  C_41 
REMARK   13  A    between atoms: C_47  and  C_54 
ROOT
HETATM    1  N   UNK N   1      27.621  21.293  -8.392  0.00  0.00     0.098 N 
HETATM    2  N   UNK N   1      30.102  22.875  -4.622  0.00  0.00    -0.315 N 
HETATM    3  C   UNK N   1      28.865  22.193  -6.552  0.00  0.00     0.047 C 
HETATM    4  C   UNK N   1      27.461  21.979  -7.096  0.00  0.00     0.253 C 
HETATM    5  C   UNK N   1      26.737  23.389  -7.255  0.00  0.00     0.039 C 
HETATM    6  C   UNK N   1      28.813  23.039  -5.250  0.00  0.00     0.155 C 
HETATM    7  C   UNK N   1      27.885  24.199  -4.892  0.00  0.00     0.195 C 
HETATM    8  C   UNK N   1      29.567  22.654  -7.828  0.00  0.00     0.049 C 
HETATM    9  C   UNK N   1      26.670  24.079  -5.856  0.00  0.00     0.193 C 
HETATM   10  C   UNK N   1      29.779  21.100  -5.997  0.00  0.00    -0.017 C 
HETATM   11  C   UNK N   1      28.907  21.771  -8.920  0.00  0.00     0.274 C 
HETATM   12  C   UNK N   1      25.378  23.036  -7.788  0.00  0.00    -0.015 C 
HETATM   13  C   UNK N   1      30.442  21.574  -4.879  0.00  0.00     0.047 C 
HETATM   14  C   UNK N   1      26.554  21.556  -9.389  0.00  0.00     0.300 C 
HETATM   15  C   UNK N   1      25.293  22.171  -8.810  0.00  0.00    -0.000 C 
HETATM   16  C   UNK N   1      30.338  20.141  -6.780  0.00  0.00     0.022 C 
HETATM   17  C   UNK N   1      31.646  21.090  -4.472  0.00  0.00     0.067 C 
HETATM   18  C   UNK N   1      31.666  19.801  -6.532  0.00  0.00     0.000 C 
HETATM   19  C   UNK N   1      32.323  20.274  -5.323  0.00  0.00     0.078 C 
ENDROOT
BRANCH  18  20
HETATM   20  C   UNK N   1      32.439  19.552  -7.796  0.00  0.00     0.121 C 
HETATM   21  C   UNK N   1      33.689  18.828  -7.429  0.00  0.00     0.038 C 
HETATM   22  C   UNK N   1      35.077  19.348  -7.769  0.00  0.00     0.018 C 
HETATM   23  C   UNK N   1      35.959  19.108  -6.564  0.00  0.00     0.046 C 
HETATM   24  C   UNK N   1      35.633  18.513  -8.891  0.00  0.00     0.277 C 
HETATM   25  C   UNK N   1      36.006  17.626  -6.142  0.00  0.00     0.084 C 
HETATM   26  C   UNK N   1      35.398  16.645  -7.206  0.00  0.00     0.310 C 
HETATM   27  N   UNK N   1      35.494  17.073  -8.633  0.00  0.00     0.092 N 
HETATM   28  C   UNK N   1      34.419  16.558  -9.518  0.00  0.00     0.277 C 
HETATM   29  C   UNK N   1      32.986  16.543  -8.938  0.00  0.00     0.072 C 
HETATM   30  C   UNK N   1      31.967  17.564  -9.440  0.00  0.00    -0.020 A 
HETATM   31  C   UNK N   1      31.666  18.801  -8.857  0.00  0.00     0.040 A 
HETATM   32  C   UNK N   1      31.118  17.478 -10.536  0.00  0.00    -0.001 A 
HETATM   33  N   UNK N   1      30.633  19.398  -9.505  0.00  0.00    -0.357 N 
HETATM   34  C   UNK N   1      30.327  18.602 -10.527  0.00  0.00     0.043 A 
HETATM   35  H   UNK N   1      30.197  20.249  -9.268  0.00  0.00     0.166 HD
HETATM   36  C   UNK N   1      29.386  18.874 -11.512  0.00  0.00     0.030 A 
HETATM   37  C   UNK N   1      29.260  17.952 -12.559  0.00  0.00     0.002 A 
HETATM   38  C   UNK N   1      30.063  16.788 -12.581  0.00  0.00     0.001 A 
HETATM   39  C   UNK N   1      30.998  16.534 -11.552  0.00  0.00     0.014 A 
BRANCH  25  40
HETATM   40  O   UNK N   1      35.266  17.475  -4.967  0.00  0.00    -0.388 OA
HETATM   41  H   UNK N   1      34.825  17.882  -4.205  0.00  0.00     0.210 HD
ENDBRANCH  25  40
BRANCH  25  42
HETATM   42  C   UNK N   1      37.445  17.282  -5.788  0.00  0.00     0.035 C 
HETATM   43  C   UNK N   1      38.305  18.512  -5.568  0.00  0.00     0.008 C 
ENDBRANCH  25  42
BRANCH  20  44
HETATM   44  C   UNK N   1      32.749  20.968  -8.356  0.00  0.00     0.278 C 
HETATM   45  O   UNK N   1      32.804  21.168  -9.566  0.00  0.00    -0.264 OA
BRANCH  44  46
HETATM   46  O   UNK N   1      32.889  22.015  -7.504  0.00  0.00    -0.325 OA
HETATM   47  C   UNK N   1      33.951  22.888  -7.588  0.00  0.00     0.213 C 
ENDBRANCH  44  46
ENDBRANCH  20  44
ENDBRANCH  18  20
BRANCH  19  48
HETATM   48  O   UNK N   1      33.653  20.158  -5.097  0.00  0.00    -0.355 OA
HETATM   49  C   UNK N   1      34.290  20.783  -4.035  0.00  0.00     0.210 C 
ENDBRANCH  19  48
BRANCH   2  50
HETATM   50  C   UNK N   1      31.143  23.768  -4.662  0.00  0.00     0.356 C 
HETATM   51  O   UNK N   1      31.564  24.367  -3.688  0.00  0.00    -0.283 OA
ENDBRANCH   2  50
BRANCH   5  52
HETATM   52  C   UNK N   1      27.437  24.328  -8.272  0.00  0.00     0.014 C 
HETATM   53  C   UNK N   1      26.516  25.263  -9.029  0.00  0.00     0.006 C 
ENDBRANCH   5  52
BRANCH   7  54
HETATM   54  O   UNK N   1      27.341  23.950  -3.620  0.00  0.00    -0.375 OA
HETATM   55  H   UNK N   1      27.209  24.176  -2.686  0.00  0.00     0.211 HD
ENDBRANCH   7  54
BRANCH   7  56
HETATM   56  C   UNK N   1      28.593  25.540  -4.780  0.00  0.00     0.298 C 
HETATM   57  O   UNK N   1      28.739  26.058  -3.687  0.00  0.00    -0.262 OA
BRANCH  56  58
HETATM   58  O   UNK N   1      29.015  26.225  -5.895  0.00  0.00    -0.324 OA
HETATM   59  C   UNK N   1      29.153  27.599  -5.996  0.00  0.00     0.213 C 
ENDBRANCH  56  58
ENDBRANCH   7  56
BRANCH   9  60
HETATM   60  O   UNK N   1      25.518  24.750  -5.505  0.00  0.00    -0.311 OA
BRANCH  60  61
HETATM   61  C   UNK N   1      25.503  26.078  -5.272  0.00  0.00     0.255 C 
HETATM   62  O   UNK N   1      25.561  26.498  -4.126  0.00  0.00    -0.266 OA
HETATM   63  C   UNK N   1      25.442  27.030  -6.409  0.00  0.00     0.126 C 
ENDBRANCH  60  61
ENDBRANCH   9  60
TORSDOF 13
ENDMDL
MODEL 8
REMARK VINA RESULT:      -5.9     12.620     16.831
REMARK  13 active torsions:
REMARK  status: ('A' for Active; 'I' for Inactive)
REMARK    1  A    between atoms: C_21  and  O_1 
REMARK    2  A    between atoms: O_1  and  C_37 
REMARK    3  A    between atoms: C_19  and  O_2 
REMARK    4  A    between atoms: O_3  and  C_29 
REMARK    5  A    between atoms: O_6  and  C_35 
REMARK    6  A    between atoms: O_8  and  C_41 
REMARK    7  A    between atoms: C_47  and  O_10 
REMARK    8  A    between atoms: N_12  and  C_33 
REMARK    9  A    between atoms: C_17  and  C_24 
REMARK   10  A    between atoms: C_19  and  C_29 
REMARK   11  A    between atoms: C_34  and  C_36 
REMARK   12  A    between atoms: C_36  and  C_41 
REMARK   13  A    between atoms: C_47  and  C_54 
ROOT
HETATM    1  N   UNK N   1      34.981   9.148  11.368  0.00  0.00     0.098 N 
HETATM    2  N   UNK N   1      35.092  13.292  13.753  0.00  0.00    -0.315 N 
HETATM    3  C   UNK N   1      35.134  11.252  12.504  0.00  0.00     0.047 C 
HETATM    4  C   UNK N   1      34.604  10.570  11.254  0.00  0.00     0.253 C 
HETATM    5  C   UNK N   1      35.248  11.252   9.967  0.00  0.00     0.039 C 
HETATM    6  C   UNK N   1      34.912  12.788  12.412  0.00  0.00     0.155 C 
HETATM    7  C   UNK N   1      34.996  13.701  11.191  0.00  0.00     0.195 C 
HETATM    8  C   UNK N   1      36.515  10.605  12.585  0.00  0.00     0.049 C 
HETATM    9  C   UNK N   1      34.862  12.765   9.956  0.00  0.00     0.193 C 
HETATM   10  C   UNK N   1      34.564  11.091  13.914  0.00  0.00    -0.017 C 
HETATM   11  C   UNK N   1      36.237   9.147  12.132  0.00  0.00     0.274 C 
HETATM   12  C   UNK N   1      34.645  10.496   8.818  0.00  0.00    -0.015 C 
HETATM   13  C   UNK N   1      34.564  12.316  14.557  0.00  0.00     0.047 C 
HETATM   14  C   UNK N   1      35.189   8.436  10.083  0.00  0.00     0.300 C 
HETATM   15  C   UNK N   1      34.625   9.156   8.871  0.00  0.00    -0.000 C 
HETATM   16  C   UNK N   1      34.669   9.937  14.622  0.00  0.00     0.022 C 
HETATM   17  C   UNK N   1      34.618  12.443  15.910  0.00  0.00     0.067 C 
HETATM   18  C   UNK N   1      34.971  10.040  15.979  0.00  0.00     0.000 C 
HETATM   19  C   UNK N   1      34.914  11.335  16.639  0.00  0.00     0.078 C 
ENDROOT
BRANCH  18  20
HETATM   20  C   UNK N   1      35.920   8.969  16.437  0.00  0.00     0.121 C 
HETATM   21  C   UNK N   1      35.895   8.947  17.928  0.00  0.00     0.038 C 
HETATM   22  C   UNK N   1      37.141   9.134  18.778  0.00  0.00     0.018 C 
HETATM   23  C   UNK N   1      36.769  10.029  19.939  0.00  0.00     0.046 C 
HETATM   24  C   UNK N   1      37.520   7.798  19.361  0.00  0.00     0.277 C 
HETATM   25  C   UNK N   1      35.599   9.471  20.774  0.00  0.00     0.084 C 
HETATM   26  C   UNK N   1      35.247   7.975  20.451  0.00  0.00     0.310 C 
HETATM   27  N   UNK N   1      36.374   7.117  19.979  0.00  0.00     0.092 N 
HETATM   28  C   UNK N   1      35.980   5.998  19.087  0.00  0.00     0.277 C 
HETATM   29  C   UNK N   1      34.901   6.302  18.021  0.00  0.00     0.072 C 
HETATM   30  C   UNK N   1      35.313   6.420  16.555  0.00  0.00    -0.020 A 
HETATM   31  C   UNK N   1      35.629   7.599  15.867  0.00  0.00     0.040 A 
HETATM   32  C   UNK N   1      35.431   5.416  15.602  0.00  0.00    -0.001 A 
HETATM   33  N   UNK N   1      35.841   7.343  14.551  0.00  0.00    -0.357 N 
HETATM   34  C   UNK N   1      35.741   6.023  14.409  0.00  0.00     0.043 A 
HETATM   35  H   UNK N   1      36.031   8.001  13.843  0.00  0.00     0.166 HD
HETATM   36  C   UNK N   1      35.980   5.315  13.238  0.00  0.00     0.030 A 
HETATM   37  C   UNK N   1      35.907   3.917  13.301  0.00  0.00     0.002 A 
HETATM   38  C   UNK N   1      35.585   3.278  14.520  0.00  0.00     0.001 A 
HETATM   39  C   UNK N   1      35.330   4.031  15.688  0.00  0.00     0.014 A 
BRANCH  25  40
HETATM   40  O   UNK N   1      34.460  10.233  20.509  0.00  0.00    -0.388 OA
HETATM   41  H   UNK N   1      34.022  11.098  20.504  0.00  0.00     0.210 HD
ENDBRANCH  25  40
BRANCH  25  42
HETATM   42  C   UNK N   1      35.926   9.688  22.244  0.00  0.00     0.035 C 
HETATM   43  C   UNK N   1      37.395   9.985  22.481  0.00  0.00     0.008 C 
ENDBRANCH  25  42
BRANCH  20  44
HETATM   44  C   UNK N   1      37.308   9.414  15.900  0.00  0.00     0.278 C 
HETATM   45  O   UNK N   1      37.591  10.603  15.794  0.00  0.00    -0.264 OA
BRANCH  44  46
HETATM   46  O   UNK N   1      38.250   8.479  15.611  0.00  0.00    -0.325 OA
HETATM   47  C   UNK N   1      39.247   8.708  14.688  0.00  0.00     0.213 C 
ENDBRANCH  44  46
ENDBRANCH  20  44
ENDBRANCH  18  20
BRANCH  19  48
HETATM   48  O   UNK N   1      35.376  11.559  17.893  0.00  0.00    -0.355 OA
HETATM   49  C   UNK N   1      35.312  12.803  18.503  0.00  0.00     0.210 C 
ENDBRANCH  19  48
BRANCH   2  50
HETATM   50  C   UNK N   1      36.215  13.907  14.245  0.00  0.00     0.356 C 
HETATM   51  O   UNK N   1      37.298  13.360  14.357  0.00  0.00    -0.283 OA
ENDBRANCH   2  50
BRANCH   5  52
HETATM   52  C   UNK N   1      36.791  11.103   9.899  0.00  0.00     0.014 C 
HETATM   53  C   UNK N   1      37.399  11.294   8.524  0.00  0.00     0.006 C 
ENDBRANCH   5  52
BRANCH   7  54
HETATM   54  O   UNK N   1      33.834  14.491  11.152  0.00  0.00    -0.375 OA
HETATM   55  H   UNK N   1      33.337  15.269  10.855  0.00  0.00     0.211 HD
ENDBRANCH   7  54
BRANCH   7  56
HETATM   56  C   UNK N   1      36.157  14.682  11.236  0.00  0.00     0.298 C 
HETATM   57  O   UNK N   1      35.945  15.862  11.452  0.00  0.00    -0.262 OA
BRANCH  56  58
HETATM   58  O   UNK N   1      37.445  14.283  10.968  0.00  0.00    -0.324 OA
HETATM   59  C   UNK N   1      38.154  14.562   9.812  0.00  0.00     0.213 C 
ENDBRANCH  56  58
ENDBRANCH   7  56
BRANCH   9  60
HETATM   60  O   UNK N   1      34.521  13.351   8.755  0.00  0.00    -0.311 OA
BRANCH  60  61
HETATM   61  C   UNK N   1      33.270  13.289   8.255  0.00  0.00     0.255 C 
HETATM   62  O   UNK N   1      32.308  13.350   9.005  0.00  0.00    -0.266 OA
HETATM   63  C   UNK N   1      33.063  13.175   6.790  0.00  0.00     0.126 C 
ENDBRANCH  60  61
ENDBRANCH   9  60
TORSDOF 13
ENDMDL
MODEL 9
REMARK VINA RESULT:      -5.8      6.986     12.168
REMARK  13 active torsions:
REMARK  status: ('A' for Active; 'I' for Inactive)
REMARK    1  A    between atoms: C_21  and  O_1 
REMARK    2  A    between atoms: O_1  and  C_37 
REMARK    3  A    between atoms: C_19  and  O_2 
REMARK    4  A    between atoms: O_3  and  C_29 
REMARK    5  A    between atoms: O_6  and  C_35 
REMARK    6  A    between atoms: O_8  and  C_41 
REMARK    7  A    between atoms: C_47  and  O_10 
REMARK    8  A    between atoms: N_12  and  C_33 
REMARK    9  A    between atoms: C_17  and  C_24 
REMARK   10  A    between atoms: C_19  and  C_29 
REMARK   11  A    between atoms: C_34  and  C_36 
REMARK   12  A    between atoms: C_36  and  C_41 
REMARK   13  A    between atoms: C_47  and  C_54 
ROOT
HETATM    1  N   UNK N   1      34.334  14.814   8.813  0.00  0.00     0.098 N 
HETATM    2  N   UNK N   1      35.040  10.137   9.520  0.00  0.00    -0.315 N 
HETATM    3  C   UNK N   1      34.803  12.489   9.153  0.00  0.00     0.047 C 
HETATM    4  C   UNK N   1      34.701  13.835   9.853  0.00  0.00     0.253 C 
HETATM    5  C   UNK N   1      36.099  14.184  10.531  0.00  0.00     0.039 C 
HETATM    6  C   UNK N   1      35.326  11.409  10.141  0.00  0.00     0.155 C 
HETATM    7  C   UNK N   1      36.359  11.546  11.258  0.00  0.00     0.195 C 
HETATM    8  C   UNK N   1      35.555  12.911   7.893  0.00  0.00     0.049 C 
HETATM    9  C   UNK N   1      36.448  13.068  11.565  0.00  0.00     0.193 C 
HETATM   10  C   UNK N   1      33.624  11.669   8.627  0.00  0.00    -0.017 C 
HETATM   11  C   UNK N   1      34.938  14.300   7.575  0.00  0.00     0.274 C 
HETATM   12  C   UNK N   1      35.860  15.517  11.181  0.00  0.00    -0.015 C 
HETATM   13  C   UNK N   1      33.837  10.328   8.894  0.00  0.00     0.047 C 
HETATM   14  C   UNK N   1      34.804  16.202   9.047  0.00  0.00     0.300 C 
HETATM   15  C   UNK N   1      35.253  16.479  10.471  0.00  0.00    -0.000 C 
HETATM   16  C   UNK N   1      32.879  12.054   7.560  0.00  0.00     0.022 C 
HETATM   17  C   UNK N   1      33.288   9.329   8.151  0.00  0.00     0.067 C 
HETATM   18  C   UNK N   1      32.509  11.070   6.645  0.00  0.00     0.000 C 
HETATM   19  C   UNK N   1      32.700   9.666   6.973  0.00  0.00     0.078 C 
ENDROOT
BRANCH  18  20
HETATM   20  C   UNK N   1      32.568  11.557   5.225  0.00  0.00     0.121 C 
HETATM   21  C   UNK N   1      32.264  13.016   5.231  0.00  0.00     0.038 C 
HETATM   22  C   UNK N   1      31.128  13.627   4.425  0.00  0.00     0.018 C 
HETATM   23  C   UNK N   1      30.457  14.662   5.301  0.00  0.00     0.046 C 
HETATM   24  C   UNK N   1      31.723  14.365   3.255  0.00  0.00     0.277 C 
HETATM   25  C   UNK N   1      31.432  15.745   5.804  0.00  0.00     0.084 C 
HETATM   26  C   UNK N   1      32.820  15.736   5.072  0.00  0.00     0.310 C 
HETATM   27  N   UNK N   1      32.821  15.253   3.659  0.00  0.00     0.092 N 
HETATM   28  C   UNK N   1      34.092  14.632   3.207  0.00  0.00     0.277 C 
HETATM   29  C   UNK N   1      34.810  13.704   4.214  0.00  0.00     0.072 C 
HETATM   30  C   UNK N   1      34.789  12.194   3.983  0.00  0.00    -0.020 A 
HETATM   31  C   UNK N   1      33.882  11.277   4.530  0.00  0.00     0.040 A 
HETATM   32  C   UNK N   1      35.657  11.418   3.225  0.00  0.00    -0.001 A 
HETATM   33  N   UNK N   1      34.228  10.007   4.199  0.00  0.00    -0.357 N 
HETATM   34  C   UNK N   1      35.284  10.107   3.396  0.00  0.00     0.043 A 
HETATM   35  H   UNK N   1      33.786   9.177   4.494  0.00  0.00     0.166 HD
HETATM   36  C   UNK N   1      35.909   9.050   2.744  0.00  0.00     0.030 A 
HETATM   37  C   UNK N   1      36.958   9.360   1.869  0.00  0.00     0.002 A 
HETATM   38  C   UNK N   1      37.357  10.704   1.686  0.00  0.00     0.001 A 
HETATM   39  C   UNK N   1      36.711  11.752   2.380  0.00  0.00     0.014 A 
BRANCH  25  40
HETATM   40  O   UNK N   1      31.676  15.527   7.161  0.00  0.00    -0.388 OA
HETATM   41  H   UNK N   1      32.203  15.720   7.952  0.00  0.00     0.210 HD
ENDBRANCH  25  40
BRANCH  25  42
HETATM   42  C   UNK N   1      30.731  17.091   5.706  0.00  0.00     0.035 C 
HETATM   43  C   UNK N   1      29.700  17.296   6.801  0.00  0.00     0.008 C 
ENDBRANCH  25  42
BRANCH  20  44
HETATM   44  C   UNK N   1      31.466  10.751   4.483  0.00  0.00     0.278 C 
HETATM   45  O   UNK N   1      31.675  10.274   3.371  0.00  0.00    -0.264 OA
BRANCH  44  46
HETATM   46  O   UNK N   1      30.280  10.507   5.097  0.00  0.00    -0.325 OA
HETATM   47  C   UNK N   1      29.372   9.600   4.598  0.00  0.00     0.213 C 
ENDBRANCH  44  46
ENDBRANCH  20  44
ENDBRANCH  18  20
BRANCH  19  48
HETATM   48  O   UNK N   1      32.553   8.659   6.078  0.00  0.00    -0.355 OA
HETATM   49  C   UNK N   1      31.937   7.458   6.396  0.00  0.00     0.210 C 
ENDBRANCH  19  48
BRANCH   2  50
HETATM   50  C   UNK N   1      35.932   9.347   8.841  0.00  0.00     0.356 C 
HETATM   51  O   UNK N   1      36.320   8.262   9.238  0.00  0.00    -0.283 OA
ENDBRANCH   2  50
BRANCH   5  52
HETATM   52  C   UNK N   1      37.257  14.335   9.510  0.00  0.00     0.014 C 
HETATM   53  C   UNK N   1      38.650  14.321  10.104  0.00  0.00     0.006 C 
ENDBRANCH   5  52
BRANCH   7  54
HETATM   54  O   UNK N   1      35.817  10.988  12.428  0.00  0.00    -0.375 OA
HETATM   55  H   UNK N   1      35.291  10.321  12.895  0.00  0.00     0.211 HD
ENDBRANCH   7  54
BRANCH   7  56
HETATM   56  C   UNK N   1      37.648  10.781  10.998  0.00  0.00     0.298 C 
HETATM   57  O   UNK N   1      37.995   9.902  11.766  0.00  0.00    -0.262 OA
BRANCH  56  58
HETATM   58  O   UNK N   1      38.477  11.105   9.951  0.00  0.00    -0.324 OA
HETATM   59  C   UNK N   1      39.423  10.270   9.381  0.00  0.00     0.213 C 
ENDBRANCH  56  58
ENDBRANCH   7  56
BRANCH   9  60
HETATM   60  O   UNK N   1      37.005  13.436  12.771  0.00  0.00    -0.311 OA
BRANCH  60  61
HETATM   61  C   UNK N   1      36.253  13.707  13.857  0.00  0.00     0.255 C 
HETATM   62  O   UNK N   1      35.054  13.473  13.845  0.00  0.00    -0.266 OA
HETATM   63  C   UNK N   1      36.887  14.266  15.077  0.00  0.00     0.126 C 
ENDBRANCH  60  61
ENDBRANCH   9  60
TORSDOF 13
ENDMDL
