MODEL 1
REMARK VINA RESULT:      -7.9      0.000      0.000
REMARK  11 active torsions:
REMARK  status: ('A' for Active; 'I' for Inactive)
REMARK    1  A    between atoms: O_2  and  C_18 
REMARK    2  A    between atoms: O_2  and  C_27 
REMARK    3  A    between atoms: O_4  and  C_24 
REMARK    4  A    between atoms: C_8  and  N_6 
REMARK    5  A    between atoms: C_11  and  N_6 
REMARK    6  A    between atoms: N_7  and  C_17 
REMARK    7  A    between atoms: C_11  and  C_15 
REMARK    8  A    between atoms: C_11  and  C_18 
REMARK    9  A    between atoms: C_15  and  C_16 
REMARK   10  A    between atoms: C_16  and  C_21 
REMARK   11  A    between atoms: C_17  and  C_24 
ROOT
HETATM    1  O   UNK N   1      19.762  18.322   3.508  0.00  0.00    -0.271 OA
HETATM    2  N   UNK N   1      21.762  19.342   3.342  0.00  0.00    -0.306 N 
HETATM    3  C   UNK N   1      21.434  17.145   4.619  0.00  0.00     0.171 C 
HETATM    4  C   UNK N   1      22.664  16.535   4.049  0.00  0.00     0.039 C 
HETATM    5  C   UNK N   1      23.707  17.292   4.789  0.00  0.00     0.043 C 
HETATM    6  C   UNK N   1      20.956  18.304   3.791  0.00  0.00     0.247 C 
HETATM    7  C   UNK N   1      24.111  18.516   4.074  0.00  0.00    -0.031 A 
HETATM    8  C   UNK N   1      23.220  19.456   3.452  0.00  0.00     0.044 A 
HETATM    9  C   UNK N   1      25.495  18.732   4.043  0.00  0.00     0.009 A 
HETATM   10  C   UNK N   1      23.824  20.578   2.835  0.00  0.00     0.030 A 
HETATM   11  C   UNK N   1      26.040  19.848   3.422  0.00  0.00     0.001 A 
HETATM   12  C   UNK N   1      25.203  20.774   2.821  0.00  0.00     0.002 A 
ENDROOT
BRANCH   3  13
HETATM   13  N   UNK N   1      20.399  16.125   4.773  0.00  0.00    -0.396 N 
HETATM   14  H   UNK N   1      19.918  15.646   4.012  0.00  0.00     0.154 HD
BRANCH  13  15
HETATM   15  C   UNK N   1      20.168  15.901   6.198  0.00  0.00     0.178 C 
BRANCH  15  16
HETATM   16  C   UNK N   1      20.818  14.594   6.645  0.00  0.00     0.039 C 
BRANCH  16  17
HETATM   17  C   UNK N   1      21.930  14.897   7.634  0.00  0.00     0.041 C 
BRANCH  17  18
HETATM   18  C   UNK N   1      21.977  13.891   8.735  0.00  0.00    -0.058 A 
HETATM   19  C   UNK N   1      20.884  13.772   9.598  0.00  0.00     0.007 A 
HETATM   20  C   UNK N   1      20.894  12.829  10.626  0.00  0.00     0.001 A 
HETATM   21  C   UNK N   1      21.999  11.990  10.790  0.00  0.00     0.000 A 
HETATM   22  C   UNK N   1      23.094  12.099   9.924  0.00  0.00     0.001 A 
HETATM   23  C   UNK N   1      23.085  13.049   8.897  0.00  0.00     0.007 A 
ENDBRANCH  17  18
ENDBRANCH  16  17
ENDBRANCH  15  16
BRANCH  15  24
HETATM   24  C   UNK N   1      18.691  16.094   6.513  0.00  0.00     0.281 C 
HETATM   25  O   UNK N   1      17.889  15.789   5.645  0.00  0.00    -0.263 OA
BRANCH  24  26
HETATM   26  O   UNK N   1      18.206  16.605   7.679  0.00  0.00    -0.320 OA
BRANCH  26  27
HETATM   27  C   UNK N   1      18.871  16.649   8.881  0.00  0.00     0.174 C 
HETATM   28  C   UNK N   1      19.401  18.047   9.120  0.00  0.00     0.034 C 
ENDBRANCH  26  27
ENDBRANCH  24  26
ENDBRANCH  15  24
ENDBRANCH  13  15
ENDBRANCH   3  13
BRANCH   2  29
HETATM   29  C   UNK N   1      21.093  20.398   2.583  0.00  0.00     0.242 C 
BRANCH  29  30
HETATM   30  C   UNK N   1      21.008  20.111   1.107  0.00  0.00     0.158 C 
HETATM   31  O   UNK N   1      21.468  20.890   0.286  0.00  0.00    -0.649 OA
BRANCH  30  32
HETATM   32  O   UNK N   1      20.413  18.978   0.689  0.00  0.00    -0.775 OA
HETATM   33  H   UNK N   1      20.711  18.547  -0.088  0.00  0.00     0.167 HD
ENDBRANCH  30  32
ENDBRANCH  29  30
ENDBRANCH   2  29
TORSDOF 11
ENDMDL
MODEL 2
REMARK VINA RESULT:      -7.7     13.231     16.164
REMARK  11 active torsions:
REMARK  status: ('A' for Active; 'I' for Inactive)
REMARK    1  A    between atoms: O_2  and  C_18 
REMARK    2  A    between atoms: O_2  and  C_27 
REMARK    3  A    between atoms: O_4  and  C_24 
REMARK    4  A    between atoms: C_8  and  N_6 
REMARK    5  A    between atoms: C_11  and  N_6 
REMARK    6  A    between atoms: N_7  and  C_17 
REMARK    7  A    between atoms: C_11  and  C_15 
REMARK    8  A    between atoms: C_11  and  C_18 
REMARK    9  A    between atoms: C_15  and  C_16 
REMARK   10  A    between atoms: C_16  and  C_21 
REMARK   11  A    between atoms: C_17  and  C_24 
ROOT
HETATM    1  O   UNK N   1      27.516  24.788  -4.266  0.00  0.00    -0.271 OA
HETATM    2  N   UNK N   1      29.216  23.336  -4.525  0.00  0.00    -0.306 N 
HETATM    3  C   UNK N   1      27.150  23.327  -6.039  0.00  0.00     0.171 C 
HETATM    4  C   UNK N   1      27.957  23.163  -7.278  0.00  0.00     0.039 C 
HETATM    5  C   UNK N   1      28.375  21.743  -7.139  0.00  0.00     0.043 C 
HETATM    6  C   UNK N   1      27.982  23.847  -4.902  0.00  0.00     0.247 C 
HETATM    7  C   UNK N   1      29.652  21.612  -6.415  0.00  0.00    -0.031 A 
HETATM    8  C   UNK N   1      30.010  22.313  -5.213  0.00  0.00     0.044 A 
HETATM    9  C   UNK N   1      30.549  20.703  -6.993  0.00  0.00     0.009 A 
HETATM   10  C   UNK N   1      31.286  22.020  -4.673  0.00  0.00     0.030 A 
HETATM   11  C   UNK N   1      31.791  20.452  -6.427  0.00  0.00     0.001 A 
HETATM   12  C   UNK N   1      32.159  21.108  -5.263  0.00  0.00     0.002 A 
ENDROOT
BRANCH   3  13
HETATM   13  N   UNK N   1      25.999  24.187  -6.308  0.00  0.00    -0.396 N 
HETATM   14  H   UNK N   1      25.233  24.374  -5.661  0.00  0.00     0.154 HD
BRANCH  13  15
HETATM   15  C   UNK N   1      26.127  24.736  -7.655  0.00  0.00     0.178 C 
BRANCH  15  16
HETATM   16  C   UNK N   1      25.982  26.257  -7.627  0.00  0.00     0.039 C 
BRANCH  16  17
HETATM   17  C   UNK N   1      25.310  26.675  -6.332  0.00  0.00     0.041 C 
BRANCH  17  18
HETATM   18  C   UNK N   1      26.061  27.769  -5.650  0.00  0.00    -0.058 A 
HETATM   19  C   UNK N   1      27.182  28.320  -6.277  0.00  0.00     0.007 A 
HETATM   20  C   UNK N   1      27.895  29.355  -5.669  0.00  0.00     0.001 A 
HETATM   21  C   UNK N   1      27.480  29.851  -4.431  0.00  0.00     0.000 A 
HETATM   22  C   UNK N   1      26.354  29.308  -3.801  0.00  0.00     0.001 A 
HETATM   23  C   UNK N   1      25.643  28.267  -4.409  0.00  0.00     0.007 A 
ENDBRANCH  17  18
ENDBRANCH  16  17
ENDBRANCH  15  16
BRANCH  15  24
HETATM   24  C   UNK N   1      25.228  23.963  -8.610  0.00  0.00     0.281 C 
HETATM   25  O   UNK N   1      25.222  24.312  -9.780  0.00  0.00    -0.263 OA
BRANCH  24  26
HETATM   26  O   UNK N   1      24.414  22.932  -8.248  0.00  0.00    -0.320 OA
BRANCH  26  27
HETATM   27  C   UNK N   1      24.772  21.607  -8.176  0.00  0.00     0.174 C 
HETATM   28  C   UNK N   1      24.377  21.044  -6.827  0.00  0.00     0.034 C 
ENDBRANCH  26  27
ENDBRANCH  24  26
ENDBRANCH  15  24
ENDBRANCH  13  15
ENDBRANCH   3  13
BRANCH   2  29
HETATM   29  C   UNK N   1      29.845  23.959  -3.361  0.00  0.00     0.242 C 
BRANCH  29  30
HETATM   30  C   UNK N   1      29.532  23.257  -2.066  0.00  0.00     0.158 C 
HETATM   31  O   UNK N   1      30.423  22.902  -1.309  0.00  0.00    -0.649 OA
BRANCH  30  32
HETATM   32  O   UNK N   1      28.248  23.014  -1.741  0.00  0.00    -0.775 OA
HETATM   33  H   UNK N   1      27.557  23.487  -2.161  0.00  0.00     0.167 HD
ENDBRANCH  30  32
ENDBRANCH  29  30
ENDBRANCH   2  29
TORSDOF 11
ENDMDL
MODEL 3
REMARK VINA RESULT:      -7.3      2.371      3.984
REMARK  11 active torsions:
REMARK  status: ('A' for Active; 'I' for Inactive)
REMARK    1  A    between atoms: O_2  and  C_18 
REMARK    2  A    between atoms: O_2  and  C_27 
REMARK    3  A    between atoms: O_4  and  C_24 
REMARK    4  A    between atoms: C_8  and  N_6 
REMARK    5  A    between atoms: C_11  and  N_6 
REMARK    6  A    between atoms: N_7  and  C_17 
REMARK    7  A    between atoms: C_11  and  C_15 
REMARK    8  A    between atoms: C_11  and  C_18 
REMARK    9  A    between atoms: C_15  and  C_16 
REMARK   10  A    between atoms: C_16  and  C_21 
REMARK   11  A    between atoms: C_17  and  C_24 
ROOT
HETATM    1  O   UNK N   1      19.110  18.643   2.622  0.00  0.00    -0.271 OA
HETATM    2  N   UNK N   1      21.180  19.477   2.910  0.00  0.00    -0.306 N 
HETATM    3  C   UNK N   1      20.432  17.253   3.938  0.00  0.00     0.171 C 
HETATM    4  C   UNK N   1      21.695  16.562   3.567  0.00  0.00     0.039 C 
HETATM    5  C   UNK N   1      22.633  17.175   4.543  0.00  0.00     0.043 C 
HETATM    6  C   UNK N   1      20.220  18.497   3.123  0.00  0.00     0.247 C 
HETATM    7  C   UNK N   1      23.266  18.394   4.010  0.00  0.00    -0.031 A 
HETATM    8  C   UNK N   1      22.594  19.447   3.301  0.00  0.00     0.044 A 
HETATM    9  C   UNK N   1      24.644  18.480   4.256  0.00  0.00     0.009 A 
HETATM   10  C   UNK N   1      23.395  20.540   2.892  0.00  0.00     0.030 A 
HETATM   11  C   UNK N   1      25.388  19.572   3.832  0.00  0.00     0.001 A 
HETATM   12  C   UNK N   1      24.763  20.606   3.153  0.00  0.00     0.002 A 
ENDROOT
BRANCH   3  13
HETATM   13  N   UNK N   1      19.307  16.328   3.820  0.00  0.00    -0.396 N 
HETATM   14  H   UNK N   1      18.534  16.413   3.159  0.00  0.00     0.154 HD
BRANCH  13  15
HETATM   15  C   UNK N   1      19.471  15.260   4.802  0.00  0.00     0.178 C 
BRANCH  15  16
HETATM   16  C   UNK N   1      19.112  13.909   4.185  0.00  0.00     0.039 C 
BRANCH  16  17
HETATM   17  C   UNK N   1      19.231  13.997   2.675  0.00  0.00     0.041 C 
BRANCH  17  18
HETATM   18  C   UNK N   1      20.515  13.414   2.189  0.00  0.00    -0.058 A 
HETATM   19  C   UNK N   1      21.030  13.829   0.957  0.00  0.00     0.007 A 
HETATM   20  C   UNK N   1      22.238  13.313   0.485  0.00  0.00     0.001 A 
HETATM   21  C   UNK N   1      22.943  12.383   1.252  0.00  0.00     0.000 A 
HETATM   22  C   UNK N   1      22.437  11.968   2.489  0.00  0.00     0.001 A 
HETATM   23  C   UNK N   1      21.223  12.482   2.959  0.00  0.00     0.007 A 
ENDBRANCH  17  18
ENDBRANCH  16  17
ENDBRANCH  15  16
BRANCH  15  24
HETATM   24  C   UNK N   1      18.776  15.646   6.099  0.00  0.00     0.281 C 
HETATM   25  O   UNK N   1      17.609  15.995   6.027  0.00  0.00    -0.263 OA
BRANCH  24  26
HETATM   26  O   UNK N   1      19.370  15.655   7.326  0.00  0.00    -0.320 OA
BRANCH  26  27
HETATM   27  C   UNK N   1      20.492  14.947   7.686  0.00  0.00     0.174 C 
HETATM   28  C   UNK N   1      20.519  14.764   9.189  0.00  0.00     0.034 C 
ENDBRANCH  26  27
ENDBRANCH  24  26
ENDBRANCH  15  24
ENDBRANCH  13  15
ENDBRANCH   3  13
BRANCH   2  29
HETATM   29  C   UNK N   1      20.759  20.632   2.119  0.00  0.00     0.242 C 
BRANCH  29  30
HETATM   30  C   UNK N   1      20.852  20.404   0.633  0.00  0.00     0.158 C 
HETATM   31  O   UNK N   1      21.230  21.289  -0.119  0.00  0.00    -0.649 OA
BRANCH  30  32
HETATM   32  O   UNK N   1      20.508  19.204   0.127  0.00  0.00    -0.775 OA
HETATM   33  H   UNK N   1      19.784  19.130  -0.462  0.00  0.00     0.167 HD
ENDBRANCH  30  32
ENDBRANCH  29  30
ENDBRANCH   2  29
TORSDOF 11
ENDMDL
MODEL 4
REMARK VINA RESULT:      -7.2     13.844     15.736
REMARK  11 active torsions:
REMARK  status: ('A' for Active; 'I' for Inactive)
REMARK    1  A    between atoms: O_2  and  C_18 
REMARK    2  A    between atoms: O_2  and  C_27 
REMARK    3  A    between atoms: O_4  and  C_24 
REMARK    4  A    between atoms: C_8  and  N_6 
REMARK    5  A    between atoms: C_11  and  N_6 
REMARK    6  A    between atoms: N_7  and  C_17 
REMARK    7  A    between atoms: C_11  and  C_15 
REMARK    8  A    between atoms: C_11  and  C_18 
REMARK    9  A    between atoms: C_15  and  C_16 
REMARK   10  A    between atoms: C_16  and  C_21 
REMARK   11  A    between atoms: C_17  and  C_24 
ROOT
HETATM    1  O   UNK N   1      35.278  16.910  10.823  0.00  0.00    -0.271 OA
HETATM    2  N   UNK N   1      34.188  16.069   9.042  0.00  0.00    -0.306 N 
HETATM    3  C   UNK N   1      35.784  14.667  10.474  0.00  0.00     0.171 C 
HETATM    4  C   UNK N   1      34.863  13.500  10.504  0.00  0.00     0.039 C 
HETATM    5  C   UNK N   1      35.012  13.004   9.110  0.00  0.00     0.043 C 
HETATM    6  C   UNK N   1      35.062  15.933  10.113  0.00  0.00     0.247 C 
HETATM    7  C   UNK N   1      34.033  13.620   8.198  0.00  0.00    -0.031 A 
HETATM    8  C   UNK N   1      33.691  15.014   8.152  0.00  0.00     0.044 A 
HETATM    9  C   UNK N   1      33.423  12.717   7.316  0.00  0.00     0.009 A 
HETATM   10  C   UNK N   1      32.735  15.394   7.179  0.00  0.00     0.030 A 
HETATM   11  C   UNK N   1      32.487  13.138   6.381  0.00  0.00     0.001 A 
HETATM   12  C   UNK N   1      32.146  14.479   6.309  0.00  0.00     0.002 A 
ENDROOT
BRANCH   3  13
HETATM   13  N   UNK N   1      36.478  14.784  11.754  0.00  0.00    -0.396 N 
HETATM   14  H   UNK N   1      36.879  15.640  12.138  0.00  0.00     0.154 HD
BRANCH  13  15
HETATM   15  C   UNK N   1      36.503  13.473  12.398  0.00  0.00     0.178 C 
BRANCH  15  16
HETATM   16  C   UNK N   1      36.473  13.623  13.918  0.00  0.00     0.039 C 
BRANCH  16  17
HETATM   17  C   UNK N   1      35.164  13.071  14.452  0.00  0.00     0.041 C 
BRANCH  17  18
HETATM   18  C   UNK N   1      35.316  12.539  15.838  0.00  0.00    -0.058 A 
HETATM   19  C   UNK N   1      34.993  13.359  16.923  0.00  0.00     0.007 A 
HETATM   20  C   UNK N   1      35.111  12.883  18.230  0.00  0.00     0.001 A 
HETATM   21  C   UNK N   1      35.544  11.574  18.456  0.00  0.00     0.000 A 
HETATM   22  C   UNK N   1      35.861  10.745  17.374  0.00  0.00     0.001 A 
HETATM   23  C   UNK N   1      35.748  11.226  16.064  0.00  0.00     0.007 A 
ENDBRANCH  17  18
ENDBRANCH  16  17
ENDBRANCH  15  16
BRANCH  15  24
HETATM   24  C   UNK N   1      37.619  12.630  11.798  0.00  0.00     0.281 C 
HETATM   25  O   UNK N   1      37.669  11.454  12.121  0.00  0.00    -0.263 OA
BRANCH  24  26
HETATM   26  O   UNK N   1      38.579  13.100  10.951  0.00  0.00    -0.320 OA
BRANCH  26  27
HETATM   27  C   UNK N   1      38.914  12.561   9.732  0.00  0.00     0.174 C 
HETATM   28  C   UNK N   1      38.750  13.607   8.650  0.00  0.00     0.034 C 
ENDBRANCH  26  27
ENDBRANCH  24  26
ENDBRANCH  15  24
ENDBRANCH  13  15
ENDBRANCH   3  13
BRANCH   2  29
HETATM   29  C   UNK N   1      33.620  17.400   8.837  0.00  0.00     0.242 C 
BRANCH  29  30
HETATM   30  C   UNK N   1      34.482  18.293   7.984  0.00  0.00     0.158 C 
HETATM   31  O   UNK N   1      34.463  18.211   6.766  0.00  0.00    -0.649 OA
BRANCH  30  32
HETATM   32  O   UNK N   1      35.289  19.193   8.578  0.00  0.00    -0.775 OA
HETATM   33  H   UNK N   1      35.182  19.397   9.485  0.00  0.00     0.167 HD
ENDBRANCH  30  32
ENDBRANCH  29  30
ENDBRANCH   2  29
TORSDOF 11
ENDMDL
MODEL 5
REMARK VINA RESULT:      -7.1      2.818      4.890
REMARK  11 active torsions:
REMARK  status: ('A' for Active; 'I' for Inactive)
REMARK    1  A    between atoms: O_2  and  C_18 
REMARK    2  A    between atoms: O_2  and  C_27 
REMARK    3  A    between atoms: O_4  and  C_24 
REMARK    4  A    between atoms: C_8  and  N_6 
REMARK    5  A    between atoms: C_11  and  N_6 
REMARK    6  A    between atoms: N_7  and  C_17 
REMARK    7  A    between atoms: C_11  and  C_15 
REMARK    8  A    between atoms: C_11  and  C_18 
REMARK    9  A    between atoms: C_15  and  C_16 
REMARK   10  A    between atoms: C_16  and  C_21 
REMARK   11  A    between atoms: C_17  and  C_24 
ROOT
HETATM    1  O   UNK N   1      19.507  18.482   3.249  0.00  0.00    -0.271 OA
HETATM    2  N   UNK N   1      21.558  19.408   3.206  0.00  0.00    -0.306 N 
HETATM    3  C   UNK N   1      21.061  17.208   4.420  0.00  0.00     0.171 C 
HETATM    4  C   UNK N   1      22.290  16.550   3.902  0.00  0.00     0.039 C 
HETATM    5  C   UNK N   1      23.327  17.244   4.709  0.00  0.00     0.043 C 
HETATM    6  C   UNK N   1      20.682  18.403   3.593  0.00  0.00     0.247 C 
HETATM    7  C   UNK N   1      23.824  18.460   4.041  0.00  0.00    -0.031 A 
HETATM    8  C   UNK N   1      23.012  19.451   3.393  0.00  0.00     0.044 A 
HETATM    9  C   UNK N   1      25.217  18.610   4.086  0.00  0.00     0.009 A 
HETATM   10  C   UNK N   1      23.698  20.554   2.830  0.00  0.00     0.030 A 
HETATM   11  C   UNK N   1      25.845  19.709   3.516  0.00  0.00     0.001 A 
HETATM   12  C   UNK N   1      25.084  20.685   2.892  0.00  0.00     0.002 A 
ENDROOT
BRANCH   3  13
HETATM   13  N   UNK N   1      19.974  16.236   4.501  0.00  0.00    -0.396 N 
HETATM   14  H   UNK N   1      19.034  16.422   4.853  0.00  0.00     0.154 HD
BRANCH  13  15
HETATM   15  C   UNK N   1      20.451  14.953   3.992  0.00  0.00     0.178 C 
BRANCH  15  16
HETATM   16  C   UNK N   1      19.603  14.501   2.804  0.00  0.00     0.039 C 
BRANCH  16  17
HETATM   17  C   UNK N   1      20.260  14.956   1.513  0.00  0.00     0.041 C 
BRANCH  17  18
HETATM   18  C   UNK N   1      21.336  14.016   1.083  0.00  0.00    -0.058 A 
HETATM   19  C   UNK N   1      21.035  12.661   0.925  0.00  0.00     0.007 A 
HETATM   20  C   UNK N   1      22.018  11.762   0.507  0.00  0.00     0.001 A 
HETATM   21  C   UNK N   1      23.309  12.220   0.236  0.00  0.00     0.000 A 
HETATM   22  C   UNK N   1      23.616  13.578   0.385  0.00  0.00     0.001 A 
HETATM   23  C   UNK N   1      22.631  14.477   0.809  0.00  0.00     0.007 A 
ENDBRANCH  17  18
ENDBRANCH  16  17
ENDBRANCH  15  16
BRANCH  15  24
HETATM   24  C   UNK N   1      20.619  13.975   5.145  0.00  0.00     0.281 C 
HETATM   25  O   UNK N   1      19.634  13.736   5.826  0.00  0.00    -0.263 OA
BRANCH  24  26
HETATM   26  O   UNK N   1      21.792  13.371   5.488  0.00  0.00    -0.320 OA
BRANCH  26  27
HETATM   27  C   UNK N   1      22.423  12.374   4.782  0.00  0.00     0.174 C 
HETATM   28  C   UNK N   1      23.613  12.949   4.043  0.00  0.00     0.034 C 
ENDBRANCH  26  27
ENDBRANCH  24  26
ENDBRANCH  15  24
ENDBRANCH  13  15
ENDBRANCH   3  13
BRANCH   2  29
HETATM   29  C   UNK N   1      20.979  20.508   2.436  0.00  0.00     0.242 C 
BRANCH  29  30
HETATM   30  C   UNK N   1      20.945  20.246   0.953  0.00  0.00     0.158 C 
HETATM   31  O   UNK N   1      21.394  21.057   0.159  0.00  0.00    -0.649 OA
BRANCH  30  32
HETATM   32  O   UNK N   1      20.407  19.098   0.499  0.00  0.00    -0.775 OA
HETATM   33  H   UNK N   1      19.968  19.077  -0.328  0.00  0.00     0.167 HD
ENDBRANCH  30  32
ENDBRANCH  29  30
ENDBRANCH   2  29
TORSDOF 11
ENDMDL
MODEL 6
REMARK VINA RESULT:      -7.1     14.551     16.356
REMARK  11 active torsions:
REMARK  status: ('A' for Active; 'I' for Inactive)
REMARK    1  A    between atoms: O_2  and  C_18 
REMARK    2  A    between atoms: O_2  and  C_27 
REMARK    3  A    between atoms: O_4  and  C_24 
REMARK    4  A    between atoms: C_8  and  N_6 
REMARK    5  A    between atoms: C_11  and  N_6 
REMARK    6  A    between atoms: N_7  and  C_17 
REMARK    7  A    between atoms: C_11  and  C_15 
REMARK    8  A    between atoms: C_11  and  C_18 
REMARK    9  A    between atoms: C_15  and  C_16 
REMARK   10  A    between atoms: C_16  and  C_21 
REMARK   11  A    between atoms: C_17  and  C_24 
ROOT
HETATM    1  O   UNK N   1      24.747  25.826  -5.626  0.00  0.00    -0.271 OA
HETATM    2  N   UNK N   1      26.260  27.493  -5.652  0.00  0.00    -0.306 N 
HETATM    3  C   UNK N   1      26.254  25.606  -7.384  0.00  0.00     0.171 C 
HETATM    4  C   UNK N   1      26.485  26.537  -8.520  0.00  0.00     0.039 C 
HETATM    5  C   UNK N   1      27.912  26.887  -8.294  0.00  0.00     0.043 C 
HETATM    6  C   UNK N   1      25.723  26.326  -6.178  0.00  0.00     0.247 C 
HETATM    7  C   UNK N   1      28.059  28.072  -7.430  0.00  0.00    -0.031 A 
HETATM    8  C   UNK N   1      27.330  28.321  -6.218  0.00  0.00     0.044 A 
HETATM    9  C   UNK N   1      29.015  28.994  -7.879  0.00  0.00     0.009 A 
HETATM   10  C   UNK N   1      27.645  29.519  -5.532  0.00  0.00     0.030 A 
HETATM   11  C   UNK N   1      29.286  30.157  -7.172  0.00  0.00     0.001 A 
HETATM   12  C   UNK N   1      28.604  30.418  -5.995  0.00  0.00     0.002 A 
ENDROOT
BRANCH   3  13
HETATM   13  N   UNK N   1      25.368  24.522  -7.803  0.00  0.00    -0.396 N 
HETATM   14  H   UNK N   1      24.467  24.636  -8.269  0.00  0.00     0.154 HD
BRANCH  13  15
HETATM   15  C   UNK N   1      25.986  23.246  -7.449  0.00  0.00     0.178 C 
BRANCH  15  16
HETATM   16  C   UNK N   1      27.506  23.339  -7.564  0.00  0.00     0.039 C 
BRANCH  16  17
HETATM   17  C   UNK N   1      28.145  22.421  -6.538  0.00  0.00     0.041 C 
BRANCH  17  18
HETATM   18  C   UNK N   1      28.938  23.186  -5.532  0.00  0.00    -0.058 A 
HETATM   19  C   UNK N   1      28.805  24.576  -5.473  0.00  0.00     0.007 A 
HETATM   20  C   UNK N   1      29.522  25.316  -4.531  0.00  0.00     0.001 A 
HETATM   21  C   UNK N   1      30.371  24.664  -3.635  0.00  0.00     0.000 A 
HETATM   22  C   UNK N   1      30.504  23.271  -3.684  0.00  0.00     0.001 A 
HETATM   23  C   UNK N   1      29.789  22.531  -4.632  0.00  0.00     0.007 A 
ENDBRANCH  17  18
ENDBRANCH  16  17
ENDBRANCH  15  16
BRANCH  15  24
HETATM   24  C   UNK N   1      25.293  22.118  -8.199  0.00  0.00     0.281 C 
HETATM   25  O   UNK N   1      24.078  22.044  -8.105  0.00  0.00    -0.263 OA
BRANCH  24  26
HETATM   26  O   UNK N   1      25.933  21.171  -8.943  0.00  0.00    -0.320 OA
BRANCH  26  27
HETATM   27  C   UNK N   1      26.101  21.193 -10.307  0.00  0.00     0.174 C 
HETATM   28  C   UNK N   1      27.577  21.230 -10.638  0.00  0.00     0.034 C 
ENDBRANCH  26  27
ENDBRANCH  24  26
ENDBRANCH  15  24
ENDBRANCH  13  15
ENDBRANCH   3  13
BRANCH   2  29
HETATM   29  C   UNK N   1      25.619  28.013  -4.445  0.00  0.00     0.242 C 
BRANCH  29  30
HETATM   30  C   UNK N   1      26.238  27.498  -3.172  0.00  0.00     0.158 C 
HETATM   31  O   UNK N   1      26.696  28.265  -2.339  0.00  0.00    -0.649 OA
BRANCH  30  32
HETATM   32  O   UNK N   1      26.288  26.171  -2.952  0.00  0.00    -0.775 OA
HETATM   33  H   UNK N   1      26.944  25.648  -3.368  0.00  0.00     0.167 HD
ENDBRANCH  30  32
ENDBRANCH  29  30
ENDBRANCH   2  29
TORSDOF 11
ENDMDL
MODEL 7
REMARK VINA RESULT:      -7.0      4.517      7.875
REMARK  11 active torsions:
REMARK  status: ('A' for Active; 'I' for Inactive)
REMARK    1  A    between atoms: O_2  and  C_18 
REMARK    2  A    between atoms: O_2  and  C_27 
REMARK    3  A    between atoms: O_4  and  C_24 
REMARK    4  A    between atoms: C_8  and  N_6 
REMARK    5  A    between atoms: C_11  and  N_6 
REMARK    6  A    between atoms: N_7  and  C_17 
REMARK    7  A    between atoms: C_11  and  C_15 
REMARK    8  A    between atoms: C_11  and  C_18 
REMARK    9  A    between atoms: C_15  and  C_16 
REMARK   10  A    between atoms: C_16  and  C_21 
REMARK   11  A    between atoms: C_17  and  C_24 
ROOT
HETATM    1  O   UNK N   1      24.190  16.699   5.966  0.00  0.00    -0.271 OA
HETATM    2  N   UNK N   1      22.591  17.839   4.865  0.00  0.00    -0.306 N 
HETATM    3  C   UNK N   1      25.042  18.581   4.897  0.00  0.00     0.171 C 
HETATM    4  C   UNK N   1      25.054  18.887   3.442  0.00  0.00     0.039 C 
HETATM    5  C   UNK N   1      24.244  20.134   3.423  0.00  0.00     0.043 C 
HETATM    6  C   UNK N   1      23.910  17.664   5.261  0.00  0.00     0.247 C 
HETATM    7  C   UNK N   1      22.808  19.855   3.246  0.00  0.00    -0.031 A 
HETATM    8  C   UNK N   1      22.061  18.836   3.928  0.00  0.00     0.044 A 
HETATM    9  C   UNK N   1      22.169  20.698   2.326  0.00  0.00     0.009 A 
HETATM   10  C   UNK N   1      20.682  18.756   3.619  0.00  0.00     0.030 A 
HETATM   11  C   UNK N   1      20.814  20.578   2.054  0.00  0.00     0.001 A 
HETATM   12  C   UNK N   1      20.068  19.609   2.705  0.00  0.00     0.002 A 
ENDROOT
BRANCH   3  13
HETATM   13  N   UNK N   1      26.336  18.034   5.300  0.00  0.00    -0.396 N 
HETATM   14  H   UNK N   1      26.495  17.096   5.669  0.00  0.00     0.154 HD
BRANCH  13  15
HETATM   15  C   UNK N   1      27.364  19.048   5.084  0.00  0.00     0.178 C 
BRANCH  15  16
HETATM   16  C   UNK N   1      28.604  18.424   4.447  0.00  0.00     0.039 C 
BRANCH  16  17
HETATM   17  C   UNK N   1      29.110  17.296   5.328  0.00  0.00     0.041 C 
BRANCH  17  18
HETATM   18  C   UNK N   1      30.595  17.324   5.461  0.00  0.00    -0.058 A 
HETATM   19  C   UNK N   1      31.173  17.101   6.714  0.00  0.00     0.007 A 
HETATM   20  C   UNK N   1      32.561  17.106   6.865  0.00  0.00     0.001 A 
HETATM   21  C   UNK N   1      33.379  17.326   5.755  0.00  0.00     0.000 A 
HETATM   22  C   UNK N   1      32.808  17.543   4.496  0.00  0.00     0.001 A 
HETATM   23  C   UNK N   1      31.416  17.543   4.347  0.00  0.00     0.007 A 
ENDBRANCH  17  18
ENDBRANCH  16  17
ENDBRANCH  15  16
BRANCH  15  24
HETATM   24  C   UNK N   1      27.561  19.856   6.358  0.00  0.00     0.281 C 
HETATM   25  O   UNK N   1      27.851  21.035   6.236  0.00  0.00    -0.263 OA
BRANCH  24  26
HETATM   26  O   UNK N   1      27.464  19.352   7.621  0.00  0.00    -0.320 OA
BRANCH  26  27
HETATM   27  C   UNK N   1      28.510  18.923   8.403  0.00  0.00     0.174 C 
HETATM   28  C   UNK N   1      28.127  17.638   9.106  0.00  0.00     0.034 C 
ENDBRANCH  26  27
ENDBRANCH  24  26
ENDBRANCH  15  24
ENDBRANCH  13  15
ENDBRANCH   3  13
BRANCH   2  29
HETATM   29  C   UNK N   1      21.631  16.853   5.362  0.00  0.00     0.242 C 
BRANCH  29  30
HETATM   30  C   UNK N   1      21.058  17.205   6.709  0.00  0.00     0.158 C 
HETATM   31  O   UNK N   1      20.539  16.354   7.415  0.00  0.00    -0.649 OA
BRANCH  30  32
HETATM   32  O   UNK N   1      21.116  18.480   7.138  0.00  0.00    -0.775 OA
HETATM   33  H   UNK N   1      20.503  19.113   6.823  0.00  0.00     0.167 HD
ENDBRANCH  30  32
ENDBRANCH  29  30
ENDBRANCH   2  29
TORSDOF 11
ENDMDL
MODEL 8
REMARK VINA RESULT:      -6.9     13.705     16.036
REMARK  11 active torsions:
REMARK  status: ('A' for Active; 'I' for Inactive)
REMARK    1  A    between atoms: O_2  and  C_18 
REMARK    2  A    between atoms: O_2  and  C_27 
REMARK    3  A    between atoms: O_4  and  C_24 
REMARK    4  A    between atoms: C_8  and  N_6 
REMARK    5  A    between atoms: C_11  and  N_6 
REMARK    6  A    between atoms: N_7  and  C_17 
REMARK    7  A    between atoms: C_11  and  C_15 
REMARK    8  A    between atoms: C_11  and  C_18 
REMARK    9  A    between atoms: C_15  and  C_16 
REMARK   10  A    between atoms: C_16  and  C_21 
REMARK   11  A    between atoms: C_17  and  C_24 
ROOT
HETATM    1  O   UNK N   1      28.771  21.731  -6.422  0.00  0.00    -0.271 OA
HETATM    2  N   UNK N   1      27.845  23.204  -7.851  0.00  0.00    -0.306 N 
HETATM    3  C   UNK N   1      29.318  23.927  -5.884  0.00  0.00     0.171 C 
HETATM    4  C   UNK N   1      30.068  24.916  -6.703  0.00  0.00     0.039 C 
HETATM    5  C   UNK N   1      29.035  25.974  -6.858  0.00  0.00     0.043 C 
HETATM    6  C   UNK N   1      28.628  22.907  -6.743  0.00  0.00     0.247 C 
HETATM    7  C   UNK N   1      28.208  25.765  -8.059  0.00  0.00    -0.031 A 
HETATM    8  C   UNK N   1      27.646  24.513  -8.482  0.00  0.00     0.044 A 
HETATM    9  C   UNK N   1      27.977  26.928  -8.806  0.00  0.00     0.009 A 
HETATM   10  C   UNK N   1      26.863  24.543  -9.662  0.00  0.00     0.030 A 
HETATM   11  C   UNK N   1      27.204  26.906  -9.959  0.00  0.00     0.001 A 
HETATM   12  C   UNK N   1      26.643  25.714 -10.385  0.00  0.00     0.002 A 
ENDROOT
BRANCH   3  13
HETATM   13  N   UNK N   1      30.216  23.303  -4.914  0.00  0.00    -0.396 N 
HETATM   14  H   UNK N   1      31.138  22.919  -5.120  0.00  0.00     0.154 HD
BRANCH  13  15
HETATM   15  C   UNK N   1      29.576  23.321  -3.601  0.00  0.00     0.178 C 
BRANCH  15  16
HETATM   16  C   UNK N   1      28.828  24.636  -3.390  0.00  0.00     0.039 C 
BRANCH  16  17
HETATM   17  C   UNK N   1      27.338  24.359  -3.298  0.00  0.00     0.041 C 
BRANCH  17  18
HETATM   18  C   UNK N   1      26.540  25.399  -4.010  0.00  0.00    -0.058 A 
HETATM   19  C   UNK N   1      25.908  25.070  -5.212  0.00  0.00     0.007 A 
HETATM   20  C   UNK N   1      25.141  26.018  -5.891  0.00  0.00     0.001 A 
HETATM   21  C   UNK N   1      24.997  27.303  -5.363  0.00  0.00     0.000 A 
HETATM   22  C   UNK N   1      25.622  27.637  -4.155  0.00  0.00     0.001 A 
HETATM   23  C   UNK N   1      26.394  26.687  -3.478  0.00  0.00     0.007 A 
ENDBRANCH  17  18
ENDBRANCH  16  17
ENDBRANCH  15  16
BRANCH  15  24
HETATM   24  C   UNK N   1      30.582  22.907  -2.537  0.00  0.00     0.281 C 
HETATM   25  O   UNK N   1      30.247  23.033  -1.370  0.00  0.00    -0.263 OA
BRANCH  24  26
HETATM   26  O   UNK N   1      31.834  22.431  -2.794  0.00  0.00    -0.320 OA
BRANCH  26  27
HETATM   27  C   UNK N   1      32.160  21.127  -3.078  0.00  0.00     0.174 C 
HETATM   28  C   UNK N   1      33.664  20.958  -3.039  0.00  0.00     0.034 C 
ENDBRANCH  26  27
ENDBRANCH  24  26
ENDBRANCH  15  24
ENDBRANCH  13  15
ENDBRANCH   3  13
BRANCH   2  29
HETATM   29  C   UNK N   1      27.226  22.065  -8.528  0.00  0.00     0.242 C 
BRANCH  29  30
HETATM   30  C   UNK N   1      25.783  21.858  -8.149  0.00  0.00     0.158 C 
HETATM   31  O   UNK N   1      25.397  22.055  -7.007  0.00  0.00    -0.649 OA
BRANCH  30  32
HETATM   32  O   UNK N   1      24.909  21.444  -9.084  0.00  0.00    -0.775 OA
HETATM   33  H   UNK N   1      25.190  20.882  -9.779  0.00  0.00     0.167 HD
ENDBRANCH  30  32
ENDBRANCH  29  30
ENDBRANCH   2  29
TORSDOF 11
ENDMDL
MODEL 9
REMARK VINA RESULT:      -6.9     14.032     16.923
REMARK  11 active torsions:
REMARK  status: ('A' for Active; 'I' for Inactive)
REMARK    1  A    between atoms: O_2  and  C_18 
REMARK    2  A    between atoms: O_2  and  C_27 
REMARK    3  A    between atoms: O_4  and  C_24 
REMARK    4  A    between atoms: C_8  and  N_6 
REMARK    5  A    between atoms: C_11  and  N_6 
REMARK    6  A    between atoms: N_7  and  C_17 
REMARK    7  A    between atoms: C_11  and  C_15 
REMARK    8  A    between atoms: C_11  and  C_18 
REMARK    9  A    between atoms: C_15  and  C_16 
REMARK   10  A    between atoms: C_16  and  C_21 
REMARK   11  A    between atoms: C_17  and  C_24 
ROOT
HETATM    1  O   UNK N   1      25.370  24.839  -7.067  0.00  0.00    -0.271 OA
HETATM    2  N   UNK N   1      27.079  23.374  -7.074  0.00  0.00    -0.306 N 
HETATM    3  C   UNK N   1      26.793  25.153  -5.253  0.00  0.00     0.171 C 
HETATM    4  C   UNK N   1      27.111  24.199  -4.157  0.00  0.00     0.039 C 
HETATM    5  C   UNK N   1      28.576  24.041  -4.356  0.00  0.00     0.043 C 
HETATM    6  C   UNK N   1      26.387  24.436  -6.510  0.00  0.00     0.247 C 
HETATM    7  C   UNK N   1      28.892  22.931  -5.271  0.00  0.00    -0.031 A 
HETATM    8  C   UNK N   1      28.231  22.657  -6.516  0.00  0.00     0.044 A 
HETATM    9  C   UNK N   1      29.945  22.113  -4.838  0.00  0.00     0.009 A 
HETATM   10  C   UNK N   1      28.711  21.545  -7.250  0.00  0.00     0.030 A 
HETATM   11  C   UNK N   1      30.377  21.031  -5.592  0.00  0.00     0.001 A 
HETATM   12  C   UNK N   1      29.763  20.749  -6.802  0.00  0.00     0.002 A 
ENDROOT
BRANCH   3  13
HETATM   13  N   UNK N   1      25.768  26.095  -4.810  0.00  0.00    -0.396 N 
HETATM   14  H   UNK N   1      24.792  25.866  -4.622  0.00  0.00     0.154 HD
BRANCH  13  15
HETATM   15  C   UNK N   1      26.371  27.418  -4.677  0.00  0.00     0.178 C 
BRANCH  15  16
HETATM   16  C   UNK N   1      27.722  27.463  -5.388  0.00  0.00     0.039 C 
BRANCH  16  17
HETATM   17  C   UNK N   1      27.804  28.720  -6.236  0.00  0.00     0.041 C 
BRANCH  17  18
HETATM   18  C   UNK N   1      28.300  28.425  -7.611  0.00  0.00    -0.058 A 
HETATM   19  C   UNK N   1      29.320  29.213  -8.152  0.00  0.00     0.007 A 
HETATM   20  C   UNK N   1      29.815  28.950  -9.431  0.00  0.00     0.001 A 
HETATM   21  C   UNK N   1      29.296  27.886 -10.171  0.00  0.00     0.000 A 
HETATM   22  C   UNK N   1      28.280  27.088  -9.633  0.00  0.00     0.001 A 
HETATM   23  C   UNK N   1      27.780  27.356  -8.353  0.00  0.00     0.007 A 
ENDBRANCH  17  18
ENDBRANCH  16  17
ENDBRANCH  15  16
BRANCH  15  24
HETATM   24  C   UNK N   1      26.331  27.854  -3.220  0.00  0.00     0.281 C 
HETATM   25  O   UNK N   1      25.947  27.035  -2.399  0.00  0.00    -0.263 OA
BRANCH  24  26
HETATM   26  O   UNK N   1      26.665  29.097  -2.770  0.00  0.00    -0.320 OA
BRANCH  26  27
HETATM   27  C   UNK N   1      27.851  29.447  -2.169  0.00  0.00     0.174 C 
HETATM   28  C   UNK N   1      28.578  30.460  -3.027  0.00  0.00     0.034 C 
ENDBRANCH  26  27
ENDBRANCH  24  26
ENDBRANCH  15  24
ENDBRANCH  13  15
ENDBRANCH   3  13
BRANCH   2  29
HETATM   29  C   UNK N   1      26.539  22.842  -8.325  0.00  0.00     0.242 C 
BRANCH  29  30
HETATM   30  C   UNK N   1      25.338  21.955  -8.127  0.00  0.00     0.158 C 
HETATM   31  O   UNK N   1      25.467  20.766  -7.881  0.00  0.00    -0.649 OA
BRANCH  30  32
HETATM   32  O   UNK N   1      24.104  22.483  -8.228  0.00  0.00    -0.775 OA
HETATM   33  H   UNK N   1      23.623  22.710  -7.457  0.00  0.00     0.167 HD
ENDBRANCH  30  32
ENDBRANCH  29  30
ENDBRANCH   2  29
TORSDOF 11
ENDMDL
