REMARK  11 active torsions:
REMARK  status: ('A' for Active; 'I' for Inactive)
REMARK    1  A    between atoms: O_2  and  C_18 
REMARK    2  A    between atoms: O_2  and  C_27 
REMARK    3  A    between atoms: O_4  and  C_24 
REMARK    4  A    between atoms: C_8  and  N_6 
REMARK    5  A    between atoms: C_11  and  N_6 
REMARK    6  A    between atoms: N_7  and  C_17 
REMARK    7  A    between atoms: C_11  and  C_15 
REMARK    8  A    between atoms: C_11  and  C_18 
REMARK    9  A    between atoms: C_15  and  C_16 
REMARK   10  A    between atoms: C_16  and  C_21 
REMARK   11  A    between atoms: C_17  and  C_24 
ROOT
HETATM    1  O   UNK N   1       7.799  -1.244  -1.037  0.00  0.00    -0.271 OA
HETATM    2  N   UNK N   1       6.416  -2.911  -0.425  0.00  0.00    -0.306 N 
HETATM    3  C   UNK N   1       5.702  -0.451  -0.417  0.00  0.00     0.171 C 
HETATM    4  C   UNK N   1       4.385  -0.746  -1.041  0.00  0.00     0.039 C 
HETATM    5  C   UNK N   1       3.683  -1.385   0.103  0.00  0.00     0.043 C 
HETATM    6  C   UNK N   1       6.683  -1.566  -0.641  0.00  0.00     0.247 C 
HETATM    7  C   UNK N   1       3.881  -2.845   0.126  0.00  0.00    -0.031 A 
HETATM    8  C   UNK N   1       5.129  -3.525  -0.081  0.00  0.00     0.044 A 
HETATM    9  C   UNK N   1       2.715  -3.578   0.387  0.00  0.00     0.009 A 
HETATM   10  C   UNK N   1       5.095  -4.938   0.004  0.00  0.00     0.030 A 
HETATM   11  C   UNK N   1       2.732  -4.964   0.457  0.00  0.00     0.001 A 
HETATM   12  C   UNK N   1       3.924  -5.645   0.270  0.00  0.00     0.002 A 
ENDROOT
BRANCH   3  13
HETATM   13  N   UNK N   1       6.210   0.827  -0.911  0.00  0.00    -0.396 N 
HETATM   14  H   UNK N   1       6.683   0.974  -1.803  0.00  0.00     0.154 HD
BRANCH  13  15
HETATM   15  C   UNK N   1       5.927   1.861   0.081  0.00  0.00     0.178 C 
BRANCH  15  16
HETATM   16  C   UNK N   1       4.530   2.440  -0.135  0.00  0.00     0.039 C 
BRANCH  16  17
HETATM   17  C   UNK N   1       3.566   1.813   0.856  0.00  0.00     0.041 C 
BRANCH  17  18
HETATM   18  C   UNK N   1       2.153   1.913   0.388  0.00  0.00    -0.058 A 
HETATM   19  C   UNK N   1       1.468   0.748   0.032  0.00  0.00     0.007 A 
HETATM   20  C   UNK N   1       0.140   0.810  -0.394  0.00  0.00     0.001 A 
HETATM   21  C   UNK N   1      -0.513   2.043  -0.456  0.00  0.00     0.000 A 
HETATM   22  C   UNK N   1       0.165   3.213  -0.094  0.00  0.00     0.001 A 
HETATM   23  C   UNK N   1       1.498   3.150   0.328  0.00  0.00     0.007 A 
ENDBRANCH  17  18
ENDBRANCH  16  17
ENDBRANCH  15  16
BRANCH  15  24
HETATM   24  C   UNK N   1       7.090   2.840   0.145  0.00  0.00     0.281 C 
HETATM   25  O   UNK N   1       8.183   2.393   0.455  0.00  0.00    -0.263 OA
BRANCH  24  26
HETATM   26  O   UNK N   1       6.993   4.179  -0.092  0.00  0.00    -0.320 OA
BRANCH  26  27
HETATM   27  C   UNK N   1       5.886   4.836  -0.574  0.00  0.00     0.174 C 
HETATM   28  C   UNK N   1       5.304   5.717   0.511  0.00  0.00     0.034 C 
ENDBRANCH  26  27
ENDBRANCH  24  26
ENDBRANCH  15  24
ENDBRANCH  13  15
ENDBRANCH   3  13
BRANCH   2  29
HETATM   29  C   UNK N   1       7.523  -3.836  -0.664  0.00  0.00     0.242 C 
BRANCH  29  30
HETATM   30  C   UNK N   1       8.625  -3.725   0.357  0.00  0.00     0.158 C 
HETATM   31  O   UNK N   1       8.536  -2.953   1.299  0.00  0.00    -0.649 OA
BRANCH  30  32
HETATM   32  O   UNK N   1       9.726  -4.488   0.224  0.00  0.00    -0.775 OA
HETATM   33  H   UNK N   1       9.649  -5.417   0.132  0.00  0.00     0.167 HD
ENDBRANCH  30  32
ENDBRANCH  29  30
ENDBRANCH   2  29
TORSDOF 11
