MODEL 1
REMARK VINA RESULT:      -6.9      0.000      0.000
REMARK  1 active torsions:
REMARK  status: ('A' for Active; 'I' for Inactive)
REMARK    1  A    between atoms: N_3  and  C_11 
ROOT
HETATM    1 Cl   UNK N   1      36.180  14.189   4.940  0.00  0.00    -0.084 Cl
HETATM    2  O   UNK N   1      30.979  16.720   6.092  0.00  0.00    -0.308 OA
HETATM    3  N   UNK N   1      31.979  16.956   8.921  0.00  0.00    -0.340 N 
ATOM      4  HN  UNK N   1      32.090  17.158   9.915  1.00  0.00     0.167 HD
HETATM    5  C   UNK N   1      32.983  16.302   8.447  0.00  0.00     0.117 A 
HETATM    6  C   UNK N   1      33.140  15.931   6.986  0.00  0.00     0.043 A 
HETATM    7  C   UNK N   1      32.187  16.147   5.949  0.00  0.00     0.090 A 
HETATM    8  C   UNK N   1      30.764  17.465   8.411  0.00  0.00     0.068 A 
HETATM    9  C   UNK N   1      34.363  15.338   6.613  0.00  0.00     0.042 A 
HETATM   10  C   UNK N   1      30.304  17.316   7.087  0.00  0.00     0.102 A 
HETATM   11  C   UNK N   1      32.489  15.735   4.641  0.00  0.00     0.040 A 
HETATM   12  C   UNK N   1      34.645  14.941   5.313  0.00  0.00     0.035 A 
HETATM   13  C   UNK N   1      33.701  15.134   4.320  0.00  0.00     0.026 A 
HETATM   14  C   UNK N   1      29.938  18.109   9.345  0.00  0.00     0.032 A 
HETATM   15  C   UNK N   1      29.037  17.819   6.748  0.00  0.00     0.039 A 
HETATM   16  C   UNK N   1      28.684  18.602   8.993  0.00  0.00     0.002 A 
HETATM   17  C   UNK N   1      28.231  18.454   7.690  0.00  0.00     0.003 A 
ENDROOT
BRANCH   5  18
HETATM   18  N   UNK N   1      33.978  15.886   9.411  0.00  0.00    -0.363 N 
HETATM   19  C   UNK N   1      34.953  16.864   9.877  0.00  0.00     0.143 C 
HETATM   20  C   UNK N   1      35.872  16.271  10.941  0.00  0.00     0.133 C 
HETATM   21  N   UNK N   1      36.296  14.942  10.514  0.00  0.00    -0.418 N 
HETATM   22  C   UNK N   1      35.163  14.008  10.530  0.00  0.00     0.133 C 
HETATM   23  H   UNK N   1      37.247  14.695  10.242  0.00  0.00     0.153 HD
HETATM   24  C   UNK N   1      33.818  14.662  10.178  0.00  0.00     0.143 C 
ENDBRANCH   5  18
TORSDOF 1
ENDMDL
MODEL 2
REMARK VINA RESULT:      -6.7      3.597      5.745
REMARK  1 active torsions:
REMARK  status: ('A' for Active; 'I' for Inactive)
REMARK    1  A    between atoms: N_3  and  C_11 
ROOT
HETATM    1 Cl   UNK N   1      32.328  15.313   9.280  0.00  0.00    -0.084 Cl
HETATM    2  O   UNK N   1      28.318  19.136   7.257  0.00  0.00    -0.308 OA
HETATM    3  N   UNK N   1      29.040  18.096   4.526  0.00  0.00    -0.340 N 
ATOM      4  HN  UNK N   1      29.096  17.907   3.525  1.00  0.00     0.167 HD
HETATM    5  C   UNK N   1      29.914  17.424   5.194  0.00  0.00     0.117 A 
HETATM    6  C   UNK N   1      30.019  17.434   6.705  0.00  0.00     0.043 A 
HETATM    7  C   UNK N   1      29.261  18.242   7.602  0.00  0.00     0.090 A 
HETATM    8  C   UNK N   1      28.023  19.028   4.833  0.00  0.00     0.068 A 
HETATM    9  C   UNK N   1      30.940  16.536   7.281  0.00  0.00     0.042 A 
HETATM   10  C   UNK N   1      27.723  19.522   6.118  0.00  0.00     0.102 A 
HETATM   11  C   UNK N   1      29.488  18.133   8.984  0.00  0.00     0.040 A 
HETATM   12  C   UNK N   1      31.147  16.440   8.650  0.00  0.00     0.035 A 
HETATM   13  C   UNK N   1      30.422  17.246   9.508  0.00  0.00     0.026 A 
HETATM   14  C   UNK N   1      27.316  19.535   3.731  0.00  0.00     0.032 A 
HETATM   15  C   UNK N   1      26.727  20.503   6.253  0.00  0.00     0.039 A 
HETATM   16  C   UNK N   1      26.331  20.508   3.882  0.00  0.00     0.002 A 
HETATM   17  C   UNK N   1      26.037  20.995   5.148  0.00  0.00     0.003 A 
ENDROOT
BRANCH   5  18
HETATM   18  N   UNK N   1      30.854  16.655   4.407  0.00  0.00    -0.363 N 
HETATM   19  C   UNK N   1      30.453  15.338   3.928  0.00  0.00     0.143 C 
HETATM   20  C   UNK N   1      31.538  14.709   3.058  0.00  0.00     0.133 C 
HETATM   21  N   UNK N   1      32.834  14.906   3.699  0.00  0.00    -0.418 N 
HETATM   22  C   UNK N   1      33.209  16.326   3.680  0.00  0.00     0.133 C 
HETATM   23  H   UNK N   1      33.401  14.162   4.104  0.00  0.00     0.153 HD
HETATM   24  C   UNK N   1      32.013  17.283   3.794  0.00  0.00     0.143 C 
ENDBRANCH   5  18
TORSDOF 1
ENDMDL
MODEL 3
REMARK VINA RESULT:      -6.6     14.492     16.742
REMARK  1 active torsions:
REMARK  status: ('A' for Active; 'I' for Inactive)
REMARK    1  A    between atoms: N_3  and  C_11 
ROOT
HETATM    1 Cl   UNK N   1      31.453  20.289  -4.438  0.00  0.00    -0.084 Cl
HETATM    2  O   UNK N   1      28.066  25.053  -3.653  0.00  0.00    -0.308 OA
HETATM    3  N   UNK N   1      26.970  24.442  -6.390  0.00  0.00    -0.340 N 
ATOM      4  HN  UNK N   1      26.446  24.440  -7.265  1.00  0.00     0.167 HD
HETATM    5  C   UNK N   1      27.866  23.516  -6.362  0.00  0.00     0.117 A 
HETATM    6  C   UNK N   1      28.745  23.222  -5.163  0.00  0.00     0.043 A 
HETATM    7  C   UNK N   1      28.795  23.962  -3.946  0.00  0.00     0.090 A 
HETATM    8  C   UNK N   1      26.531  25.459  -5.513  0.00  0.00     0.068 A 
HETATM    9  C   UNK N   1      29.576  22.087  -5.252  0.00  0.00     0.042 A 
HETATM   10  C   UNK N   1      27.080  25.744  -4.246  0.00  0.00     0.102 A 
HETATM   11  C   UNK N   1      29.676  23.556  -2.930  0.00  0.00     0.040 A 
HETATM   12  C   UNK N   1      30.437  21.699  -4.235  0.00  0.00     0.035 A 
HETATM   13  C   UNK N   1      30.493  22.440  -3.068  0.00  0.00     0.026 A 
HETATM   14  C   UNK N   1      25.503  26.279  -6.004  0.00  0.00     0.032 A 
HETATM   15  C   UNK N   1      26.579  26.837  -3.520  0.00  0.00     0.039 A 
HETATM   16  C   UNK N   1      25.018  27.359  -5.271  0.00  0.00     0.002 A 
HETATM   17  C   UNK N   1      25.560  27.640  -4.025  0.00  0.00     0.003 A 
ENDROOT
BRANCH   5  18
HETATM   18  N   UNK N   1      28.033  22.762  -7.585  0.00  0.00    -0.363 N 
HETATM   19  C   UNK N   1      27.010  21.791  -7.953  0.00  0.00     0.143 C 
HETATM   20  C   UNK N   1      27.314  21.147  -9.303  0.00  0.00     0.133 C 
HETATM   21  N   UNK N   1      28.728  20.795  -9.353  0.00  0.00    -0.418 N 
HETATM   22  C   UNK N   1      29.561  22.003  -9.394  0.00  0.00     0.133 C 
HETATM   23  H   UNK N   1      29.089  19.841  -9.359  0.00  0.00     0.153 HD
HETATM   24  C   UNK N   1      28.974  23.186  -8.609  0.00  0.00     0.143 C 
ENDBRANCH   5  18
TORSDOF 1
ENDMDL
MODEL 4
REMARK VINA RESULT:      -6.5     14.433     16.245
REMARK  1 active torsions:
REMARK  status: ('A' for Active; 'I' for Inactive)
REMARK    1  A    between atoms: N_3  and  C_11 
ROOT
HETATM    1 Cl   UNK N   1      28.706  19.814  -8.269  0.00  0.00    -0.084 Cl
HETATM    2  O   UNK N   1      25.784  24.617  -6.485  0.00  0.00    -0.308 OA
HETATM    3  N   UNK N   1      28.182  25.150  -4.745  0.00  0.00    -0.340 N 
ATOM      4  HN  UNK N   1      28.861  25.546  -4.094  1.00  0.00     0.167 HD
HETATM    5  C   UNK N   1      28.569  24.012  -5.213  0.00  0.00     0.117 A 
HETATM    6  C   UNK N   1      27.809  23.223  -6.260  0.00  0.00     0.043 A 
HETATM    7  C   UNK N   1      26.534  23.548  -6.807  0.00  0.00     0.090 A 
HETATM    8  C   UNK N   1      27.055  25.986  -4.908  0.00  0.00     0.068 A 
HETATM    9  C   UNK N   1      28.441  22.067  -6.761  0.00  0.00     0.042 A 
HETATM   10  C   UNK N   1      25.930  25.701  -5.707  0.00  0.00     0.102 A 
HETATM   11  C   UNK N   1      25.964  22.701  -7.771  0.00  0.00     0.040 A 
HETATM   12  C   UNK N   1      27.863  21.245  -7.718  0.00  0.00     0.035 A 
HETATM   13  C   UNK N   1      26.614  21.559  -8.224  0.00  0.00     0.026 A 
HETATM   14  C   UNK N   1      27.060  27.162  -4.141  0.00  0.00     0.032 A 
HETATM   15  C   UNK N   1      24.853  26.603  -5.710  0.00  0.00     0.039 A 
HETATM   16  C   UNK N   1      25.984  28.046  -4.156  0.00  0.00     0.002 A 
HETATM   17  C   UNK N   1      24.875  27.764  -4.941  0.00  0.00     0.003 A 
ENDROOT
BRANCH   5  18
HETATM   18  N   UNK N   1      29.789  23.479  -4.646  0.00  0.00    -0.363 N 
HETATM   19  C   UNK N   1      31.066  23.970  -5.147  0.00  0.00     0.143 C 
HETATM   20  C   UNK N   1      32.236  23.354  -4.386  0.00  0.00     0.133 C 
HETATM   21  N   UNK N   1      31.998  21.923  -4.229  0.00  0.00    -0.418 N 
HETATM   22  C   UNK N   1      30.876  21.683  -3.314  0.00  0.00     0.133 C 
HETATM   23  H   UNK N   1      32.537  21.190  -4.691  0.00  0.00     0.153 HD
HETATM   24  C   UNK N   1      29.780  22.757  -3.384  0.00  0.00     0.143 C 
ENDBRANCH   5  18
TORSDOF 1
ENDMDL
MODEL 5
REMARK VINA RESULT:      -6.3     13.349     15.587
REMARK  1 active torsions:
REMARK  status: ('A' for Active; 'I' for Inactive)
REMARK    1  A    between atoms: N_3  and  C_11 
ROOT
HETATM    1 Cl   UNK N   1      33.729  19.703  -4.054  0.00  0.00    -0.084 Cl
HETATM    2  O   UNK N   1      29.219  23.485  -3.679  0.00  0.00    -0.308 OA
HETATM    3  N   UNK N   1      28.415  22.439  -6.385  0.00  0.00    -0.340 N 
ATOM      4  HN  UNK N   1      27.941  22.246  -7.267  1.00  0.00     0.167 HD
HETATM    5  C   UNK N   1      29.515  21.776  -6.273  0.00  0.00     0.117 A 
HETATM    6  C   UNK N   1      30.395  21.794  -5.040  0.00  0.00     0.043 A 
HETATM    7  C   UNK N   1      30.211  22.600  -3.879  0.00  0.00     0.090 A 
HETATM    8  C   UNK N   1      27.701  23.364  -5.591  0.00  0.00     0.068 A 
HETATM    9  C   UNK N   1      31.489  20.906  -5.031  0.00  0.00     0.042 A 
HETATM   10  C   UNK N   1      28.113  23.862  -4.339  0.00  0.00     0.102 A 
HETATM   11  C   UNK N   1      31.129  22.498  -2.820  0.00  0.00     0.040 A 
HETATM   12  C   UNK N   1      32.382  20.817  -3.973  0.00  0.00     0.035 A 
HETATM   13  C   UNK N   1      32.206  21.622  -2.861  0.00  0.00     0.026 A 
HETATM   14  C   UNK N   1      26.518  23.861  -6.160  0.00  0.00     0.032 A 
HETATM   15  C   UNK N   1      27.326  24.835  -3.702  0.00  0.00     0.039 A 
HETATM   16  C   UNK N   1      25.748  24.826  -5.516  0.00  0.00     0.002 A 
HETATM   17  C   UNK N   1      26.155  25.317  -4.283  0.00  0.00     0.003 A 
ENDROOT
BRANCH   5  18
HETATM   18  N   UNK N   1      29.911  21.011  -7.436  0.00  0.00    -0.363 N 
HETATM   19  C   UNK N   1      29.294  19.711  -7.662  0.00  0.00     0.143 C 
HETATM   20  C   UNK N   1      29.776  19.086  -8.968  0.00  0.00     0.133 C 
HETATM   21  N   UNK N   1      31.222  19.251  -9.066  0.00  0.00    -0.418 N 
HETATM   22  C   UNK N   1      31.569  20.665  -9.256  0.00  0.00     0.133 C 
HETATM   23  H   UNK N   1      31.899  18.490  -9.012  0.00  0.00     0.153 HD
HETATM   24  C   UNK N   1      30.617  21.636  -8.543  0.00  0.00     0.143 C 
ENDBRANCH   5  18
TORSDOF 1
ENDMDL
MODEL 6
REMARK VINA RESULT:      -6.2      6.426      9.896
REMARK  1 active torsions:
REMARK  status: ('A' for Active; 'I' for Inactive)
REMARK    1  A    between atoms: N_3  and  C_11 
ROOT
HETATM    1 Cl   UNK N   1      36.040   7.854  10.908  0.00  0.00    -0.084 Cl
HETATM    2  O   UNK N   1      35.627   9.988  16.391  0.00  0.00    -0.308 OA
HETATM    3  N   UNK N   1      35.630  12.702  15.089  0.00  0.00    -0.340 N 
ATOM      4  HN  UNK N   1      35.600  13.703  14.894  1.00  0.00     0.167 HD
HETATM    5  C   UNK N   1      35.814  12.007  14.019  0.00  0.00     0.117 A 
HETATM    6  C   UNK N   1      35.822  10.492  13.982  0.00  0.00     0.043 A 
HETATM    7  C   UNK N   1      35.734   9.617  15.103  0.00  0.00     0.090 A 
HETATM    8  C   UNK N   1      35.459  12.426  16.464  0.00  0.00     0.068 A 
HETATM    9  C   UNK N   1      35.898   9.892  12.709  0.00  0.00     0.042 A 
HETATM   10  C   UNK N   1      35.491  11.147  17.054  0.00  0.00     0.102 A 
HETATM   11  C   UNK N   1      35.762   8.228  14.894  0.00  0.00     0.040 A 
HETATM   12  C   UNK N   1      35.920   8.517  12.523  0.00  0.00     0.035 A 
HETATM   13  C   UNK N   1      35.858   7.677  13.621  0.00  0.00     0.026 A 
HETATM   14  C   UNK N   1      35.315  13.550  17.292  0.00  0.00     0.032 A 
HETATM   15  C   UNK N   1      35.376  11.040  18.450  0.00  0.00     0.039 A 
HETATM   16  C   UNK N   1      35.202  13.427  18.675  0.00  0.00     0.002 A 
HETATM   17  C   UNK N   1      35.235  12.167  19.256  0.00  0.00     0.003 A 
ENDROOT
BRANCH   5  18
HETATM   18  N   UNK N   1      36.059  12.763  12.810  0.00  0.00    -0.363 N 
HETATM   19  C   UNK N   1      37.362  12.652  12.168  0.00  0.00     0.143 C 
HETATM   20  C   UNK N   1      37.415  13.457  10.872  0.00  0.00     0.133 C 
HETATM   21  N   UNK N   1      36.805  14.763  11.100  0.00  0.00    -0.418 N 
HETATM   22  C   UNK N   1      35.360  14.627  11.320  0.00  0.00     0.133 C 
HETATM   23  H   UNK N   1      37.312  15.647  11.105  0.00  0.00     0.153 HD
HETATM   24  C   UNK N   1      34.963  13.330  12.041  0.00  0.00     0.143 C 
ENDBRANCH   5  18
TORSDOF 1
ENDMDL
MODEL 7
REMARK VINA RESULT:      -6.1      2.305      4.817
REMARK  1 active torsions:
REMARK  status: ('A' for Active; 'I' for Inactive)
REMARK    1  A    between atoms: N_3  and  C_11 
ROOT
HETATM    1 Cl   UNK N   1      29.475  18.267   9.915  0.00  0.00    -0.084 Cl
HETATM    2  O   UNK N   1      31.823  16.116   4.950  0.00  0.00    -0.308 OA
HETATM    3  N   UNK N   1      34.025  15.068   6.716  0.00  0.00    -0.340 N 
ATOM      4  HN  UNK N   1      34.857  14.613   7.090  1.00  0.00     0.167 HD
HETATM    5  C   UNK N   1      33.373  15.706   7.627  0.00  0.00     0.117 A 
HETATM    6  C   UNK N   1      32.054  16.413   7.390  0.00  0.00     0.043 A 
HETATM    7  C   UNK N   1      31.390  16.571   6.139  0.00  0.00     0.090 A 
HETATM    8  C   UNK N   1      33.875  14.842   5.330  0.00  0.00     0.068 A 
HETATM    9  C   UNK N   1      31.407  16.942   8.525  0.00  0.00     0.042 A 
HETATM   10  C   UNK N   1      32.850  15.368   4.518  0.00  0.00     0.102 A 
HETATM   11  C   UNK N   1      30.168  17.262   6.092  0.00  0.00     0.040 A 
HETATM   12  C   UNK N   1      30.198  17.619   8.458  0.00  0.00     0.035 A 
HETATM   13  C   UNK N   1      29.575  17.787   7.234  0.00  0.00     0.026 A 
HETATM   14  C   UNK N   1      34.889  14.079   4.730  0.00  0.00     0.032 A 
HETATM   15  C   UNK N   1      32.877  15.109   3.138  0.00  0.00     0.039 A 
HETATM   16  C   UNK N   1      34.901  13.831   3.359  0.00  0.00     0.002 A 
HETATM   17  C   UNK N   1      33.893  14.351   2.560  0.00  0.00     0.003 A 
ENDROOT
BRANCH   5  18
HETATM   18  N   UNK N   1      33.996  15.754   8.932  0.00  0.00    -0.363 N 
HETATM   19  C   UNK N   1      34.793  16.922   9.284  0.00  0.00     0.143 C 
HETATM   20  C   UNK N   1      35.309  16.832  10.718  0.00  0.00     0.133 C 
HETATM   21  N   UNK N   1      35.816  15.485  10.956  0.00  0.00    -0.418 N 
HETATM   22  C   UNK N   1      34.716  14.513  10.963  0.00  0.00     0.133 C 
HETATM   23  H   UNK N   1      36.799  15.251  11.098  0.00  0.00     0.153 HD
HETATM   24  C   UNK N   1      33.571  14.868  10.003  0.00  0.00     0.143 C 
ENDBRANCH   5  18
TORSDOF 1
ENDMDL
MODEL 8
REMARK VINA RESULT:      -6.1      2.926      5.253
REMARK  1 active torsions:
REMARK  status: ('A' for Active; 'I' for Inactive)
REMARK    1  A    between atoms: N_3  and  C_11 
ROOT
HETATM    1 Cl   UNK N   1      29.059  18.660   9.542  0.00  0.00    -0.084 Cl
HETATM    2  O   UNK N   1      29.728  15.279   4.756  0.00  0.00    -0.308 OA
HETATM    3  N   UNK N   1      32.578  14.950   5.668  0.00  0.00    -0.340 N 
ATOM      4  HN  UNK N   1      33.557  14.681   5.769  1.00  0.00     0.167 HD
HETATM    5  C   UNK N   1      32.211  15.788   6.576  0.00  0.00     0.117 A 
HETATM    6  C   UNK N   1      30.795  16.305   6.731  0.00  0.00     0.043 A 
HETATM    7  C   UNK N   1      29.695  16.039   5.865  0.00  0.00     0.090 A 
HETATM    8  C   UNK N   1      31.965  14.310   4.568  0.00  0.00     0.068 A 
HETATM    9  C   UNK N   1      30.535  17.107   7.861  0.00  0.00     0.042 A 
HETATM   10  C   UNK N   1      30.635  14.502   4.143  0.00  0.00     0.102 A 
HETATM   11  C   UNK N   1      28.442  16.605   6.151  0.00  0.00     0.040 A 
HETATM   12  C   UNK N   1      29.288  17.654   8.128  0.00  0.00     0.035 A 
HETATM   13  C   UNK N   1      28.235  17.408   7.267  0.00  0.00     0.026 A 
HETATM   14  C   UNK N   1      32.800  13.469   3.816  0.00  0.00     0.032 A 
HETATM   15  C   UNK N   1      30.190  13.845   2.984  0.00  0.00     0.039 A 
HETATM   16  C   UNK N   1      32.344  12.824   2.669  0.00  0.00     0.002 A 
HETATM   17  C   UNK N   1      31.034  13.015   2.250  0.00  0.00     0.003 A 
ENDROOT
BRANCH   5  18
HETATM   18  N   UNK N   1      33.257  16.263   7.456  0.00  0.00    -0.363 N 
HETATM   19  C   UNK N   1      33.730  15.386   8.518  0.00  0.00     0.143 C 
HETATM   20  C   UNK N   1      34.880  16.022   9.294  0.00  0.00     0.133 C 
HETATM   21  N   UNK N   1      34.551  17.417   9.570  0.00  0.00    -0.418 N 
HETATM   22  C   UNK N   1      34.545  18.202   8.330  0.00  0.00     0.133 C 
HETATM   23  H   UNK N   1      34.353  17.794  10.497  0.00  0.00     0.153 HD
HETATM   24  C   UNK N   1      34.075  17.411   7.100  0.00  0.00     0.143 C 
ENDBRANCH   5  18
TORSDOF 1
ENDMDL
MODEL 9
REMARK VINA RESULT:      -6.0      5.271      8.452
REMARK  1 active torsions:
REMARK  status: ('A' for Active; 'I' for Inactive)
REMARK    1  A    between atoms: N_3  and  C_11 
ROOT
HETATM    1 Cl   UNK N   1      34.417   9.692   8.510  0.00  0.00    -0.084 Cl
HETATM    2  O   UNK N   1      34.883  10.134  14.373  0.00  0.00    -0.308 OA
HETATM    3  N   UNK N   1      35.247  13.084  13.893  0.00  0.00    -0.340 N 
ATOM      4  HN  UNK N   1      35.377  14.091  13.991  1.00  0.00     0.167 HD
HETATM    5  C   UNK N   1      35.208  12.720  12.657  0.00  0.00     0.117 A 
HETATM    6  C   UNK N   1      34.946  11.299  12.198  0.00  0.00     0.043 A 
HETATM    7  C   UNK N   1      34.806  10.152  13.031  0.00  0.00     0.090 A 
HETATM    8  C   UNK N   1      35.155  12.438  15.146  0.00  0.00     0.068 A 
HETATM    9  C   UNK N   1      34.800  11.100  10.811  0.00  0.00     0.042 A 
HETATM   10  C   UNK N   1      35.013  11.050  15.346  0.00  0.00     0.102 A 
HETATM   11  C   UNK N   1      34.570   8.899  12.441  0.00  0.00     0.040 A 
HETATM   12  C   UNK N   1      34.562   9.855  10.247  0.00  0.00     0.035 A 
HETATM   13  C   UNK N   1      34.452   8.744  11.065  0.00  0.00     0.026 A 
HETATM   14  C   UNK N   1      35.287  13.273  16.266  0.00  0.00     0.032 A 
HETATM   15  C   UNK N   1      35.007  10.550  16.658  0.00  0.00     0.039 A 
HETATM   16  C   UNK N   1      35.279  12.761  17.562  0.00  0.00     0.002 A 
HETATM   17  C   UNK N   1      35.141  11.394  17.758  0.00  0.00     0.003 A 
ENDROOT
BRANCH   5  18
HETATM   18  N   UNK N   1      35.473  13.758  11.685  0.00  0.00    -0.363 N 
HETATM   19  C   UNK N   1      34.436  14.745  11.415  0.00  0.00     0.143 C 
HETATM   20  C   UNK N   1      34.917  15.801  10.423  0.00  0.00     0.133 C 
HETATM   21  N   UNK N   1      35.617  15.139   9.328  0.00  0.00    -0.418 N 
HETATM   22  C   UNK N   1      36.882  14.560   9.799  0.00  0.00     0.133 C 
HETATM   23  H   UNK N   1      35.276  15.085   8.369  0.00  0.00     0.153 HD
HETATM   24  C   UNK N   1      36.828  14.052  11.248  0.00  0.00     0.143 C 
ENDBRANCH   5  18
TORSDOF 1
ENDMDL
