REMARK  1 active torsions:
REMARK  status: ('A' for Active; 'I' for Inactive)
REMARK    1  A    between atoms: N_3  and  C_11 
ROOT
HETATM    1 Cl   UNK N   1      -0.735  -1.420   0.093  0.00  0.00    -0.084 Cl
HETATM    2  O   UNK N   1       4.943  -2.997  -0.146  0.00  0.00    -0.308 OA
HETATM    3  N   UNK N   1       5.529  -0.045  -0.074  0.00  0.00    -0.340 N 
ATOM      4  HN  UNK N   1       5.975   0.872  -0.048  1.00  0.00     0.167 HD
HETATM    5  C   UNK N   1       4.244   0.044  -0.123  0.00  0.00     0.117 A 
HETATM    6  C   UNK N   1       3.309  -1.148  -0.090  0.00  0.00     0.043 A 
HETATM    7  C   UNK N   1       3.686  -2.522  -0.103  0.00  0.00     0.090 A 
HETATM    8  C   UNK N   1       6.475  -1.094  -0.047  0.00  0.00     0.068 A 
HETATM    9  C   UNK N   1       1.930  -0.867  -0.012  0.00  0.00     0.042 A 
HETATM   10  C   UNK N   1       6.177  -2.470  -0.111  0.00  0.00     0.102 A 
HETATM   11  C   UNK N   1       2.687  -3.509  -0.074  0.00  0.00     0.040 A 
HETATM   12  C   UNK N   1       0.958  -1.857   0.020  0.00  0.00     0.035 A 
HETATM   13  C   UNK N   1       1.336  -3.187  -0.017  0.00  0.00     0.026 A 
HETATM   14  C   UNK N   1       7.820  -0.694  -0.022  0.00  0.00     0.032 A 
HETATM   15  C   UNK N   1       7.235  -3.393  -0.146  0.00  0.00     0.039 A 
HETATM   16  C   UNK N   1       8.858  -1.622  -0.057  0.00  0.00     0.002 A 
HETATM   17  C   UNK N   1       8.564  -2.977  -0.122  0.00  0.00     0.003 A 
ENDROOT
BRANCH   5  18
HETATM   18  N   UNK N   1       3.709   1.382  -0.254  0.00  0.00    -0.363 N 
HETATM   19  C   UNK N   1       4.585   2.515   0.014  0.00  0.00     0.143 C 
HETATM   20  C   UNK N   1       3.875   3.841  -0.245  0.00  0.00     0.133 C 
HETATM   21  N   UNK N   1       2.536   3.782   0.331  0.00  0.00    -0.418 N 
HETATM   22  C   UNK N   1       1.696   2.833  -0.410  0.00  0.00     0.133 C 
HETATM   23  H   UNK N   1       2.226   4.325   1.137  0.00  0.00     0.153 HD
HETATM   24  C   UNK N   1       2.469   1.630  -0.971  0.00  0.00     0.143 C 
ENDBRANCH   5  18
TORSDOF 1
