MODEL 1
REMARK VINA RESULT:      -4.6      0.000      0.000
REMARK  0 active torsions:
REMARK  status: ('A' for Active; 'I' for Inactive)
ROOT
HETATM    1  F   UNK N   1      19.876  17.396   4.035  0.00  0.00    -0.199 F 
HETATM    2  O   UNK N   1      20.804  19.897   4.499  0.00  0.00    -0.265 OA
HETATM    3  O   UNK N   1      21.045  20.811   0.125  0.00  0.00    -0.247 OA
HETATM    4  N   UNK N   1      20.947  20.414   2.326  0.00  0.00    -0.273 N 
HETATM    5  N   UNK N   1      20.312  18.780   0.725  0.00  0.00    -0.316 N 
HETATM    6  C   UNK N   1      20.651  19.548   3.343  0.00  0.00     0.289 A 
HETATM    7  C   UNK N   1      20.779  20.034   1.022  0.00  0.00     0.327 A 
HETATM    8  C   UNK N   1      20.175  18.270   3.047  0.00  0.00     0.199 A 
HETATM    9  C   UNK N   1      20.011  17.901   1.715  0.00  0.00     0.140 A 
HETATM   10  H   UNK N   1      21.282  21.316   2.534  0.00  0.00     0.173 HD
HETATM   11  H   UNK N   1      20.194  18.513  -0.216  0.00  0.00     0.170 HD
ENDROOT
TORSDOF 0
ENDMDL
MODEL 2
REMARK VINA RESULT:      -4.5     10.884     11.872
REMARK  0 active torsions:
REMARK  status: ('A' for Active; 'I' for Inactive)
ROOT
HETATM    1  F   UNK N   1      22.061  12.449   8.647  0.00  0.00    -0.199 F 
HETATM    2  O   UNK N   1      24.634  12.846   9.394  0.00  0.00    -0.265 OA
HETATM    3  O   UNK N   1      23.703  12.003  13.690  0.00  0.00    -0.247 OA
HETATM    4  N   UNK N   1      24.232  12.435  11.558  0.00  0.00    -0.273 N 
HETATM    5  N   UNK N   1      22.017  11.893  12.218  0.00  0.00    -0.316 N 
HETATM    6  C   UNK N   1      23.826  12.553  10.256  0.00  0.00     0.289 A 
HETATM    7  C   UNK N   1      23.333  12.106  12.535  0.00  0.00     0.327 A 
HETATM    8  C   UNK N   1      22.487  12.338   9.926  0.00  0.00     0.199 A 
HETATM    9  C   UNK N   1      21.588  12.004  10.935  0.00  0.00     0.140 A 
HETATM   10  H   UNK N   1      25.176  12.587  11.791  0.00  0.00     0.173 HD
HETATM   11  H   UNK N   1      21.376  11.657  12.928  0.00  0.00     0.170 HD
ENDROOT
TORSDOF 0
ENDMDL
MODEL 3
REMARK VINA RESULT:      -4.4     10.672     11.480
REMARK  0 active torsions:
REMARK  status: ('A' for Active; 'I' for Inactive)
ROOT
HETATM    1  F   UNK N   1      20.532  11.874  12.018  0.00  0.00    -0.199 F 
HETATM    2  O   UNK N   1      22.927  11.558  13.241  0.00  0.00    -0.265 OA
HETATM    3  O   UNK N   1      25.148  13.139   9.691  0.00  0.00    -0.247 OA
HETATM    4  N   UNK N   1      24.095  12.340  11.498  0.00  0.00    -0.273 N 
HETATM    5  N   UNK N   1      22.914  13.031   9.558  0.00  0.00    -0.316 N 
HETATM    6  C   UNK N   1      22.917  12.009  12.111  0.00  0.00     0.289 A 
HETATM    7  C   UNK N   1      24.095  12.848  10.228  0.00  0.00     0.327 A 
HETATM    8  C   UNK N   1      21.710  12.193  11.434  0.00  0.00     0.199 A 
HETATM    9  C   UNK N   1      21.731  12.711  10.142  0.00  0.00     0.140 A 
HETATM   10  H   UNK N   1      24.946  12.211  11.974  0.00  0.00     0.173 HD
HETATM   11  H   UNK N   1      22.922  13.397   8.644  0.00  0.00     0.170 HD
ENDROOT
TORSDOF 0
ENDMDL
MODEL 4
REMARK VINA RESULT:      -4.4     10.536     11.616
REMARK  0 active torsions:
REMARK  status: ('A' for Active; 'I' for Inactive)
ROOT
HETATM    1  F   UNK N   1      22.997  13.337   8.367  0.00  0.00    -0.199 F 
HETATM    2  O   UNK N   1      20.733  12.699   9.708  0.00  0.00    -0.265 OA
HETATM    3  O   UNK N   1      23.023  11.520  13.368  0.00  0.00    -0.247 OA
HETATM    4  N   UNK N   1      21.822  12.095  11.569  0.00  0.00    -0.273 N 
HETATM    5  N   UNK N   1      24.191  12.242  11.597  0.00  0.00    -0.316 N 
HETATM    6  C   UNK N   1      21.797  12.561  10.282  0.00  0.00     0.289 A 
HETATM    7  C   UNK N   1      23.012  11.935  12.225  0.00  0.00     0.327 A 
HETATM    8  C   UNK N   1      22.995  12.875   9.638  0.00  0.00     0.199 A 
HETATM    9  C   UNK N   1      24.196  12.706  10.322  0.00  0.00     0.140 A 
HETATM   10  H   UNK N   1      20.978  11.873  12.024  0.00  0.00     0.173 HD
HETATM   11  H   UNK N   1      25.044  12.124  12.076  0.00  0.00     0.170 HD
ENDROOT
TORSDOF 0
ENDMDL
MODEL 5
REMARK VINA RESULT:      -4.4     10.232     10.988
REMARK  0 active torsions:
REMARK  status: ('A' for Active; 'I' for Inactive)
ROOT
HETATM    1  F   UNK N   1      20.541  11.884  12.014  0.00  0.00    -0.199 F 
HETATM    2  O   UNK N   1      20.522  13.048   9.569  0.00  0.00    -0.265 OA
HETATM    3  O   UNK N   1      24.990  13.262   9.439  0.00  0.00    -0.247 OA
HETATM    4  N   UNK N   1      22.753  13.183   9.444  0.00  0.00    -0.273 N 
HETATM    5  N   UNK N   1      24.043  12.362  11.260  0.00  0.00    -0.316 N 
HETATM    6  C   UNK N   1      21.599  12.835  10.093  0.00  0.00     0.289 A 
HETATM    7  C   UNK N   1      23.970  12.949  10.024  0.00  0.00     0.327 A 
HETATM    8  C   UNK N   1      21.667  12.238  11.352  0.00  0.00     0.199 A 
HETATM    9  C   UNK N   1      22.915  12.007  11.925  0.00  0.00     0.140 A 
HETATM   10  H   UNK N   1      22.706  13.605   8.556  0.00  0.00     0.173 HD
HETATM   11  H   UNK N   1      24.924  12.197  11.671  0.00  0.00     0.170 HD
ENDROOT
TORSDOF 0
ENDMDL
MODEL 6
REMARK VINA RESULT:      -4.3     10.630     11.509
REMARK  0 active torsions:
REMARK  status: ('A' for Active; 'I' for Inactive)
ROOT
HETATM    1  F   UNK N   1      24.800  12.991   9.491  0.00  0.00    -0.199 F 
HETATM    2  O   UNK N   1      24.609  11.853  11.940  0.00  0.00    -0.265 OA
HETATM    3  O   UNK N   1      20.136  11.987  11.848  0.00  0.00    -0.247 OA
HETATM    4  N   UNK N   1      22.370  11.892  11.954  0.00  0.00    -0.273 N 
HETATM    5  N   UNK N   1      21.239  12.793  10.072  0.00  0.00    -0.316 N 
HETATM    6  C   UNK N   1      23.578  12.143  11.362  0.00  0.00     0.289 A 
HETATM    7  C   UNK N   1      21.205  12.214  11.314  0.00  0.00     0.327 A 
HETATM    8  C   UNK N   1      23.619  12.732  10.098  0.00  0.00     0.199 A 
HETATM    9  C   UNK N   1      22.423  13.053   9.462  0.00  0.00     0.140 A 
HETATM   10  H   UNK N   1      22.340  11.476  12.846  0.00  0.00     0.173 HD
HETATM   11  H   UNK N   1      20.395  13.022   9.617  0.00  0.00     0.170 HD
ENDROOT
TORSDOF 0
ENDMDL
MODEL 7
REMARK VINA RESULT:      -4.2     22.295     22.585
REMARK  0 active torsions:
REMARK  status: ('A' for Active; 'I' for Inactive)
ROOT
HETATM    1  F   UNK N   1      44.700  21.689   4.654  0.00  0.00    -0.199 F 
HETATM    2  O   UNK N   1      44.225  24.118   3.556  0.00  0.00    -0.265 OA
HETATM    3  O   UNK N   1      40.572  22.641   1.434  0.00  0.00    -0.247 OA
HETATM    4  N   UNK N   1      42.389  23.440   2.469  0.00  0.00    -0.273 N 
HETATM    5  N   UNK N   1      41.706  21.177   2.696  0.00  0.00    -0.316 N 
HETATM    6  C   UNK N   1      43.456  23.212   3.295  0.00  0.00     0.289 A 
HETATM    7  C   UNK N   1      41.517  22.428   2.169  0.00  0.00     0.327 A 
HETATM    8  C   UNK N   1      43.653  21.940   3.834  0.00  0.00     0.199 A 
HETATM    9  C   UNK N   1      42.756  20.924   3.518  0.00  0.00     0.140 A 
HETATM   10  H   UNK N   1      42.249  24.336   2.088  0.00  0.00     0.173 HD
HETATM   11  H   UNK N   1      41.074  20.455   2.475  0.00  0.00     0.170 HD
ENDROOT
TORSDOF 0
ENDMDL
MODEL 8
REMARK VINA RESULT:      -4.1     13.873     14.513
REMARK  0 active torsions:
REMARK  status: ('A' for Active; 'I' for Inactive)
ROOT
HETATM    1  F   UNK N   1      31.400  16.741   6.328  0.00  0.00    -0.199 F 
HETATM    2  O   UNK N   1      33.741  17.938   5.681  0.00  0.00    -0.265 OA
HETATM    3  O   UNK N   1      35.293  17.562   9.862  0.00  0.00    -0.247 OA
HETATM    4  N   UNK N   1      34.573  17.779   7.753  0.00  0.00    -0.273 N 
HETATM    5  N   UNK N   1      33.242  16.766   9.437  0.00  0.00    -0.316 N 
HETATM    6  C   UNK N   1      33.582  17.576   6.832  0.00  0.00     0.289 A 
HETATM    7  C   UNK N   1      34.406  17.377   9.050  0.00  0.00     0.327 A 
HETATM    8  C   UNK N   1      32.395  16.954   7.220  0.00  0.00     0.199 A 
HETATM    9  C   UNK N   1      32.243  16.551   8.544  0.00  0.00     0.140 A 
HETATM   10  H   UNK N   1      35.411  18.218   7.480  0.00  0.00     0.173 HD
HETATM   11  H   UNK N   1      33.129  16.478  10.373  0.00  0.00     0.170 HD
ENDROOT
TORSDOF 0
ENDMDL
MODEL 9
REMARK VINA RESULT:      -4.0     21.557     21.871
REMARK  0 active torsions:
REMARK  status: ('A' for Active; 'I' for Inactive)
ROOT
HETATM    1  F   UNK N   1      40.119  20.512   1.816  0.00  0.00    -0.199 F 
HETATM    2  O   UNK N   1      42.039  19.700   3.545  0.00  0.00    -0.265 OA
HETATM    3  O   UNK N   1      43.973  23.736   3.569  0.00  0.00    -0.247 OA
HETATM    4  N   UNK N   1      43.051  21.696   3.599  0.00  0.00    -0.273 N 
HETATM    5  N   UNK N   1      42.149  23.463   2.296  0.00  0.00    -0.316 N 
HETATM    6  C   UNK N   1      42.067  20.853   3.158  0.00  0.00     0.289 A 
HETATM    7  C   UNK N   1      43.094  22.995   3.171  0.00  0.00     0.327 A 
HETATM    8  C   UNK N   1      41.102  21.324   2.267  0.00  0.00     0.199 A 
HETATM    9  C   UNK N   1      41.162  22.649   1.843  0.00  0.00     0.140 A 
HETATM   10  H   UNK N   1      43.732  21.365   4.228  0.00  0.00     0.173 HD
HETATM   11  H   UNK N   1      42.186  24.400   1.993  0.00  0.00     0.170 HD
ENDROOT
TORSDOF 0
ENDMDL
