MODEL 1
REMARK VINA RESULT:      -5.0      0.000      0.000
REMARK  2 active torsions:
REMARK  status: ('A' for Active; 'I' for Inactive)
REMARK    1  A    between atoms: O_1  and  C_5 
REMARK    2  A    between atoms: O_1  and  C_11 
REMARK       I    between atoms: N_4  and  C_11 
ROOT
HETATM    1  N   UNK N   1      23.307  12.704  10.392  0.00  0.00    -0.368 N 
HETATM    2  C   UNK N   1      21.081  13.308   9.724  0.00  0.00     0.096 A 
HETATM    3  C   UNK N   1      22.466  13.323   9.515  0.00  0.00     0.127 A 
HETATM    4  C   UNK N   1      22.830  12.055  11.489  0.00  0.00     0.090 A 
HETATM    5  C   UNK N   1      20.587  12.637  10.854  0.00  0.00     0.040 A 
HETATM    6  C   UNK N   1      21.461  12.009  11.739  0.00  0.00     0.020 A 
HETATM    7  C   UNK N   1      24.738  12.738  10.159  0.00  0.00     0.154 C 
ENDROOT
BRANCH   2   8
HETATM    8  O   UNK N   1      20.262  13.940   8.835  0.00  0.00    -0.260 OA
BRANCH   8   9
HETATM    9  C   UNK N   1      19.694  15.178   8.979  0.00  0.00     0.367 C 
HETATM   10  O   UNK N   1      18.713  15.332   9.696  0.00  0.00    -0.238 OA
HETATM   11  N   UNK N   1      20.222  16.250   8.327  0.00  0.00    -0.336 N 
HETATM   12  C   UNK N   1      19.638  17.561   8.473  0.00  0.00     0.154 C 
HETATM   13  C   UNK N   1      21.376  16.101   7.479  0.00  0.00     0.154 C 
ENDBRANCH   8   9
ENDBRANCH   2   8
TORSDOF 2
ENDMDL
MODEL 2
REMARK VINA RESULT:      -4.9     11.234     13.467
REMARK  2 active torsions:
REMARK  status: ('A' for Active; 'I' for Inactive)
REMARK    1  A    between atoms: O_1  and  C_5 
REMARK    2  A    between atoms: O_1  and  C_11 
REMARK       I    between atoms: N_4  and  C_11 
ROOT
HETATM    1  N   UNK N   1      30.850  17.165   5.977  0.00  0.00    -0.368 N 
HETATM    2  C   UNK N   1      33.230  17.465   5.862  0.00  0.00     0.096 A 
HETATM    3  C   UNK N   1      32.055  17.284   6.604  0.00  0.00     0.127 A 
HETATM    4  C   UNK N   1      30.752  17.216   4.621  0.00  0.00     0.090 A 
HETATM    5  C   UNK N   1      33.130  17.515   4.463  0.00  0.00     0.040 A 
HETATM    6  C   UNK N   1      31.891  17.390   3.839  0.00  0.00     0.020 A 
HETATM    7  C   UNK N   1      29.646  16.985   6.765  0.00  0.00     0.154 C 
ENDROOT
BRANCH   2   8
HETATM    8  O   UNK N   1      34.422  17.587   6.514  0.00  0.00    -0.260 OA
BRANCH   8   9
HETATM    9  C   UNK N   1      34.606  17.767   7.860  0.00  0.00     0.367 C 
HETATM   10  O   UNK N   1      34.555  18.888   8.350  0.00  0.00    -0.238 OA
HETATM   11  N   UNK N   1      34.843  16.694   8.664  0.00  0.00    -0.336 N 
HETATM   12  C   UNK N   1      35.034  16.867  10.084  0.00  0.00     0.154 C 
HETATM   13  C   UNK N   1      34.906  15.364   8.117  0.00  0.00     0.154 C 
ENDBRANCH   8   9
ENDBRANCH   2   8
TORSDOF 2
ENDMDL
MODEL 3
REMARK VINA RESULT:      -4.6     14.585     15.833
REMARK  2 active torsions:
REMARK  status: ('A' for Active; 'I' for Inactive)
REMARK    1  A    between atoms: O_1  and  C_5 
REMARK    2  A    between atoms: O_1  and  C_11 
REMARK       I    between atoms: N_4  and  C_11 
ROOT
HETATM    1  N   UNK N   1      35.261  10.875  17.836  0.00  0.00    -0.368 N 
HETATM    2  C   UNK N   1      34.953  12.783  16.409  0.00  0.00     0.096 A 
HETATM    3  C   UNK N   1      35.073  11.399  16.590  0.00  0.00     0.127 A 
HETATM    4  C   UNK N   1      35.335  11.676  18.934  0.00  0.00     0.090 A 
HETATM    5  C   UNK N   1      35.027  13.609  17.541  0.00  0.00     0.040 A 
HETATM    6  C   UNK N   1      35.217  13.058  18.806  0.00  0.00     0.020 A 
HETATM    7  C   UNK N   1      35.389   9.440  17.999  0.00  0.00     0.154 C 
ENDROOT
BRANCH   2   8
HETATM    8  O   UNK N   1      34.771  13.281  15.152  0.00  0.00    -0.260 OA
BRANCH   8   9
HETATM    9  C   UNK N   1      35.747  13.566  14.234  0.00  0.00     0.367 C 
HETATM   10  O   UNK N   1      36.568  14.448  14.452  0.00  0.00    -0.238 OA
HETATM   11  N   UNK N   1      35.813  12.862  13.070  0.00  0.00    -0.336 N 
HETATM   12  C   UNK N   1      36.838  13.147  12.095  0.00  0.00     0.154 C 
HETATM   13  C   UNK N   1      34.864  11.817  12.786  0.00  0.00     0.154 C 
ENDBRANCH   8   9
ENDBRANCH   2   8
TORSDOF 2
ENDMDL
MODEL 4
REMARK VINA RESULT:      -4.5      1.282      1.653
REMARK  2 active torsions:
REMARK  status: ('A' for Active; 'I' for Inactive)
REMARK    1  A    between atoms: O_1  and  C_5 
REMARK    2  A    between atoms: O_1  and  C_11 
REMARK       I    between atoms: N_4  and  C_11 
ROOT
HETATM    1  N   UNK N   1      23.243  12.597  10.468  0.00  0.00    -0.368 N 
HETATM    2  C   UNK N   1      21.449  13.937   9.601  0.00  0.00     0.096 A 
HETATM    3  C   UNK N   1      22.805  13.590   9.642  0.00  0.00     0.127 A 
HETATM    4  C   UNK N   1      22.381  11.915  11.270  0.00  0.00     0.090 A 
HETATM    5  C   UNK N   1      20.558  13.234  10.427  0.00  0.00     0.040 A 
HETATM    6  C   UNK N   1      21.022  12.221  11.263  0.00  0.00     0.020 A 
HETATM    7  C   UNK N   1      24.653  12.258  10.499  0.00  0.00     0.154 C 
ENDROOT
BRANCH   2   8
HETATM    8  O   UNK N   1      21.038  14.939   8.771  0.00  0.00    -0.260 OA
BRANCH   8   9
HETATM    9  C   UNK N   1      20.485  14.797   7.526  0.00  0.00     0.367 C 
HETATM   10  O   UNK N   1      20.204  13.686   7.093  0.00  0.00    -0.238 OA
HETATM   11  N   UNK N   1      20.237  15.896   6.761  0.00  0.00    -0.336 N 
HETATM   12  C   UNK N   1      19.649  15.763   5.450  0.00  0.00     0.154 C 
HETATM   13  C   UNK N   1      20.553  17.215   7.244  0.00  0.00     0.154 C 
ENDBRANCH   8   9
ENDBRANCH   2   8
TORSDOF 2
ENDMDL
MODEL 5
REMARK VINA RESULT:      -4.5     12.774     14.581
REMARK  2 active torsions:
REMARK  status: ('A' for Active; 'I' for Inactive)
REMARK    1  A    between atoms: O_1  and  C_5 
REMARK    2  A    between atoms: O_1  and  C_11 
REMARK       I    between atoms: N_4  and  C_11 
ROOT
HETATM    1  N   UNK N   1      36.594  13.460  13.325  0.00  0.00    -0.368 N 
HETATM    2  C   UNK N   1      35.528  14.618  11.512  0.00  0.00     0.096 A 
HETATM    3  C   UNK N   1      35.746  14.432  12.884  0.00  0.00     0.127 A 
HETATM    4  C   UNK N   1      37.252  12.647  12.453  0.00  0.00     0.090 A 
HETATM    5  C   UNK N   1      36.208  13.783  10.612  0.00  0.00     0.040 A 
HETATM    6  C   UNK N   1      37.071  12.796  11.080  0.00  0.00     0.020 A 
HETATM    7  C   UNK N   1      36.800  13.280  14.749  0.00  0.00     0.154 C 
ENDROOT
BRANCH   2   8
HETATM    8  O   UNK N   1      34.670  15.595  11.097  0.00  0.00    -0.260 OA
BRANCH   8   9
HETATM    9  C   UNK N   1      34.961  16.642  10.264  0.00  0.00     0.367 C 
HETATM   10  O   UNK N   1      35.908  17.382  10.502  0.00  0.00    -0.238 OA
HETATM   11  N   UNK N   1      34.199  16.865   9.158  0.00  0.00    -0.336 N 
HETATM   12  C   UNK N   1      34.496  17.962   8.269  0.00  0.00     0.154 C 
HETATM   13  C   UNK N   1      33.081  16.012   8.850  0.00  0.00     0.154 C 
ENDBRANCH   8   9
ENDBRANCH   2   8
TORSDOF 2
ENDMDL
MODEL 6
REMARK VINA RESULT:      -4.3     17.455     18.928
REMARK  2 active torsions:
REMARK  status: ('A' for Active; 'I' for Inactive)
REMARK    1  A    between atoms: O_1  and  C_5 
REMARK    2  A    between atoms: O_1  and  C_11 
REMARK       I    between atoms: N_4  and  C_11 
ROOT
HETATM    1  N   UNK N   1      28.836  26.105  -4.431  0.00  0.00    -0.368 N 
HETATM    2  C   UNK N   1      28.352  23.996  -3.390  0.00  0.00     0.096 A 
HETATM    3  C   UNK N   1      29.267  24.966  -3.817  0.00  0.00     0.127 A 
HETATM    4  C   UNK N   1      27.511  26.333  -4.644  0.00  0.00     0.090 A 
HETATM    5  C   UNK N   1      26.985  24.231  -3.607  0.00  0.00     0.040 A 
HETATM    6  C   UNK N   1      26.562  25.400  -4.234  0.00  0.00     0.020 A 
HETATM    7  C   UNK N   1      29.801  27.093  -4.871  0.00  0.00     0.154 C 
ENDROOT
BRANCH   2   8
HETATM    8  O   UNK N   1      28.810  22.863  -2.783  0.00  0.00    -0.260 OA
BRANCH   8   9
HETATM    9  C   UNK N   1      30.103  22.593  -2.419  0.00  0.00     0.367 C 
HETATM   10  O   UNK N   1      30.539  22.980  -1.342  0.00  0.00    -0.238 OA
HETATM   11  N   UNK N   1      30.913  21.887  -3.255  0.00  0.00    -0.336 N 
HETATM   12  C   UNK N   1      32.276  21.591  -2.883  0.00  0.00     0.154 C 
HETATM   13  C   UNK N   1      30.429  21.417  -4.527  0.00  0.00     0.154 C 
ENDBRANCH   8   9
ENDBRANCH   2   8
TORSDOF 2
ENDMDL
MODEL 7
REMARK VINA RESULT:      -4.3      8.787     10.316
REMARK  2 active torsions:
REMARK  status: ('A' for Active; 'I' for Inactive)
REMARK    1  A    between atoms: O_1  and  C_5 
REMARK    2  A    between atoms: O_1  and  C_11 
REMARK       I    between atoms: N_4  and  C_11 
ROOT
HETATM    1  N   UNK N   1      26.235  19.183   4.570  0.00  0.00    -0.368 N 
HETATM    2  C   UNK N   1      27.635  18.823   6.487  0.00  0.00     0.096 A 
HETATM    3  C   UNK N   1      26.905  18.330   5.397  0.00  0.00     0.127 A 
HETATM    4  C   UNK N   1      26.258  20.528   4.773  0.00  0.00     0.090 A 
HETATM    5  C   UNK N   1      27.662  20.210   6.696  0.00  0.00     0.040 A 
HETATM    6  C   UNK N   1      26.974  21.066   5.840  0.00  0.00     0.020 A 
HETATM    7  C   UNK N   1      25.479  18.651   3.452  0.00  0.00     0.154 C 
ENDROOT
BRANCH   2   8
HETATM    8  O   UNK N   1      28.292  17.948   7.303  0.00  0.00    -0.260 OA
BRANCH   8   9
HETATM    9  C   UNK N   1      29.633  17.675   7.302  0.00  0.00     0.367 C 
HETATM   10  O   UNK N   1      30.165  17.170   6.321  0.00  0.00    -0.238 OA
HETATM   11  N   UNK N   1      30.389  17.969   8.396  0.00  0.00    -0.336 N 
HETATM   12  C   UNK N   1      31.805  17.691   8.409  0.00  0.00     0.154 C 
HETATM   13  C   UNK N   1      29.794  18.564   9.564  0.00  0.00     0.154 C 
ENDBRANCH   8   9
ENDBRANCH   2   8
TORSDOF 2
ENDMDL
MODEL 8
REMARK VINA RESULT:      -4.3     10.140     12.458
REMARK  2 active torsions:
REMARK  status: ('A' for Active; 'I' for Inactive)
REMARK    1  A    between atoms: O_1  and  C_5 
REMARK    2  A    between atoms: O_1  and  C_11 
REMARK       I    between atoms: N_4  and  C_11 
ROOT
HETATM    1  N   UNK N   1      29.939  17.519   8.495  0.00  0.00    -0.368 N 
HETATM    2  C   UNK N   1      32.044  17.004   7.460  0.00  0.00     0.096 A 
HETATM    3  C   UNK N   1      31.272  17.250   8.603  0.00  0.00     0.127 A 
HETATM    4  C   UNK N   1      29.322  17.554   7.283  0.00  0.00     0.090 A 
HETATM    5  C   UNK N   1      31.408  17.038   6.209  0.00  0.00     0.040 A 
HETATM    6  C   UNK N   1      30.046  17.312   6.118  0.00  0.00     0.020 A 
HETATM    7  C   UNK N   1      29.160  17.777   9.691  0.00  0.00     0.154 C 
ENDROOT
BRANCH   2   8
HETATM    8  O   UNK N   1      33.377  16.743   7.595  0.00  0.00    -0.260 OA
BRANCH   8   9
HETATM    9  C   UNK N   1      34.193  17.154   8.615  0.00  0.00     0.367 C 
HETATM   10  O   UNK N   1      34.592  18.311   8.666  0.00  0.00    -0.238 OA
HETATM   11  N   UNK N   1      34.562  16.274   9.588  0.00  0.00    -0.336 N 
HETATM   12  C   UNK N   1      35.418  16.693  10.671  0.00  0.00     0.154 C 
HETATM   13  C   UNK N   1      34.107  14.909   9.557  0.00  0.00     0.154 C 
ENDBRANCH   8   9
ENDBRANCH   2   8
TORSDOF 2
ENDMDL
MODEL 9
REMARK VINA RESULT:      -4.1     13.650     14.774
REMARK  2 active torsions:
REMARK  status: ('A' for Active; 'I' for Inactive)
REMARK    1  A    between atoms: O_1  and  C_5 
REMARK    2  A    between atoms: O_1  and  C_11 
REMARK       I    between atoms: N_4  and  C_11 
ROOT
HETATM    1  N   UNK N   1      34.956  11.676  16.339  0.00  0.00    -0.368 N 
HETATM    2  C   UNK N   1      34.667  12.412  14.071  0.00  0.00     0.096 A 
HETATM    3  C   UNK N   1      34.971  12.678  15.413  0.00  0.00     0.127 A 
HETATM    4  C   UNK N   1      34.648  10.397  15.990  0.00  0.00     0.090 A 
HETATM    5  C   UNK N   1      34.352  11.093  13.710  0.00  0.00     0.040 A 
HETATM    6  C   UNK N   1      34.342  10.083  14.668  0.00  0.00     0.020 A 
HETATM    7  C   UNK N   1      35.267  11.975  17.723  0.00  0.00     0.154 C 
ENDROOT
BRANCH   2   8
HETATM    8  O   UNK N   1      34.684  13.433  13.166  0.00  0.00    -0.260 OA
BRANCH   8   9
HETATM    9  C   UNK N   1      35.731  13.800  12.364  0.00  0.00     0.367 C 
HETATM   10  O   UNK N   1      36.872  13.442  12.628  0.00  0.00    -0.238 OA
HETATM   11  N   UNK N   1      35.508  14.566  11.260  0.00  0.00    -0.336 N 
HETATM   12  C   UNK N   1      36.601  14.957  10.403  0.00  0.00     0.154 C 
HETATM   13  C   UNK N   1      34.178  15.001  10.922  0.00  0.00     0.154 C 
ENDBRANCH   8   9
ENDBRANCH   2   8
TORSDOF 2
ENDMDL
