REMARK  3 active torsions:
REMARK  status: ('A' for Active; 'I' for Inactive)
REMARK    1  A    between atoms: N_3  and  C_14 
REMARK    2  A    between atoms: C_11  and  C_14 
REMARK    3  A    between atoms: C_16  and  C_19 
ROOT
HETATM    1 Cl   UNK N   1      -0.445   0.488  -0.093  0.00  0.00    -0.084 Cl
HETATM    2  N   UNK N   1       5.315  -1.230   0.127  0.00  0.00    -0.284 N 
HETATM    3  N   UNK N   1       5.835   1.766  -0.419  0.00  0.00    -0.381 N 
ATOM      4  HN  UNK N   1       6.390   2.601  -0.234  1.00  0.00     0.160 HD
HETATM    5  N   UNK N   1       7.073  -2.540   0.530  0.00  0.00    -0.286 N 
ATOM      6  HN  UNK N   1       7.634  -3.342   0.818  1.00  0.00     0.188 HD
HETATM    7  N   UNK N   1       7.528  -1.387   0.073  0.00  0.00    -0.286 N 
ATOM      8  HN  UNK N   1       8.507  -1.137  -0.068  1.00  0.00     0.188 HD
HETATM    9  C   UNK N   1       3.958  -0.735  -0.008  0.00  0.00     0.055 A 
HETATM   10  C   UNK N   1       5.731  -2.457   0.545  0.00  0.00     0.133 A 
HETATM   11  C   UNK N   1       6.460  -0.605  -0.173  0.00  0.00     0.122 A 
HETATM   12  C   UNK N   1       3.609   0.664  -0.139  0.00  0.00     0.020 A 
HETATM   13  C   UNK N   1       6.557   0.643  -0.935  0.00  0.00     0.198 C 
HETATM   14  C   UNK N   1       4.572   1.862  -0.154  0.00  0.00     0.051 C 
HETATM   15  C   UNK N   1       2.918  -1.678   0.090  0.00  0.00     0.033 A 
HETATM   16  C   UNK N   1       2.234   0.970  -0.166  0.00  0.00     0.040 A 
HETATM   17  C   UNK N   1       1.579  -1.320   0.052  0.00  0.00     0.026 A 
HETATM   18  C   UNK N   1       1.237   0.010  -0.077  0.00  0.00     0.035 A 
ENDROOT
BRANCH  14  19
HETATM   19  C   UNK N   1       4.079   3.286   0.038  0.00  0.00    -0.009 A 
HETATM   20  C   UNK N   1       2.729   3.615   0.261  0.00  0.00     0.014 A 
HETATM   21  C   UNK N   1       2.310   4.945   0.351  0.00  0.00     0.001 A 
HETATM   22  C   UNK N   1       3.237   5.978   0.219  0.00  0.00     0.000 A 
HETATM   23  C   UNK N   1       4.583   5.679   0.007  0.00  0.00     0.001 A 
HETATM   24  C   UNK N   1       4.999   4.347  -0.085  0.00  0.00     0.014 A 
ENDBRANCH  14  19
BRANCH  10  25
HETATM   25  C   UNK N   1       4.862  -3.624   0.902  0.00  0.00     0.349 C 
BRANCH  25  26
HETATM   26  N   UNK N   1       4.458  -4.317  -0.318  0.00  0.00     0.087 N 
HETATM   27  C   UNK N   1       3.154  -4.910  -0.086  0.00  0.00     0.309 C 
HETATM   28  C   UNK N   1       5.386  -5.412  -0.542  0.00  0.00     0.309 C 
ENDBRANCH  25  26
ENDBRANCH  10  25
TORSDOF 3
