MODEL 1
REMARK VINA RESULT:      -7.5      0.000      0.000
REMARK  3 active torsions:
REMARK  status: ('A' for Active; 'I' for Inactive)
REMARK    1  A    between atoms: N_3  and  C_14 
REMARK    2  A    between atoms: C_11  and  C_14 
REMARK    3  A    between atoms: C_16  and  C_19 
ROOT
HETATM    1 Cl   UNK N   1      32.076  15.184   3.328  0.00  0.00    -0.084 Cl
HETATM    2  N   UNK N   1      28.245  18.718   6.332  0.00  0.00    -0.284 N 
HETATM    3  N   UNK N   1      29.998  17.921   8.748  0.00  0.00    -0.381 N 
ATOM      4  HN  UNK N   1      30.459  18.192   9.616  1.00  0.00     0.160 HD
HETATM    5  N   UNK N   1      26.646  20.236   6.655  0.00  0.00    -0.286 N 
ATOM      6  HN  UNK N   1      25.922  20.931   6.471  1.00  0.00     0.188 HD
HETATM    7  N   UNK N   1      27.086  19.857   7.842  0.00  0.00    -0.286 N 
ATOM      8  HN  UNK N   1      26.758  20.199   8.746  1.00  0.00     0.188 HD
HETATM    9  C   UNK N   1      29.176  17.797   5.705  0.00  0.00     0.055 A 
HETATM   10  C   UNK N   1      27.331  19.532   5.737  0.00  0.00     0.133 A 
HETATM   11  C   UNK N   1      28.047  18.937   7.637  0.00  0.00     0.122 A 
HETATM   12  C   UNK N   1      30.325  17.220   6.371  0.00  0.00     0.020 A 
HETATM   13  C   UNK N   1      28.579  18.100   8.716  0.00  0.00     0.198 C 
HETATM   14  C   UNK N   1      30.776  17.464   7.820  0.00  0.00     0.051 C 
HETATM   15  C   UNK N   1      28.992  17.531   4.336  0.00  0.00     0.033 A 
HETATM   16  C   UNK N   1      31.173  16.419   5.581  0.00  0.00     0.040 A 
HETATM   17  C   UNK N   1      29.857  16.728   3.608  0.00  0.00     0.026 A 
HETATM   18  C   UNK N   1      30.952  16.171   4.235  0.00  0.00     0.035 A 
ENDROOT
BRANCH  14  19
HETATM   19  C   UNK N   1      32.163  17.074   8.301  0.00  0.00    -0.009 A 
HETATM   20  C   UNK N   1      32.445  15.857   8.950  0.00  0.00     0.014 A 
HETATM   21  C   UNK N   1      33.720  15.576   9.448  0.00  0.00     0.001 A 
HETATM   22  C   UNK N   1      34.744  16.512   9.307  0.00  0.00     0.000 A 
HETATM   23  C   UNK N   1      34.494  17.722   8.660  0.00  0.00     0.001 A 
HETATM   24  C   UNK N   1      33.216  18.001   8.165  0.00  0.00     0.014 A 
ENDBRANCH  14  19
BRANCH  10  25
HETATM   25  C   UNK N   1      27.022  19.615   4.273  0.00  0.00     0.349 C 
BRANCH  25  26
HETATM   26  N   UNK N   1      25.584  19.466   4.073  0.00  0.00     0.087 N 
HETATM   27  C   UNK N   1      25.308  18.062   3.830  0.00  0.00     0.309 C 
HETATM   28  C   UNK N   1      25.221  20.184   2.863  0.00  0.00     0.309 C 
ENDBRANCH  25  26
ENDBRANCH  10  25
TORSDOF 3
ENDMDL
MODEL 2
REMARK VINA RESULT:      -7.2      3.144      7.460
REMARK  3 active torsions:
REMARK  status: ('A' for Active; 'I' for Inactive)
REMARK    1  A    between atoms: N_3  and  C_14 
REMARK    2  A    between atoms: C_11  and  C_14 
REMARK    3  A    between atoms: C_16  and  C_19 
ROOT
HETATM    1 Cl   UNK N   1      28.197  18.133   9.336  0.00  0.00    -0.084 Cl
HETATM    2  N   UNK N   1      31.723  16.533   4.733  0.00  0.00    -0.284 N 
HETATM    3  N   UNK N   1      29.157  17.031   3.087  0.00  0.00    -0.381 N 
ATOM      4  HN  UNK N   1      28.723  17.393   2.238  1.00  0.00     0.160 HD
HETATM    5  N   UNK N   1      33.600  16.061   3.626  0.00  0.00    -0.286 N 
ATOM      6  HN  UNK N   1      34.588  15.915   3.419  1.00  0.00     0.188 HD
HETATM    7  N   UNK N   1      32.597  15.977   2.770  0.00  0.00    -0.286 N 
ATOM      8  HN  UNK N   1      32.667  15.742   1.780  1.00  0.00     0.188 HD
HETATM    9  C   UNK N   1      30.782  16.867   5.785  0.00  0.00     0.055 A 
HETATM   10  C   UNK N   1      33.073  16.378   4.822  0.00  0.00     0.133 A 
HETATM   11  C   UNK N   1      31.468  16.257   3.448  0.00  0.00     0.122 A 
HETATM   12  C   UNK N   1      29.431  17.333   5.553  0.00  0.00     0.020 A 
HETATM   13  C   UNK N   1      30.135  16.004   2.896  0.00  0.00     0.198 C 
HETATM   14  C   UNK N   1      28.750  17.563   4.194  0.00  0.00     0.051 C 
HETATM   15  C   UNK N   1      31.256  16.822   7.109  0.00  0.00     0.033 A 
HETATM   16  C   UNK N   1      28.687  17.700   6.692  0.00  0.00     0.040 A 
HETATM   17  C   UNK N   1      30.477  17.190   8.195  0.00  0.00     0.026 A 
HETATM   18  C   UNK N   1      29.187  17.631   7.984  0.00  0.00     0.035 A 
ENDROOT
BRANCH  14  19
HETATM   19  C   UNK N   1      27.463  18.360   4.071  0.00  0.00    -0.009 A 
HETATM   20  C   UNK N   1      26.191  17.766   3.964  0.00  0.00     0.014 A 
HETATM   21  C   UNK N   1      25.042  18.538   3.770  0.00  0.00     0.001 A 
HETATM   22  C   UNK N   1      25.142  19.925   3.678  0.00  0.00     0.000 A 
HETATM   23  C   UNK N   1      26.389  20.540   3.791  0.00  0.00     0.001 A 
HETATM   24  C   UNK N   1      27.538  19.765   3.982  0.00  0.00     0.014 A 
ENDBRANCH  14  19
BRANCH  10  25
HETATM   25  C   UNK N   1      33.902  16.450   6.068  0.00  0.00     0.349 C 
BRANCH  25  26
HETATM   26  N   UNK N   1      34.312  15.103   6.455  0.00  0.00     0.087 N 
HETATM   27  C   UNK N   1      34.198  14.997   7.897  0.00  0.00     0.309 C 
HETATM   28  C   UNK N   1      35.720  14.950   6.130  0.00  0.00     0.309 C 
ENDBRANCH  25  26
ENDBRANCH  10  25
TORSDOF 3
ENDMDL
MODEL 3
REMARK VINA RESULT:      -6.9      5.511      8.345
REMARK  3 active torsions:
REMARK  status: ('A' for Active; 'I' for Inactive)
REMARK    1  A    between atoms: N_3  and  C_14 
REMARK    2  A    between atoms: C_11  and  C_14 
REMARK    3  A    between atoms: C_16  and  C_19 
ROOT
HETATM    1 Cl   UNK N   1      24.736  14.889   6.854  0.00  0.00    -0.084 Cl
HETATM    2  N   UNK N   1      21.127  17.577   2.864  0.00  0.00    -0.284 N 
HETATM    3  N   UNK N   1      23.079  19.938   3.258  0.00  0.00    -0.381 N 
ATOM      4  HN  UNK N   1      23.606  20.710   2.849  1.00  0.00     0.160 HD
HETATM    5  N   UNK N   1      19.543  17.778   1.308  0.00  0.00    -0.286 N 
ATOM      6  HN  UNK N   1      18.799  17.541   0.651  1.00  0.00     0.188 HD
HETATM    7  N   UNK N   1      20.082  18.970   1.488  0.00  0.00    -0.286 N 
ATOM      8  HN  UNK N   1      19.825  19.829   1.002  1.00  0.00     0.188 HD
HETATM    9  C   UNK N   1      22.013  17.035   3.877  0.00  0.00     0.055 A 
HETATM   10  C   UNK N   1      20.158  16.934   2.155  0.00  0.00     0.133 A 
HETATM   11  C   UNK N   1      21.033  18.840   2.433  0.00  0.00     0.122 A 
HETATM   12  C   UNK N   1      23.218  17.690   4.341  0.00  0.00     0.020 A 
HETATM   13  C   UNK N   1      21.660  19.995   3.083  0.00  0.00     0.198 C 
HETATM   14  C   UNK N   1      23.783  19.038   3.864  0.00  0.00     0.051 C 
HETATM   15  C   UNK N   1      21.720  15.748   4.364  0.00  0.00     0.033 A 
HETATM   16  C   UNK N   1      24.008  16.975   5.263  0.00  0.00     0.040 A 
HETATM   17  C   UNK N   1      22.532  15.093   5.278  0.00  0.00     0.026 A 
HETATM   18  C   UNK N   1      23.680  15.710   5.728  0.00  0.00     0.035 A 
ENDROOT
BRANCH  14  19
HETATM   19  C   UNK N   1      25.209  19.461   4.174  0.00  0.00    -0.009 A 
HETATM   20  C   UNK N   1      26.341  18.831   3.624  0.00  0.00     0.014 A 
HETATM   21  C   UNK N   1      27.634  19.202   4.000  0.00  0.00     0.001 A 
HETATM   22  C   UNK N   1      27.823  20.215   4.939  0.00  0.00     0.000 A 
HETATM   23  C   UNK N   1      26.718  20.862   5.492  0.00  0.00     0.001 A 
HETATM   24  C   UNK N   1      25.425  20.487   5.115  0.00  0.00     0.014 A 
ENDBRANCH  14  19
BRANCH  10  25
HETATM   25  C   UNK N   1      19.731  15.507   2.313  0.00  0.00     0.349 C 
BRANCH  25  26
HETATM   26  N   UNK N   1      19.871  14.816   1.034  0.00  0.00     0.087 N 
HETATM   27  C   UNK N   1      18.900  13.738   0.998  0.00  0.00     0.309 C 
HETATM   28  C   UNK N   1      21.187  14.201   0.997  0.00  0.00     0.309 C 
ENDBRANCH  25  26
ENDBRANCH  10  25
TORSDOF 3
ENDMDL
MODEL 4
REMARK VINA RESULT:      -6.6      3.623      8.372
REMARK  3 active torsions:
REMARK  status: ('A' for Active; 'I' for Inactive)
REMARK    1  A    between atoms: N_3  and  C_14 
REMARK    2  A    between atoms: C_11  and  C_14 
REMARK    3  A    between atoms: C_16  and  C_19 
ROOT
HETATM    1 Cl   UNK N   1      32.463  11.702   5.411  0.00  0.00    -0.084 Cl
HETATM    2  N   UNK N   1      34.625  15.460   9.581  0.00  0.00    -0.284 N 
HETATM    3  N   UNK N   1      33.165  17.584   7.878  0.00  0.00    -0.381 N 
ATOM      4  HN  UNK N   1      32.599  18.431   7.841  1.00  0.00     0.160 HD
HETATM    5  N   UNK N   1      35.556  16.115  11.497  0.00  0.00    -0.286 N 
ATOM      6  HN  UNK N   1      35.989  16.084  12.421  1.00  0.00     0.188 HD
HETATM    7  N   UNK N   1      35.226  17.200  10.820  0.00  0.00    -0.286 N 
ATOM      8  HN  UNK N   1      35.368  18.165  11.119  1.00  0.00     0.188 HD
HETATM    9  C   UNK N   1      34.117  14.641   8.496  0.00  0.00     0.055 A 
HETATM   10  C   UNK N   1      35.212  15.057  10.741  0.00  0.00     0.133 A 
HETATM   11  C   UNK N   1      34.671  16.795   9.662  0.00  0.00     0.122 A 
HETATM   12  C   UNK N   1      33.222  15.120   7.463  0.00  0.00     0.020 A 
HETATM   13  C   UNK N   1      34.426  17.710   8.544  0.00  0.00     0.198 C 
HETATM   14  C   UNK N   1      32.648  16.538   7.319  0.00  0.00     0.051 C 
HETATM   15  C   UNK N   1      34.448  13.274   8.514  0.00  0.00     0.033 A 
HETATM   16  C   UNK N   1      32.756  14.162   6.541  0.00  0.00     0.040 A 
HETATM   17  C   UNK N   1      33.963  12.376   7.575  0.00  0.00     0.026 A 
HETATM   18  C   UNK N   1      33.114  12.823   6.585  0.00  0.00     0.035 A 
ENDROOT
BRANCH  14  19
HETATM   19  C   UNK N   1      31.473  16.835   6.403  0.00  0.00    -0.009 A 
HETATM   20  C   UNK N   1      31.615  17.170   5.044  0.00  0.00     0.014 A 
HETATM   21  C   UNK N   1      30.510  17.515   4.260  0.00  0.00     0.001 A 
HETATM   22  C   UNK N   1      29.235  17.531   4.823  0.00  0.00     0.000 A 
HETATM   23  C   UNK N   1      29.065  17.193   6.165  0.00  0.00     0.001 A 
HETATM   24  C   UNK N   1      30.173  16.851   6.948  0.00  0.00     0.014 A 
ENDBRANCH  14  19
BRANCH  10  25
HETATM   25  C   UNK N   1      35.538  13.650  11.140  0.00  0.00     0.349 C 
BRANCH  25  26
HETATM   26  N   UNK N   1      36.839  13.624  11.802  0.00  0.00     0.087 N 
HETATM   27  C   UNK N   1      37.771  12.930  10.933  0.00  0.00     0.309 C 
HETATM   28  C   UNK N   1      36.713  12.826  13.010  0.00  0.00     0.309 C 
ENDBRANCH  25  26
ENDBRANCH  10  25
TORSDOF 3
ENDMDL
MODEL 5
REMARK VINA RESULT:      -6.5      5.020      9.677
REMARK  3 active torsions:
REMARK  status: ('A' for Active; 'I' for Inactive)
REMARK    1  A    between atoms: N_3  and  C_14 
REMARK    2  A    between atoms: C_11  and  C_14 
REMARK    3  A    between atoms: C_16  and  C_19 
ROOT
HETATM    1 Cl   UNK N   1      36.353  12.766   5.039  0.00  0.00    -0.084 Cl
HETATM    2  N   UNK N   1      36.427  14.227  10.873  0.00  0.00    -0.284 N 
HETATM    3  N   UNK N   1      34.560  16.503   9.937  0.00  0.00    -0.381 N 
ATOM      4  HN  UNK N   1      33.740  17.083  10.111  1.00  0.00     0.160 HD
HETATM    5  N   UNK N   1      36.786  14.001  13.061  0.00  0.00    -0.286 N 
ATOM      6  HN  UNK N   1      37.067  13.604  13.958  1.00  0.00     0.188 HD
HETATM    7  N   UNK N   1      36.189  15.164  12.870  0.00  0.00    -0.286 N 
ATOM      8  HN  UNK N   1      35.934  15.838  13.592  1.00  0.00     0.188 HD
HETATM    9  C   UNK N   1      36.401  13.991   9.441  0.00  0.00     0.055 A 
HETATM   10  C   UNK N   1      36.951  13.438  11.851  0.00  0.00     0.133 A 
HETATM   11  C   UNK N   1      35.982  15.295  11.546  0.00  0.00     0.122 A 
HETATM   12  C   UNK N   1      35.549  14.703   8.513  0.00  0.00     0.020 A 
HETATM   13  C   UNK N   1      35.586  16.565  10.933  0.00  0.00     0.198 C 
HETATM   14  C   UNK N   1      34.533  15.807   8.847  0.00  0.00     0.051 C 
HETATM   15  C   UNK N   1      37.192  12.936   8.950  0.00  0.00     0.033 A 
HETATM   16  C   UNK N   1      35.588  14.279   7.170  0.00  0.00     0.040 A 
HETATM   17  C   UNK N   1      37.195  12.564   7.614  0.00  0.00     0.026 A 
HETATM   18  C   UNK N   1      36.390  13.240   6.721  0.00  0.00     0.035 A 
ENDROOT
BRANCH  14  19
HETATM   19  C   UNK N   1      33.469  16.242   7.853  0.00  0.00    -0.009 A 
HETATM   20  C   UNK N   1      32.152  15.745   7.860  0.00  0.00     0.014 A 
HETATM   21  C   UNK N   1      31.231  16.113   6.876  0.00  0.00     0.001 A 
HETATM   22  C   UNK N   1      31.610  16.989   5.859  0.00  0.00     0.000 A 
HETATM   23  C   UNK N   1      32.906  17.503   5.834  0.00  0.00     0.001 A 
HETATM   24  C   UNK N   1      33.827  17.131   6.819  0.00  0.00     0.014 A 
ENDBRANCH  14  19
BRANCH  10  25
HETATM   25  C   UNK N   1      37.697  12.153  11.663  0.00  0.00     0.349 C 
BRANCH  25  26
HETATM   26  N   UNK N   1      36.898  11.049  12.186  0.00  0.00     0.087 N 
HETATM   27  C   UNK N   1      37.552  10.550  13.382  0.00  0.00     0.309 C 
HETATM   28  C   UNK N   1      36.924   9.973  11.211  0.00  0.00     0.309 C 
ENDBRANCH  25  26
ENDBRANCH  10  25
TORSDOF 3
ENDMDL
MODEL 6
REMARK VINA RESULT:      -6.5      3.319      5.127
REMARK  3 active torsions:
REMARK  status: ('A' for Active; 'I' for Inactive)
REMARK    1  A    between atoms: N_3  and  C_14 
REMARK    2  A    between atoms: C_11  and  C_14 
REMARK    3  A    between atoms: C_16  and  C_19 
ROOT
HETATM    1 Cl   UNK N   1      27.697  21.302   6.043  0.00  0.00    -0.084 Cl
HETATM    2  N   UNK N   1      26.372  16.118   3.295  0.00  0.00    -0.284 N 
HETATM    3  N   UNK N   1      29.443  15.785   3.270  0.00  0.00    -0.381 N 
ATOM      4  HN  UNK N   1      30.254  15.174   3.374  1.00  0.00     0.160 HD
HETATM    5  N   UNK N   1      25.130  14.416   2.569  0.00  0.00    -0.286 N 
ATOM      6  HN  UNK N   1      24.324  13.816   2.389  1.00  0.00     0.188 HD
HETATM    7  N   UNK N   1      26.383  14.170   2.233  0.00  0.00    -0.286 N 
ATOM      8  HN  UNK N   1      26.725  13.348   1.734  1.00  0.00     0.188 HD
HETATM    9  C   UNK N   1      26.790  17.373   3.890  0.00  0.00     0.055 A 
HETATM   10  C   UNK N   1      25.115  15.606   3.195  0.00  0.00     0.133 A 
HETATM   11  C   UNK N   1      27.125  15.205   2.669  0.00  0.00     0.122 A 
HETATM   12  C   UNK N   1      28.157  17.691   4.248  0.00  0.00     0.020 A 
HETATM   13  C   UNK N   1      28.513  15.412   2.248  0.00  0.00     0.198 C 
HETATM   14  C   UNK N   1      29.392  16.792   4.081  0.00  0.00     0.051 C 
HETATM   15  C   UNK N   1      25.780  18.295   4.222  0.00  0.00     0.033 A 
HETATM   16  C   UNK N   1      28.366  18.921   4.903  0.00  0.00     0.040 A 
HETATM   17  C   UNK N   1      26.045  19.496   4.863  0.00  0.00     0.026 A 
HETATM   18  C   UNK N   1      27.344  19.809   5.204  0.00  0.00     0.035 A 
ENDROOT
BRANCH  14  19
HETATM   19  C   UNK N   1      30.702  17.094   4.789  0.00  0.00    -0.009 A 
HETATM   20  C   UNK N   1      31.855  17.550   4.123  0.00  0.00     0.014 A 
HETATM   21  C   UNK N   1      33.061  17.737   4.803  0.00  0.00     0.001 A 
HETATM   22  C   UNK N   1      33.139  17.469   6.169  0.00  0.00     0.000 A 
HETATM   23  C   UNK N   1      32.009  17.025   6.855  0.00  0.00     0.001 A 
HETATM   24  C   UNK N   1      30.803  16.836   6.171  0.00  0.00     0.014 A 
ENDBRANCH  14  19
BRANCH  10  25
HETATM   25  C   UNK N   1      23.841  16.267   3.625  0.00  0.00     0.349 C 
BRANCH  25  26
HETATM   26  N   UNK N   1      23.206  15.463   4.665  0.00  0.00     0.087 N 
HETATM   27  C   UNK N   1      21.846  15.182   4.246  0.00  0.00     0.309 C 
HETATM   28  C   UNK N   1      23.118  16.273   5.868  0.00  0.00     0.309 C 
ENDBRANCH  25  26
ENDBRANCH  10  25
TORSDOF 3
ENDMDL
MODEL 7
REMARK VINA RESULT:      -6.4      5.175      9.687
REMARK  3 active torsions:
REMARK  status: ('A' for Active; 'I' for Inactive)
REMARK    1  A    between atoms: N_3  and  C_14 
REMARK    2  A    between atoms: C_11  and  C_14 
REMARK    3  A    between atoms: C_16  and  C_19 
ROOT
HETATM    1 Cl   UNK N   1      33.077  11.027   7.103  0.00  0.00    -0.084 Cl
HETATM    2  N   UNK N   1      35.525  13.733  11.884  0.00  0.00    -0.284 N 
HETATM    3  N   UNK N   1      34.806  16.301  10.323  0.00  0.00    -0.381 N 
ATOM      4  HN  UNK N   1      34.458  17.259  10.336  1.00  0.00     0.160 HD
HETATM    5  N   UNK N   1      36.344  13.957  13.945  0.00  0.00    -0.286 N 
ATOM      6  HN  UNK N   1      36.644  13.735  14.894  1.00  0.00     0.188 HD
HETATM    7  N   UNK N   1      36.356  15.150  13.377  0.00  0.00    -0.286 N 
ATOM      8  HN  UNK N   1      36.678  16.019  13.803  1.00  0.00     0.188 HD
HETATM    9  C   UNK N   1      34.977  13.170  10.664  0.00  0.00     0.055 A 
HETATM   10  C   UNK N   1      35.860  13.092  13.037  0.00  0.00     0.133 A 
HETATM   11  C   UNK N   1      35.865  15.004  12.131  0.00  0.00     0.122 A 
HETATM   12  C   UNK N   1      34.347  13.947   9.618  0.00  0.00     0.020 A 
HETATM   13  C   UNK N   1      35.973  16.054  11.115  0.00  0.00     0.198 C 
HETATM   14  C   UNK N   1      34.134  15.469   9.594  0.00  0.00     0.051 C 
HETATM   15  C   UNK N   1      34.981  11.768  10.546  0.00  0.00     0.033 A 
HETATM   16  C   UNK N   1      33.788  13.223   8.546  0.00  0.00     0.040 A 
HETATM   17  C   UNK N   1      34.420  11.107   9.464  0.00  0.00     0.026 A 
HETATM   18  C   UNK N   1      33.821  11.840   8.460  0.00  0.00     0.035 A 
ENDROOT
BRANCH  14  19
HETATM   19  C   UNK N   1      33.177  16.127   8.615  0.00  0.00    -0.009 A 
HETATM   20  C   UNK N   1      31.778  16.101   8.763  0.00  0.00     0.014 A 
HETATM   21  C   UNK N   1      30.934  16.650   7.794  0.00  0.00     0.001 A 
HETATM   22  C   UNK N   1      31.474  17.239   6.652  0.00  0.00     0.000 A 
HETATM   23  C   UNK N   1      32.858  17.287   6.485  0.00  0.00     0.001 A 
HETATM   24  C   UNK N   1      33.701  16.735   7.455  0.00  0.00     0.014 A 
ENDBRANCH  14  19
BRANCH  10  25
HETATM   25  C   UNK N   1      35.804  11.616  13.290  0.00  0.00     0.349 C 
BRANCH  25  26
HETATM   26  N   UNK N   1      35.054  11.364  14.516  0.00  0.00     0.087 N 
HETATM   27  C   UNK N   1      35.823  10.443  15.332  0.00  0.00     0.309 C 
HETATM   28  C   UNK N   1      33.821  10.683  14.158  0.00  0.00     0.309 C 
ENDBRANCH  25  26
ENDBRANCH  10  25
TORSDOF 3
ENDMDL
MODEL 8
REMARK VINA RESULT:      -6.4     13.060     15.293
REMARK  3 active torsions:
REMARK  status: ('A' for Active; 'I' for Inactive)
REMARK    1  A    between atoms: N_3  and  C_14 
REMARK    2  A    between atoms: C_11  and  C_14 
REMARK    3  A    between atoms: C_16  and  C_19 
ROOT
HETATM    1 Cl   UNK N   1      30.725  23.693  -2.933  0.00  0.00    -0.084 Cl
HETATM    2  N   UNK N   1      27.793  21.910  -7.873  0.00  0.00    -0.284 N 
HETATM    3  N   UNK N   1      25.619  23.834  -6.817  0.00  0.00    -0.381 N 
ATOM      4  HN  UNK N   1      24.909  24.539  -7.015  1.00  0.00     0.160 HD
HETATM    5  N   UNK N   1      27.476  20.968  -9.869  0.00  0.00    -0.286 N 
ATOM      6  HN  UNK N   1      27.654  20.470 -10.741  1.00  0.00     0.188 HD
HETATM    7  N   UNK N   1      26.336  21.528  -9.503  0.00  0.00    -0.286 N 
ATOM      8  HN  UNK N   1      25.467  21.533 -10.038  1.00  0.00     0.188 HD
HETATM    9  C   UNK N   1      28.394  22.348  -6.628  0.00  0.00     0.055 A 
HETATM   10  C   UNK N   1      28.356  21.180  -8.874  0.00  0.00     0.133 A 
HETATM   11  C   UNK N   1      26.535  22.089  -8.296  0.00  0.00     0.122 A 
HETATM   12  C   UNK N   1      27.847  23.385  -5.778  0.00  0.00     0.020 A 
HETATM   13  C   UNK N   1      25.432  22.569  -7.459  0.00  0.00     0.198 C 
HETATM   14  C   UNK N   1      26.569  24.203  -6.020  0.00  0.00     0.051 C 
HETATM   15  C   UNK N   1      29.637  21.786  -6.283  0.00  0.00     0.033 A 
HETATM   16  C   UNK N   1      28.614  23.745  -4.652  0.00  0.00     0.040 A 
HETATM   17  C   UNK N   1      30.347  22.177  -5.157  0.00  0.00     0.026 A 
HETATM   18  C   UNK N   1      29.832  23.160  -4.339  0.00  0.00     0.035 A 
ENDROOT
BRANCH  14  19
HETATM   19  C   UNK N   1      26.276  25.476  -5.244  0.00  0.00    -0.009 A 
HETATM   20  C   UNK N   1      26.593  25.643  -3.883  0.00  0.00     0.014 A 
HETATM   21  C   UNK N   1      26.231  26.801  -3.189  0.00  0.00     0.001 A 
HETATM   22  C   UNK N   1      25.541  27.820  -3.845  0.00  0.00     0.000 A 
HETATM   23  C   UNK N   1      25.224  27.683  -5.197  0.00  0.00     0.001 A 
HETATM   24  C   UNK N   1      25.585  26.522  -5.888  0.00  0.00     0.014 A 
ENDBRANCH  14  19
BRANCH  10  25
HETATM   25  C   UNK N   1      29.733  20.589  -8.887  0.00  0.00     0.349 C 
BRANCH  25  26
HETATM   26  N   UNK N   1      29.637  19.144  -9.073  0.00  0.00     0.087 N 
HETATM   27  C   UNK N   1      29.303  18.548  -7.792  0.00  0.00     0.309 C 
HETATM   28  C   UNK N   1      30.953  18.649  -9.438  0.00  0.00     0.309 C 
ENDBRANCH  25  26
ENDBRANCH  10  25
TORSDOF 3
ENDMDL
MODEL 9
REMARK VINA RESULT:      -6.4      6.749      8.720
REMARK  3 active torsions:
REMARK  status: ('A' for Active; 'I' for Inactive)
REMARK    1  A    between atoms: N_3  and  C_14 
REMARK    2  A    between atoms: C_11  and  C_14 
REMARK    3  A    between atoms: C_16  and  C_19 
ROOT
HETATM    1 Cl   UNK N   1      26.800  15.694   6.635  0.00  0.00    -0.084 Cl
HETATM    2  N   UNK N   1      21.037  15.831   4.915  0.00  0.00    -0.284 N 
HETATM    3  N   UNK N   1      20.778  13.495   6.920  0.00  0.00    -0.381 N 
ATOM      4  HN  UNK N   1      20.237  13.028   7.647  1.00  0.00     0.160 HD
HETATM    5  N   UNK N   1      19.175  16.609   3.969  0.00  0.00    -0.286 N 
ATOM      6  HN  UNK N   1      18.531  17.214   3.459  1.00  0.00     0.188 HD
HETATM    7  N   UNK N   1      18.875  15.472   4.570  0.00  0.00    -0.286 N 
ATOM      8  HN  UNK N   1      17.956  15.028   4.601  1.00  0.00     0.188 HD
HETATM    9  C   UNK N   1      22.416  15.680   5.342  0.00  0.00     0.055 A 
HETATM   10  C   UNK N   1      20.489  16.821   4.158  0.00  0.00     0.133 A 
HETATM   11  C   UNK N   1      20.006  15.007   5.133  0.00  0.00     0.122 A 
HETATM   12  C   UNK N   1      22.849  14.795   6.403  0.00  0.00     0.020 A 
HETATM   13  C   UNK N   1      20.122  13.643   5.656  0.00  0.00     0.198 C 
HETATM   14  C   UNK N   1      21.966  13.877   7.263  0.00  0.00     0.051 C 
HETATM   15  C   UNK N   1      23.370  16.522   4.741  0.00  0.00     0.033 A 
HETATM   16  C   UNK N   1      24.215  14.845   6.746  0.00  0.00     0.040 A 
HETATM   17  C   UNK N   1      24.705  16.525   5.116  0.00  0.00     0.026 A 
HETATM   18  C   UNK N   1      25.128  15.682   6.122  0.00  0.00     0.035 A 
ENDROOT
BRANCH  14  19
HETATM   19  C   UNK N   1      22.477  13.253   8.550  0.00  0.00    -0.009 A 
HETATM   20  C   UNK N   1      23.721  12.605   8.656  0.00  0.00     0.014 A 
HETATM   21  C   UNK N   1      24.114  11.975   9.840  0.00  0.00     0.001 A 
HETATM   22  C   UNK N   1      23.266  11.981  10.947  0.00  0.00     0.000 A 
HETATM   23  C   UNK N   1      22.031  12.625  10.871  0.00  0.00     0.001 A 
HETATM   24  C   UNK N   1      21.640  13.252   9.685  0.00  0.00     0.014 A 
ENDBRANCH  14  19
BRANCH  10  25
HETATM   25  C   UNK N   1      21.214  17.967   3.521  0.00  0.00     0.349 C 
BRANCH  25  26
HETATM   26  N   UNK N   1      20.242  18.903   2.962  0.00  0.00     0.087 N 
HETATM   27  C   UNK N   1      20.465  18.979   1.530  0.00  0.00     0.309 C 
HETATM   28  C   UNK N   1      20.523  20.221   3.504  0.00  0.00     0.309 C 
ENDBRANCH  25  26
ENDBRANCH  10  25
TORSDOF 3
ENDMDL
