MODEL 1
REMARK VINA RESULT:      -7.5      0.000      0.000
REMARK  4 active torsions:
REMARK  status: ('A' for Active; 'I' for Inactive)
REMARK    1  A    between atoms: C_14  and  O_2 
REMARK    2  A    between atoms: O_4  and  C_25 
REMARK    3  A    between atoms: C_10  and  C_20 
REMARK    4  A    between atoms: C_20  and  C_25 
ROOT
HETATM    1  F   UNK N   1      37.376  12.659  15.351  0.00  0.00    -0.238 F 
HETATM    2  O   UNK N   1      36.563   8.936  19.241  0.00  0.00    -0.289 OA
HETATM    3  C   UNK N   1      36.123  13.293  12.034  0.00  0.00    -0.027 C 
HETATM    4  C   UNK N   1      37.328  12.422  12.388  0.00  0.00     0.002 C 
HETATM    5  C   UNK N   1      36.955  11.320  13.393  0.00  0.00     0.034 C 
HETATM    6  C   UNK N   1      36.367  11.952  14.706  0.00  0.00     0.147 C 
HETATM    7  C   UNK N   1      36.772  14.171  10.973  0.00  0.00     0.070 C 
HETATM    8  C   UNK N   1      37.859  11.981  11.023  0.00  0.00     0.011 C 
HETATM    9  C   UNK N   1      35.649  14.003  13.299  0.00  0.00     0.045 C 
HETATM   10  C   UNK N   1      37.509  13.153  10.088  0.00  0.00    -0.006 C 
HETATM   11  C   UNK N   1      35.226  12.959  14.348  0.00  0.00     0.160 C 
HETATM   12  C   UNK N   1      35.857  10.789  15.634  0.00  0.00     0.036 C 
HETATM   13  C   UNK N   1      38.168  10.447  13.745  0.00  0.00     0.013 C 
HETATM   14  C   UNK N   1      34.953  12.496  11.421  0.00  0.00     0.016 C 
HETATM   15  C   UNK N   1      37.734   9.272  14.621  0.00  0.00     0.036 C 
HETATM   16  C   UNK N   1      36.976   9.756  15.825  0.00  0.00    -0.061 C 
HETATM   17  C   UNK N   1      38.754  13.762   9.475  0.00  0.00     0.011 C 
HETATM   18  C   UNK N   1      34.698  10.070  14.952  0.00  0.00     0.028 C 
HETATM   19  C   UNK N   1      35.296  11.304  16.954  0.00  0.00    -0.006 C 
HETATM   20  C   UNK N   1      37.227   9.185  17.014  0.00  0.00     0.058 C 
HETATM   21  C   UNK N   1      35.563  10.732  18.135  0.00  0.00     0.052 C 
HETATM   22  C   UNK N   1      36.462   9.575  18.205  0.00  0.00     0.172 C 
ENDROOT
BRANCH   7  23
HETATM   23  C   UNK N   1      35.873  15.160  10.268  0.00  0.00     0.155 C 
HETATM   24  O   UNK N   1      35.531  14.943   9.117  0.00  0.00    -0.295 OA
BRANCH  23  25
HETATM   25  C   UNK N   1      35.352  16.378  10.967  0.00  0.00     0.242 C 
BRANCH  25  26
HETATM   26  O   UNK N   1      35.605  17.515  10.198  0.00  0.00    -0.394 OA
HETATM   27  H   UNK N   1      35.332  18.416   9.965  0.00  0.00     0.209 HD
ENDBRANCH  25  26
ENDBRANCH  23  25
ENDBRANCH   7  23
BRANCH  11  28
HETATM   28  O   UNK N   1      34.760  13.628  15.480  0.00  0.00    -0.392 OA
HETATM   29  H   UNK N   1      35.020  13.414  16.391  0.00  0.00     0.210 HD
ENDBRANCH  11  28
TORSDOF 4
ENDMDL
MODEL 2
REMARK VINA RESULT:      -7.3     20.937     23.419
REMARK  4 active torsions:
REMARK  status: ('A' for Active; 'I' for Inactive)
REMARK    1  A    between atoms: C_14  and  O_2 
REMARK    2  A    between atoms: O_4  and  C_25 
REMARK    3  A    between atoms: C_10  and  C_20 
REMARK    4  A    between atoms: C_20  and  C_25 
ROOT
HETATM    1  F   UNK N   1      30.786  24.144  -5.816  0.00  0.00    -0.238 F 
HETATM    2  O   UNK N   1      33.837  19.637  -5.993  0.00  0.00    -0.289 OA
HETATM    3  C   UNK N   1      27.809  25.223  -4.098  0.00  0.00    -0.027 C 
HETATM    4  C   UNK N   1      27.857  24.501  -5.444  0.00  0.00     0.002 C 
HETATM    5  C   UNK N   1      28.630  23.175  -5.349  0.00  0.00     0.034 C 
HETATM    6  C   UNK N   1      30.096  23.429  -4.842  0.00  0.00     0.147 C 
HETATM    7  C   UNK N   1      26.909  26.387  -4.489  0.00  0.00     0.070 C 
HETATM    8  C   UNK N   1      26.388  24.433  -5.862  0.00  0.00     0.011 C 
HETATM    9  C   UNK N   1      29.234  25.580  -3.688  0.00  0.00     0.045 C 
HETATM   10  C   UNK N   1      25.764  25.697  -5.245  0.00  0.00    -0.006 C 
HETATM   11  C   UNK N   1      30.066  24.294  -3.540  0.00  0.00     0.160 C 
HETATM   12  C   UNK N   1      30.793  22.038  -4.611  0.00  0.00     0.036 C 
HETATM   13  C   UNK N   1      28.675  22.453  -6.702  0.00  0.00     0.013 C 
HETATM   14  C   UNK N   1      27.145  24.389  -2.982  0.00  0.00     0.016 C 
HETATM   15  C   UNK N   1      29.312  21.073  -6.542  0.00  0.00     0.036 C 
HETATM   16  C   UNK N   1      30.655  21.179  -5.876  0.00  0.00    -0.061 C 
HETATM   17  C   UNK N   1      25.187  26.606  -6.313  0.00  0.00     0.011 C 
HETATM   18  C   UNK N   1      30.077  21.296  -3.487  0.00  0.00     0.028 C 
HETATM   19  C   UNK N   1      32.237  22.183  -4.149  0.00  0.00    -0.006 C 
HETATM   20  C   UNK N   1      31.666  20.429  -6.344  0.00  0.00     0.058 C 
HETATM   21  C   UNK N   1      33.238  21.436  -4.631  0.00  0.00     0.052 C 
HETATM   22  C   UNK N   1      32.976  20.446  -5.681  0.00  0.00     0.172 C 
ENDROOT
BRANCH   7  23
HETATM   23  C   UNK N   1      26.518  27.342  -3.384  0.00  0.00     0.155 C 
HETATM   24  O   UNK N   1      25.831  26.938  -2.460  0.00  0.00    -0.295 OA
BRANCH  23  25
HETATM   25  C   UNK N   1      26.993  28.762  -3.374  0.00  0.00     0.242 C 
BRANCH  25  26
HETATM   26  O   UNK N   1      25.938  29.622  -3.680  0.00  0.00    -0.394 OA
HETATM   27  H   UNK N   1      25.343  30.322  -3.369  0.00  0.00     0.209 HD
ENDBRANCH  25  26
ENDBRANCH  23  25
ENDBRANCH   7  23
BRANCH  11  28
HETATM   28  O   UNK N   1      31.354  24.641  -3.126  0.00  0.00    -0.392 OA
HETATM   29  H   UNK N   1      32.169  24.341  -3.561  0.00  0.00     0.210 HD
ENDBRANCH  11  28
TORSDOF 4
ENDMDL
MODEL 3
REMARK VINA RESULT:      -7.2      4.084      8.936
REMARK  4 active torsions:
REMARK  status: ('A' for Active; 'I' for Inactive)
REMARK    1  A    between atoms: C_14  and  O_2 
REMARK    2  A    between atoms: O_4  and  C_25 
REMARK    3  A    between atoms: C_10  and  C_20 
REMARK    4  A    between atoms: C_20  and  C_25 
ROOT
HETATM    1  F   UNK N   1      33.036  14.037   7.719  0.00  0.00    -0.238 F 
HETATM    2  O   UNK N   1      31.733  16.839   3.236  0.00  0.00    -0.289 OA
HETATM    3  C   UNK N   1      35.122  14.550  10.611  0.00  0.00    -0.027 C 
HETATM    4  C   UNK N   1      35.562  13.931   9.285  0.00  0.00     0.002 C 
HETATM    5  C   UNK N   1      35.268  14.864   8.098  0.00  0.00     0.034 C 
HETATM    6  C   UNK N   1      33.733  15.200   8.032  0.00  0.00     0.147 C 
HETATM    7  C   UNK N   1      35.642  13.475  11.555  0.00  0.00     0.070 C 
HETATM    8  C   UNK N   1      37.021  13.551   9.538  0.00  0.00     0.011 C 
HETATM    9  C   UNK N   1      33.609  14.744  10.578  0.00  0.00     0.045 C 
HETATM   10  C   UNK N   1      37.069  13.228  11.042  0.00  0.00    -0.006 C 
HETATM   11  C   UNK N   1      33.236  15.698   9.429  0.00  0.00     0.160 C 
HETATM   12  C   UNK N   1      33.505  16.275   6.907  0.00  0.00     0.036 C 
HETATM   13  C   UNK N   1      35.711  14.239   6.769  0.00  0.00     0.013 C 
HETATM   14  C   UNK N   1      35.808  15.899  10.912  0.00  0.00     0.016 C 
HETATM   15  C   UNK N   1      35.548  15.248   5.632  0.00  0.00     0.036 C 
HETATM   16  C   UNK N   1      34.148  15.793   5.599  0.00  0.00    -0.061 C 
HETATM   17  C   UNK N   1      37.497  11.795  11.285  0.00  0.00     0.011 C 
HETATM   18  C   UNK N   1      34.208  17.571   7.298  0.00  0.00     0.028 C 
HETATM   19  C   UNK N   1      32.036  16.641   6.744  0.00  0.00    -0.006 C 
HETATM   20  C   UNK N   1      33.545  15.944   4.409  0.00  0.00     0.058 C 
HETATM   21  C   UNK N   1      31.444  16.779   5.551  0.00  0.00     0.052 C 
HETATM   22  C   UNK N   1      32.205  16.537   4.321  0.00  0.00     0.172 C 
ENDROOT
BRANCH   7  23
HETATM   23  C   UNK N   1      35.488  13.740  13.035  0.00  0.00     0.155 C 
HETATM   24  O   UNK N   1      34.560  13.228  13.641  0.00  0.00    -0.295 OA
BRANCH  23  25
HETATM   25  C   UNK N   1      36.476  14.578  13.786  0.00  0.00     0.242 C 
BRANCH  25  26
HETATM   26  O   UNK N   1      37.202  13.782  14.672  0.00  0.00    -0.394 OA
HETATM   27  H   UNK N   1      37.318  12.904  15.070  0.00  0.00     0.209 HD
ENDBRANCH  25  26
ENDBRANCH  23  25
ENDBRANCH   7  23
BRANCH  11  28
HETATM   28  O   UNK N   1      31.854  15.893   9.441  0.00  0.00    -0.392 OA
HETATM   29  H   UNK N   1      31.229  15.355   9.953  0.00  0.00     0.210 HD
ENDBRANCH  11  28
TORSDOF 4
ENDMDL
MODEL 4
REMARK VINA RESULT:      -7.2     19.772     22.369
REMARK  4 active torsions:
REMARK  status: ('A' for Active; 'I' for Inactive)
REMARK    1  A    between atoms: C_14  and  O_2 
REMARK    2  A    between atoms: O_4  and  C_25 
REMARK    3  A    between atoms: C_10  and  C_20 
REMARK    4  A    between atoms: C_20  and  C_25 
ROOT
HETATM    1  F   UNK N   1      32.220  22.726  -2.904  0.00  0.00    -0.238 F 
HETATM    2  O   UNK N   1      36.641  19.964  -4.480  0.00  0.00    -0.289 OA
HETATM    3  C   UNK N   1      29.186  23.907  -4.445  0.00  0.00    -0.027 C 
HETATM    4  C   UNK N   1      30.510  24.667  -4.371  0.00  0.00     0.002 C 
HETATM    5  C   UNK N   1      31.668  23.847  -4.965  0.00  0.00     0.034 C 
HETATM    6  C   UNK N   1      31.812  22.475  -4.210  0.00  0.00     0.147 C 
HETATM    7  C   UNK N   1      28.263  24.994  -3.912  0.00  0.00     0.070 C 
HETATM    8  C   UNK N   1      30.186  26.009  -5.029  0.00  0.00     0.011 C 
HETATM    9  C   UNK N   1      29.302  22.645  -3.597  0.00  0.00     0.045 C 
HETATM   10  C   UNK N   1      28.699  26.235  -4.705  0.00  0.00    -0.006 C 
HETATM   11  C   UNK N   1      30.426  21.752  -4.151  0.00  0.00     0.160 C 
HETATM   12  C   UNK N   1      32.898  21.611  -4.949  0.00  0.00     0.036 C 
HETATM   13  C   UNK N   1      32.995  24.613  -4.889  0.00  0.00     0.013 C 
HETATM   14  C   UNK N   1      28.782  23.525  -5.885  0.00  0.00     0.016 C 
HETATM   15  C   UNK N   1      34.092  23.841  -5.622  0.00  0.00     0.036 C 
HETATM   16  C   UNK N   1      34.185  22.431  -5.110  0.00  0.00    -0.061 C 
HETATM   17  C   UNK N   1      28.496  27.501  -3.896  0.00  0.00     0.011 C 
HETATM   18  C   UNK N   1      32.405  21.275  -6.353  0.00  0.00     0.028 C 
HETATM   19  C   UNK N   1      33.133  20.269  -4.268  0.00  0.00    -0.006 C 
HETATM   20  C   UNK N   1      35.402  21.898  -4.916  0.00  0.00     0.058 C 
HETATM   21  C   UNK N   1      34.353  19.752  -4.071  0.00  0.00     0.052 C 
HETATM   22  C   UNK N   1      35.544  20.502  -4.484  0.00  0.00     0.172 C 
ENDROOT
BRANCH   7  23
HETATM   23  C   UNK N   1      26.784  24.680  -3.897  0.00  0.00     0.155 C 
HETATM   24  O   UNK N   1      26.327  23.991  -2.999  0.00  0.00    -0.295 OA
BRANCH  23  25
HETATM   25  C   UNK N   1      25.858  25.236  -4.934  0.00  0.00     0.242 C 
BRANCH  25  26
HETATM   26  O   UNK N   1      25.222  24.196  -5.614  0.00  0.00    -0.394 OA
HETATM   27  H   UNK N   1      24.931  23.271  -5.596  0.00  0.00     0.209 HD
ENDBRANCH  25  26
ENDBRANCH  23  25
ENDBRANCH   7  23
BRANCH  11  28
HETATM   28  O   UNK N   1      30.490  20.587  -3.386  0.00  0.00    -0.392 OA
HETATM   29  H   UNK N   1      30.692  19.706  -3.742  0.00  0.00     0.210 HD
ENDBRANCH  11  28
TORSDOF 4
ENDMDL
MODEL 5
REMARK VINA RESULT:      -7.1      2.494      3.833
REMARK  4 active torsions:
REMARK  status: ('A' for Active; 'I' for Inactive)
REMARK    1  A    between atoms: C_14  and  O_2 
REMARK    2  A    between atoms: O_4  and  C_25 
REMARK    3  A    between atoms: C_10  and  C_20 
REMARK    4  A    between atoms: C_20  and  C_25 
ROOT
HETATM    1  F   UNK N   1      37.738  13.485  11.313  0.00  0.00    -0.238 F 
HETATM    2  O   UNK N   1      38.326   9.503  14.981  0.00  0.00    -0.289 OA
HETATM    3  C   UNK N   1      34.994  15.193   9.724  0.00  0.00    -0.027 C 
HETATM    4  C   UNK N   1      35.669  13.917   9.222  0.00  0.00     0.002 C 
HETATM    5  C   UNK N   1      35.661  12.813  10.293  0.00  0.00     0.034 C 
HETATM    6  C   UNK N   1      36.388  13.308  11.596  0.00  0.00     0.147 C 
HETATM    7  C   UNK N   1      35.057  16.011   8.441  0.00  0.00     0.070 C 
HETATM    8  C   UNK N   1      34.945  13.628   7.906  0.00  0.00     0.011 C 
HETATM    9  C   UNK N   1      35.793  15.732  10.906  0.00  0.00     0.045 C 
HETATM   10  C   UNK N   1      34.558  15.020   7.377  0.00  0.00    -0.006 C 
HETATM   11  C   UNK N   1      35.804  14.690  12.039  0.00  0.00     0.160 C 
HETATM   12  C   UNK N   1      36.217  12.211  12.710  0.00  0.00     0.036 C 
HETATM   13  C   UNK N   1      36.338  11.533   9.786  0.00  0.00     0.013 C 
HETATM   14  C   UNK N   1      33.526  14.981  10.148  0.00  0.00     0.016 C 
HETATM   15  C   UNK N   1      36.179  10.411  10.811  0.00  0.00     0.036 C 
HETATM   16  C   UNK N   1      36.667  10.850  12.163  0.00  0.00    -0.061 C 
HETATM   17  C   UNK N   1      35.196  15.296   6.031  0.00  0.00     0.011 C 
HETATM   18  C   UNK N   1      34.741  12.083  13.070  0.00  0.00     0.028 C 
HETATM   19  C   UNK N   1      36.921  12.588  14.007  0.00  0.00    -0.006 C 
HETATM   20  C   UNK N   1      37.389   9.988  12.896  0.00  0.00     0.058 C 
HETATM   21  C   UNK N   1      37.648  11.722  14.725  0.00  0.00     0.052 C 
HETATM   22  C   UNK N   1      37.828  10.346  14.251  0.00  0.00     0.172 C 
ENDROOT
BRANCH   7  23
HETATM   23  C   UNK N   1      34.395  17.369   8.469  0.00  0.00     0.155 C 
HETATM   24  O   UNK N   1      35.000  18.320   8.937  0.00  0.00    -0.295 OA
BRANCH  23  25
HETATM   25  C   UNK N   1      33.030  17.585   7.893  0.00  0.00     0.242 C 
BRANCH  25  26
HETATM   26  O   UNK N   1      32.123  17.884   8.910  0.00  0.00    -0.394 OA
HETATM   27  H   UNK N   1      31.793  17.665   9.796  0.00  0.00     0.209 HD
ENDBRANCH  25  26
ENDBRANCH  23  25
ENDBRANCH   7  23
BRANCH  11  28
HETATM   28  O   UNK N   1      36.506  15.218  13.124  0.00  0.00    -0.392 OA
HETATM   29  H   UNK N   1      36.139  15.857  13.757  0.00  0.00     0.210 HD
ENDBRANCH  11  28
TORSDOF 4
ENDMDL
MODEL 6
REMARK VINA RESULT:      -7.1      1.943      7.333
REMARK  4 active torsions:
REMARK  status: ('A' for Active; 'I' for Inactive)
REMARK    1  A    between atoms: C_14  and  O_2 
REMARK    2  A    between atoms: O_4  and  C_25 
REMARK    3  A    between atoms: C_10  and  C_20 
REMARK    4  A    between atoms: C_20  and  C_25 
ROOT
HETATM    1  F   UNK N   1      38.268  11.960  14.104  0.00  0.00    -0.238 F 
HETATM    2  O   UNK N   1      38.422  13.443   8.867  0.00  0.00    -0.289 OA
HETATM    3  C   UNK N   1      35.796  10.672  16.387  0.00  0.00    -0.027 C 
HETATM    4  C   UNK N   1      36.089  12.148  16.119  0.00  0.00     0.002 C 
HETATM    5  C   UNK N   1      35.974  12.486  14.623  0.00  0.00     0.034 C 
HETATM    6  C   UNK N   1      36.964  11.599  13.783  0.00  0.00     0.147 C 
HETATM    7  C   UNK N   1      35.871  10.692  17.907  0.00  0.00     0.070 C 
HETATM    8  C   UNK N   1      35.148  12.876  17.080  0.00  0.00     0.011 C 
HETATM    9  C   UNK N   1      36.849   9.831  15.671  0.00  0.00     0.045 C 
HETATM   10  C   UNK N   1      35.021  11.917  18.277  0.00  0.00    -0.006 C 
HETATM   11  C   UNK N   1      36.775  10.092  14.156  0.00  0.00     0.160 C 
HETATM   12  C   UNK N   1      36.699  11.866  12.255  0.00  0.00     0.036 C 
HETATM   13  C   UNK N   1      36.267  13.969  14.358  0.00  0.00     0.013 C 
HETATM   14  C   UNK N   1      34.389  10.236  15.928  0.00  0.00     0.016 C 
HETATM   15  C   UNK N   1      35.996  14.306  12.892  0.00  0.00     0.036 C 
HETATM   16  C   UNK N   1      36.749  13.376  11.982  0.00  0.00    -0.061 C 
HETATM   17  C   UNK N   1      35.517  12.561  19.556  0.00  0.00     0.011 C 
HETATM   18  C   UNK N   1      35.294  11.393  11.896  0.00  0.00     0.028 C 
HETATM   19  C   UNK N   1      37.638  11.072  11.357  0.00  0.00    -0.006 C 
HETATM   20  C   UNK N   1      37.348  13.886  10.895  0.00  0.00     0.058 C 
HETATM   21  C   UNK N   1      38.238  11.595  10.280  0.00  0.00     0.052 C 
HETATM   22  C   UNK N   1      38.035  13.007   9.940  0.00  0.00     0.172 C 
ENDROOT
BRANCH   7  23
HETATM   23  C   UNK N   1      35.546   9.398  18.618  0.00  0.00     0.155 C 
HETATM   24  O   UNK N   1      36.426   8.570  18.786  0.00  0.00    -0.295 OA
BRANCH  23  25
HETATM   25  C   UNK N   1      34.178   9.131  19.165  0.00  0.00     0.242 C 
BRANCH  25  26
HETATM   26  O   UNK N   1      34.170   9.320  20.548  0.00  0.00    -0.394 OA
HETATM   27  H   UNK N   1      33.638   9.472  21.345  0.00  0.00     0.209 HD
ENDBRANCH  25  26
ENDBRANCH  23  25
ENDBRANCH   7  23
BRANCH  11  28
HETATM   28  O   UNK N   1      37.718   9.285  13.517  0.00  0.00    -0.392 OA
HETATM   29  H   UNK N   1      37.564   8.363  13.256  0.00  0.00     0.210 HD
ENDBRANCH  11  28
TORSDOF 4
ENDMDL
MODEL 7
REMARK VINA RESULT:      -7.0     19.398     21.458
REMARK  4 active torsions:
REMARK  status: ('A' for Active; 'I' for Inactive)
REMARK    1  A    between atoms: C_14  and  O_2 
REMARK    2  A    between atoms: O_4  and  C_25 
REMARK    3  A    between atoms: C_10  and  C_20 
REMARK    4  A    between atoms: C_20  and  C_25 
ROOT
HETATM    1  F   UNK N   1      30.740  20.213  -3.819  0.00  0.00    -0.238 F 
HETATM    2  O   UNK N   1      27.172  24.098  -2.467  0.00  0.00    -0.289 OA
HETATM    3  C   UNK N   1      33.998  20.070  -5.349  0.00  0.00    -0.027 C 
HETATM    4  C   UNK N   1      32.658  20.032  -6.083  0.00  0.00     0.002 C 
HETATM    5  C   UNK N   1      31.783  21.246  -5.729  0.00  0.00     0.034 C 
HETATM    6  C   UNK N   1      31.525  21.302  -4.180  0.00  0.00     0.147 C 
HETATM    7  C   UNK N   1      34.648  18.848  -5.983  0.00  0.00     0.070 C 
HETATM    8  C   UNK N   1      33.062  19.857  -7.548  0.00  0.00     0.011 C 
HETATM    9  C   UNK N   1      33.731  19.989  -3.849  0.00  0.00     0.045 C 
HETATM   10  C   UNK N   1      34.373  19.052  -7.481  0.00  0.00    -0.006 C 
HETATM   11  C   UNK N   1      32.882  21.195  -3.410  0.00  0.00     0.160 C 
HETATM   12  C   UNK N   1      30.764  22.638  -3.849  0.00  0.00     0.036 C 
HETATM   13  C   UNK N   1      30.439  21.204  -6.470  0.00  0.00     0.013 C 
HETATM   14  C   UNK N   1      34.827  21.334  -5.657  0.00  0.00     0.016 C 
HETATM   15  C   UNK N   1      29.659  22.495  -6.218  0.00  0.00     0.036 C 
HETATM   16  C   UNK N   1      29.523  22.757  -4.745  0.00  0.00    -0.061 C 
HETATM   17  C   UNK N   1      34.242  17.724  -8.199  0.00  0.00     0.011 C 
HETATM   18  C   UNK N   1      31.664  23.826  -4.174  0.00  0.00     0.028 C 
HETATM   19  C   UNK N   1      30.438  22.768  -2.367  0.00  0.00    -0.006 C 
HETATM   20  C   UNK N   1      28.343  23.196  -4.277  0.00  0.00     0.058 C 
HETATM   21  C   UNK N   1      29.253  23.198  -1.913  0.00  0.00     0.052 C 
HETATM   22  C   UNK N   1      28.182  23.533  -2.857  0.00  0.00     0.172 C 
ENDROOT
BRANCH   7  23
HETATM   23  C   UNK N   1      36.077  18.558  -5.588  0.00  0.00     0.155 C 
HETATM   24  O   UNK N   1      36.929  19.416  -5.750  0.00  0.00    -0.295 OA
BRANCH  23  25
HETATM   25  C   UNK N   1      36.463  17.256  -4.955  0.00  0.00     0.242 C 
BRANCH  25  26
HETATM   26  O   UNK N   1      35.609  16.970  -3.890  0.00  0.00    -0.394 OA
HETATM   27  H   UNK N   1      35.112  16.292  -3.406  0.00  0.00     0.209 HD
ENDBRANCH  25  26
ENDBRANCH  23  25
ENDBRANCH   7  23
BRANCH  11  28
HETATM   28  O   UNK N   1      32.683  21.122  -2.030  0.00  0.00    -0.392 OA
HETATM   29  H   UNK N   1      32.575  21.893  -1.450  0.00  0.00     0.210 HD
ENDBRANCH  11  28
TORSDOF 4
ENDMDL
MODEL 8
REMARK VINA RESULT:      -7.0     23.762     25.713
REMARK  4 active torsions:
REMARK  status: ('A' for Active; 'I' for Inactive)
REMARK    1  A    between atoms: C_14  and  O_2 
REMARK    2  A    between atoms: O_4  and  C_25 
REMARK    3  A    between atoms: C_10  and  C_20 
REMARK    4  A    between atoms: C_20  and  C_25 
ROOT
HETATM    1  F   UNK N   1      27.382  25.144  -4.118  0.00  0.00    -0.238 F 
HETATM    2  O   UNK N   1      27.082  30.353  -2.560  0.00  0.00    -0.289 OA
HETATM    3  C   UNK N   1      27.846  23.362  -7.214  0.00  0.00    -0.027 C 
HETATM    4  C   UNK N   1      26.507  23.807  -6.625  0.00  0.00     0.002 C 
HETATM    5  C   UNK N   1      26.486  25.319  -6.348  0.00  0.00     0.034 C 
HETATM    6  C   UNK N   1      27.644  25.712  -5.360  0.00  0.00     0.147 C 
HETATM    7  C   UNK N   1      27.511  21.900  -7.476  0.00  0.00     0.070 C 
HETATM    8  C   UNK N   1      25.483  23.258  -7.620  0.00  0.00     0.011 C 
HETATM    9  C   UNK N   1      28.941  23.629  -6.185  0.00  0.00     0.045 C 
HETATM   10  C   UNK N   1      26.142  21.980  -8.169  0.00  0.00    -0.006 C 
HETATM   11  C   UNK N   1      29.003  25.135  -5.877  0.00  0.00     0.160 C 
HETATM   12  C   UNK N   1      27.680  27.279  -5.231  0.00  0.00     0.036 C 
HETATM   13  C   UNK N   1      25.140  25.763  -5.758  0.00  0.00     0.013 C 
HETATM   14  C   UNK N   1      28.197  24.073  -8.537  0.00  0.00     0.016 C 
HETATM   15  C   UNK N   1      25.094  27.286  -5.637  0.00  0.00     0.036 C 
HETATM   16  C   UNK N   1      26.280  27.796  -4.869  0.00  0.00    -0.061 C 
HETATM   17  C   UNK N   1      25.304  20.754  -7.867  0.00  0.00     0.011 C 
HETATM   18  C   UNK N   1      28.046  27.889  -6.580  0.00  0.00     0.028 C 
HETATM   19  C   UNK N   1      28.755  27.757  -4.263  0.00  0.00    -0.006 C 
HETATM   20  C   UNK N   1      26.090  28.772  -3.967  0.00  0.00     0.058 C 
HETATM   21  C   UNK N   1      28.549  28.724  -3.360  0.00  0.00     0.052 C 
HETATM   22  C   UNK N   1      27.229  29.351  -3.243  0.00  0.00     0.172 C 
ENDROOT
BRANCH   7  23
HETATM   23  C   UNK N   1      28.574  21.074  -8.164  0.00  0.00     0.155 C 
HETATM   24  O   UNK N   1      28.646  21.086  -9.382  0.00  0.00    -0.295 OA
BRANCH  23  25
HETATM   25  C   UNK N   1      29.572  20.278  -7.381  0.00  0.00     0.242 C 
BRANCH  25  26
HETATM   26  O   UNK N   1      29.336  18.913  -7.553  0.00  0.00    -0.394 OA
HETATM   27  H   UNK N   1      29.459  18.016  -7.204  0.00  0.00     0.209 HD
ENDBRANCH  25  26
ENDBRANCH  23  25
ENDBRANCH   7  23
BRANCH  11  28
HETATM   28  O   UNK N   1      30.035  25.362  -4.965  0.00  0.00    -0.392 OA
HETATM   29  H   UNK N   1      29.902  25.563  -4.025  0.00  0.00     0.210 HD
ENDBRANCH  11  28
TORSDOF 4
ENDMDL
MODEL 9
REMARK VINA RESULT:      -6.9      2.227      3.950
REMARK  4 active torsions:
REMARK  status: ('A' for Active; 'I' for Inactive)
REMARK    1  A    between atoms: C_14  and  O_2 
REMARK    2  A    between atoms: O_4  and  C_25 
REMARK    3  A    between atoms: C_10  and  C_20 
REMARK    4  A    between atoms: C_20  and  C_25 
ROOT
HETATM    1  F   UNK N   1      33.950  10.279  16.224  0.00  0.00    -0.238 F 
HETATM    2  O   UNK N   1      33.754   8.170  21.241  0.00  0.00    -0.289 OA
HETATM    3  C   UNK N   1      36.507  11.487  13.992  0.00  0.00    -0.027 C 
HETATM    4  C   UNK N   1      35.761  12.316  15.037  0.00  0.00     0.002 C 
HETATM    5  C   UNK N   1      35.883  11.701  16.441  0.00  0.00     0.034 C 
HETATM    6  C   UNK N   1      35.322  10.233  16.447  0.00  0.00     0.147 C 
HETATM    7  C   UNK N   1      36.301  12.391  12.785  0.00  0.00     0.070 C 
HETATM    8  C   UNK N   1      36.319  13.726  14.834  0.00  0.00     0.011 C 
HETATM    9  C   UNK N   1      35.861  10.106  13.918  0.00  0.00     0.045 C 
HETATM   10  C   UNK N   1      36.658  13.782  13.333  0.00  0.00    -0.006 C 
HETATM   11  C   UNK N   1      35.972   9.410  15.286  0.00  0.00     0.160 C 
HETATM   12  C   UNK N   1      35.611   9.594  17.855  0.00  0.00     0.036 C 
HETATM   13  C   UNK N   1      35.134  12.538  17.487  0.00  0.00     0.013 C 
HETATM   14  C   UNK N   1      38.012  11.335  14.294  0.00  0.00     0.016 C 
HETATM   15  C   UNK N   1      35.400  11.990  18.889  0.00  0.00     0.036 C 
HETATM   16  C   UNK N   1      35.082  10.523  18.958  0.00  0.00    -0.061 C 
HETATM   17  C   UNK N   1      35.867  14.866  12.629  0.00  0.00     0.011 C 
HETATM   18  C   UNK N   1      37.118   9.475  18.056  0.00  0.00     0.028 C 
HETATM   19  C   UNK N   1      35.072   8.174  17.969  0.00  0.00    -0.006 C 
HETATM   20  C   UNK N   1      34.442  10.054  20.040  0.00  0.00     0.058 C 
HETATM   21  C   UNK N   1      34.425   7.722  19.051  0.00  0.00     0.052 C 
HETATM   22  C   UNK N   1      34.172   8.618  20.184  0.00  0.00     0.172 C 
ENDROOT
BRANCH   7  23
HETATM   23  C   UNK N   1      36.979  11.972  11.500  0.00  0.00     0.155 C 
HETATM   24  O   UNK N   1      36.493  11.073  10.833  0.00  0.00    -0.295 OA
BRANCH  23  25
HETATM   25  C   UNK N   1      38.208  12.669  11.003  0.00  0.00     0.242 C 
BRANCH  25  26
HETATM   26  O   UNK N   1      37.872  13.557   9.980  0.00  0.00    -0.394 OA
HETATM   27  H   UNK N   1      38.089  13.902   9.100  0.00  0.00     0.209 HD
ENDBRANCH  25  26
ENDBRANCH  23  25
ENDBRANCH   7  23
BRANCH  11  28
HETATM   28  O   UNK N   1      35.411   8.136  15.186  0.00  0.00    -0.392 OA
HETATM   29  H   UNK N   1      35.833   7.324  15.509  0.00  0.00     0.210 HD
ENDBRANCH  11  28
TORSDOF 4
ENDMDL
