REMARK  4 active torsions:
REMARK  status: ('A' for Active; 'I' for Inactive)
REMARK    1  A    between atoms: C_14  and  O_2 
REMARK    2  A    between atoms: O_4  and  C_25 
REMARK    3  A    between atoms: C_10  and  C_20 
REMARK    4  A    between atoms: C_20  and  C_25 
ROOT
HETATM    1  F   UNK N   1       4.088  -0.913   1.690  0.00  0.00    -0.238 F 
HETATM    2  O   UNK N   1      -0.328  -3.739   0.219  0.00  0.00    -0.289 OA
HETATM    3  C   UNK N   1       6.799   0.765   0.013  0.00  0.00    -0.027 C 
HETATM    4  C   UNK N   1       6.775  -0.704   0.434  0.00  0.00     0.002 C 
HETATM    5  C   UNK N   1       5.556  -1.440  -0.147  0.00  0.00     0.034 C 
HETATM    6  C   UNK N   1       4.224  -0.745   0.316  0.00  0.00     0.147 C 
HETATM    7  C   UNK N   1       8.135   1.162   0.625  0.00  0.00     0.070 C 
HETATM    8  C   UNK N   1       8.161  -1.210   0.032  0.00  0.00     0.011 C 
HETATM    9  C   UNK N   1       5.564   1.454   0.586  0.00  0.00     0.045 C 
HETATM   10  C   UNK N   1       9.068   0.025   0.180  0.00  0.00    -0.006 C 
HETATM   11  C   UNK N   1       4.295   0.790   0.023  0.00  0.00     0.160 C 
HETATM   12  C   UNK N   1       3.019  -1.432  -0.425  0.00  0.00     0.036 C 
HETATM   13  C   UNK N   1       5.536  -2.915   0.277  0.00  0.00     0.013 C 
HETATM   14  C   UNK N   1       6.835   0.961  -1.517  0.00  0.00     0.016 C 
HETATM   15  C   UNK N   1       4.404  -3.653  -0.437  0.00  0.00     0.036 C 
HETATM   16  C   UNK N   1       3.092  -2.952  -0.224  0.00  0.00    -0.061 C 
HETATM   17  C   UNK N   1      10.164  -0.214   1.199  0.00  0.00     0.011 C 
HETATM   18  C   UNK N   1       3.135  -1.174  -1.924  0.00  0.00     0.028 C 
HETATM   19  C   UNK N   1       1.675  -0.845  -0.014  0.00  0.00    -0.006 C 
HETATM   20  C   UNK N   1       2.001  -3.693   0.026  0.00  0.00     0.058 C 
HETATM   21  C   UNK N   1       0.596  -1.596   0.243  0.00  0.00     0.052 C 
HETATM   22  C   UNK N   1       0.685  -3.058   0.171  0.00  0.00     0.172 C 
ENDROOT
BRANCH   7  23
HETATM   23  C   UNK N   1       8.609   2.573   0.362  0.00  0.00     0.155 C 
HETATM   24  O   UNK N   1       7.928   3.513   0.739  0.00  0.00    -0.295 OA
BRANCH  23  25
HETATM   25  C   UNK N   1       9.920   2.844  -0.309  0.00  0.00     0.242 C 
BRANCH  25  26
HETATM   26  O   UNK N   1       9.720   3.612  -1.457  0.00  0.00    -0.394 OA
HETATM   27  H   UNK N   1      10.113   3.999  -2.255  0.00  0.00     0.209 HD
ENDBRANCH  25  26
ENDBRANCH  23  25
ENDBRANCH   7  23
BRANCH  11  28
HETATM   28  O   UNK N   1       3.179   1.459   0.528  0.00  0.00    -0.392 OA
HETATM   29  H   UNK N   1       3.194   2.364   0.879  0.00  0.00     0.210 HD
ENDBRANCH  11  28
TORSDOF 4
