REMARK  10 active torsions:
REMARK  status: ('A' for Active; 'I' for Inactive)
REMARK    1  A    between atoms: O_1  and  C_12 
REMARK    2  A    between atoms: O_2  and  C_13 
REMARK    3  A    between atoms: C_5  and  C_6 
REMARK    4  A    between atoms: C_5  and  C_7 
REMARK    5  A    between atoms: C_6  and  C_8 
REMARK    6  A    between atoms: C_7  and  C_9 
REMARK    7  A    between atoms: C_8  and  C_10 
REMARK    8  A    between atoms: C_9  and  C_11 
REMARK    9  A    between atoms: C_10  and  C_12 
REMARK   10  A    between atoms: C_11  and  C_13 
ROOT
HETATM    1  C   UNK N   1       5.674   0.611   0.000  0.00  0.00     0.000 C 
ENDROOT
BRANCH   1   2
HETATM    2  C   UNK N   1       4.423   1.447  -0.000  0.00  0.00     0.001 C 
BRANCH   2   3
HETATM    3  C   UNK N   1       3.280   0.463  -0.000  0.00  0.00     0.010 C 
BRANCH   3   4
HETATM    4  C   UNK N   1       1.943   1.172  -0.000  0.00  0.00     0.110 C 
BRANCH   4   5
HETATM    5  C   UNK N   1       0.808   0.191   0.000  0.00  0.00     0.139 C 
HETATM    6  O   UNK N   1       1.017  -1.016  -0.000  0.00  0.00    -0.650 OA
BRANCH   5   7
HETATM    7  O   UNK N   1      -0.457   0.644   0.000  0.00  0.00    -0.776 OA
HETATM    8  H   UNK N   1      -0.624   1.566   0.000  0.00  0.00     0.167 HD
ENDBRANCH   5   7
ENDBRANCH   4   5
ENDBRANCH   3   4
ENDBRANCH   2   3
ENDBRANCH   1   2
BRANCH   1   9
HETATM    9  C   UNK N   1       6.920   1.456   0.000  0.00  0.00     0.001 C 
BRANCH   9  10
HETATM   10  C   UNK N   1       8.067   0.478   0.000  0.00  0.00     0.010 C 
BRANCH  10  11
HETATM   11  C   UNK N   1       9.403   1.188   0.000  0.00  0.00     0.110 C 
BRANCH  11  12
HETATM   12  C   UNK N   1      10.537   0.205  -0.000  0.00  0.00     0.139 C 
HETATM   13  O   UNK N   1      10.326  -1.001   0.000  0.00  0.00    -0.650 OA
BRANCH  12  14
HETATM   14  O   UNK N   1      11.803   0.656  -0.000  0.00  0.00    -0.776 OA
HETATM   15  H   UNK N   1      12.516   0.049  -0.000  0.00  0.00     0.167 HD
ENDBRANCH  12  14
ENDBRANCH  11  12
ENDBRANCH  10  11
ENDBRANCH   9  10
ENDBRANCH   1   9
TORSDOF 10
