MODEL 1
REMARK VINA RESULT:      -4.6      0.000      0.000
REMARK  10 active torsions:
REMARK  status: ('A' for Active; 'I' for Inactive)
REMARK    1  A    between atoms: O_1  and  C_12 
REMARK    2  A    between atoms: O_2  and  C_13 
REMARK    3  A    between atoms: C_5  and  C_6 
REMARK    4  A    between atoms: C_5  and  C_7 
REMARK    5  A    between atoms: C_6  and  C_8 
REMARK    6  A    between atoms: C_7  and  C_9 
REMARK    7  A    between atoms: C_8  and  C_10 
REMARK    8  A    between atoms: C_9  and  C_11 
REMARK    9  A    between atoms: C_10  and  C_12 
REMARK   10  A    between atoms: C_11  and  C_13 
ROOT
HETATM    1  C   UNK N   1      21.884  16.427   3.198  0.00  0.00     0.000 C 
ENDROOT
BRANCH   1   2
HETATM    2  C   UNK N   1      20.733  17.331   3.546  0.00  0.00     0.001 C 
BRANCH   2   3
HETATM    3  C   UNK N   1      21.201  18.726   3.215  0.00  0.00     0.010 C 
BRANCH   3   4
HETATM    4  C   UNK N   1      20.151  19.488   2.435  0.00  0.00     0.110 C 
BRANCH   4   5
HETATM    5  C   UNK N   1      20.780  20.368   1.394  0.00  0.00     0.139 C 
HETATM    6  O   UNK N   1      21.381  21.387   1.709  0.00  0.00    -0.650 OA
BRANCH   5   7
HETATM    7  O   UNK N   1      20.681  20.031   0.097  0.00  0.00    -0.776 OA
HETATM    8  H   UNK N   1      20.905  20.654  -0.566  0.00  0.00     0.167 HD
ENDBRANCH   5   7
ENDBRANCH   4   5
ENDBRANCH   3   4
ENDBRANCH   2   3
ENDBRANCH   1   2
BRANCH   1   9
HETATM    9  C   UNK N   1      21.421  15.065   2.755  0.00  0.00     0.001 C 
BRANCH   9  10
HETATM   10  C   UNK N   1      21.285  15.156   1.257  0.00  0.00     0.010 C 
BRANCH  10  11
HETATM   11  C   UNK N   1      19.835  15.142   0.828  0.00  0.00     0.110 C 
BRANCH  11  12
HETATM   12  C   UNK N   1      19.466  16.416   0.127  0.00  0.00     0.139 C 
HETATM   13  O   UNK N   1      20.327  17.207  -0.237  0.00  0.00    -0.650 OA
BRANCH  12  14
HETATM   14  O   UNK N   1      18.172  16.693  -0.104  0.00  0.00    -0.776 OA
HETATM   15  H   UNK N   1      17.769  16.416  -0.903  0.00  0.00     0.167 HD
ENDBRANCH  12  14
ENDBRANCH  11  12
ENDBRANCH  10  11
ENDBRANCH   9  10
ENDBRANCH   1   9
TORSDOF 10
ENDMDL
MODEL 2
REMARK VINA RESULT:      -4.5      8.706      9.707
REMARK  10 active torsions:
REMARK  status: ('A' for Active; 'I' for Inactive)
REMARK    1  A    between atoms: O_1  and  C_12 
REMARK    2  A    between atoms: O_2  and  C_13 
REMARK    3  A    between atoms: C_5  and  C_6 
REMARK    4  A    between atoms: C_5  and  C_7 
REMARK    5  A    between atoms: C_6  and  C_8 
REMARK    6  A    between atoms: C_7  and  C_9 
REMARK    7  A    between atoms: C_8  and  C_10 
REMARK    8  A    between atoms: C_9  and  C_11 
REMARK    9  A    between atoms: C_10  and  C_12 
REMARK   10  A    between atoms: C_11  and  C_13 
ROOT
HETATM    1  C   UNK N   1      21.177  13.515   8.562  0.00  0.00     0.000 C 
ENDROOT
BRANCH   1   2
HETATM    2  C   UNK N   1      20.983  14.790   7.788  0.00  0.00     0.001 C 
BRANCH   2   3
HETATM    3  C   UNK N   1      20.439  15.787   8.780  0.00  0.00     0.010 C 
BRANCH   3   4
HETATM    4  C   UNK N   1      19.663  16.886   8.088  0.00  0.00     0.110 C 
BRANCH   4   5
HETATM    5  C   UNK N   1      19.286  17.974   9.051  0.00  0.00     0.139 C 
HETATM    6  O   UNK N   1      20.101  18.819   9.399  0.00  0.00    -0.650 OA
BRANCH   5   7
HETATM    7  O   UNK N   1      18.034  18.020   9.538  0.00  0.00    -0.776 OA
HETATM    8  H   UNK N   1      17.880  18.348  10.402  0.00  0.00     0.167 HD
ENDBRANCH   5   7
ENDBRANCH   4   5
ENDBRANCH   3   4
ENDBRANCH   2   3
ENDBRANCH   1   2
BRANCH   1   9
HETATM    9  C   UNK N   1      20.851  13.684  10.022  0.00  0.00     0.001 C 
BRANCH   9  10
HETATM   10  C   UNK N   1      21.389  12.449  10.698  0.00  0.00     0.010 C 
BRANCH  10  11
HETATM   11  C   UNK N   1      22.881  12.306  10.488  0.00  0.00     0.110 C 
BRANCH  11  12
HETATM   12  C   UNK N   1      23.589  12.066  11.790  0.00  0.00     0.139 C 
HETATM   13  O   UNK N   1      22.964  11.789  12.806  0.00  0.00    -0.650 OA
BRANCH  12  14
HETATM   14  O   UNK N   1      24.929  12.157  11.841  0.00  0.00    -0.776 OA
HETATM   15  H   UNK N   1      25.438  11.417  12.104  0.00  0.00     0.167 HD
ENDBRANCH  12  14
ENDBRANCH  11  12
ENDBRANCH  10  11
ENDBRANCH   9  10
ENDBRANCH   1   9
TORSDOF 10
ENDMDL
MODEL 3
REMARK VINA RESULT:      -4.4     12.510     14.073
REMARK  10 active torsions:
REMARK  status: ('A' for Active; 'I' for Inactive)
REMARK    1  A    between atoms: O_1  and  C_12 
REMARK    2  A    between atoms: O_2  and  C_13 
REMARK    3  A    between atoms: C_5  and  C_6 
REMARK    4  A    between atoms: C_5  and  C_7 
REMARK    5  A    between atoms: C_6  and  C_8 
REMARK    6  A    between atoms: C_7  and  C_9 
REMARK    7  A    between atoms: C_8  and  C_10 
REMARK    8  A    between atoms: C_9  and  C_11 
REMARK    9  A    between atoms: C_10  and  C_12 
REMARK   10  A    between atoms: C_11  and  C_13 
ROOT
HETATM    1  C   UNK N   1      32.128  17.151   7.424  0.00  0.00     0.000 C 
ENDROOT
BRANCH   1   2
HETATM    2  C   UNK N   1      33.025  18.216   7.995  0.00  0.00     0.001 C 
BRANCH   2   3
HETATM    3  C   UNK N   1      34.431  17.707   7.798  0.00  0.00     0.010 C 
BRANCH   3   4
HETATM    4  C   UNK N   1      34.648  16.396   8.522  0.00  0.00     0.110 C 
BRANCH   4   5
HETATM    5  C   UNK N   1      34.882  16.617   9.988  0.00  0.00     0.139 C 
HETATM    6  O   UNK N   1      35.668  17.470  10.380  0.00  0.00    -0.650 OA
BRANCH   5   7
HETATM    7  O   UNK N   1      34.218  15.867  10.883  0.00  0.00    -0.776 OA
HETATM    8  H   UNK N   1      34.665  15.529  11.634  0.00  0.00     0.167 HD
ENDBRANCH   5   7
ENDBRANCH   4   5
ENDBRANCH   3   4
ENDBRANCH   2   3
ENDBRANCH   1   2
BRANCH   1   9
HETATM    9  C   UNK N   1      30.746  17.194   8.021  0.00  0.00     0.001 C 
BRANCH   9  10
HETATM   10  C   UNK N   1      30.716  18.440   8.869  0.00  0.00     0.010 C 
BRANCH  10  11
HETATM   11  C   UNK N   1      29.517  18.455   9.792  0.00  0.00     0.110 C 
BRANCH  11  12
HETATM   12  C   UNK N   1      28.238  18.324   9.018  0.00  0.00     0.139 C 
HETATM   13  O   UNK N   1      27.938  19.137   8.153  0.00  0.00    -0.650 OA
BRANCH  12  14
HETATM   14  O   UNK N   1      27.410  17.298   9.278  0.00  0.00    -0.776 OA
HETATM   15  H   UNK N   1      27.653  16.648   9.907  0.00  0.00     0.167 HD
ENDBRANCH  12  14
ENDBRANCH  11  12
ENDBRANCH  10  11
ENDBRANCH   9  10
ENDBRANCH   1   9
TORSDOF 10
ENDMDL
MODEL 4
REMARK VINA RESULT:      -4.4     10.592     12.272
REMARK  10 active torsions:
REMARK  status: ('A' for Active; 'I' for Inactive)
REMARK    1  A    between atoms: O_1  and  C_12 
REMARK    2  A    between atoms: O_2  and  C_13 
REMARK    3  A    between atoms: C_5  and  C_6 
REMARK    4  A    between atoms: C_5  and  C_7 
REMARK    5  A    between atoms: C_6  and  C_8 
REMARK    6  A    between atoms: C_7  and  C_9 
REMARK    7  A    between atoms: C_8  and  C_10 
REMARK    8  A    between atoms: C_9  and  C_11 
REMARK    9  A    between atoms: C_10  and  C_12 
REMARK   10  A    between atoms: C_11  and  C_13 
ROOT
HETATM    1  C   UNK N   1      30.013  17.328   7.231  0.00  0.00     0.000 C 
ENDROOT
BRANCH   1   2
HETATM    2  C   UNK N   1      28.551  17.525   7.525  0.00  0.00     0.001 C 
BRANCH   2   3
HETATM    3  C   UNK N   1      28.372  19.011   7.705  0.00  0.00     0.010 C 
BRANCH   3   4
HETATM    4  C   UNK N   1      27.723  19.639   6.491  0.00  0.00     0.110 C 
BRANCH   4   5
HETATM    5  C   UNK N   1      26.883  20.822   6.874  0.00  0.00     0.139 C 
HETATM    6  O   UNK N   1      26.865  21.833   6.184  0.00  0.00    -0.650 OA
BRANCH   5   7
HETATM    7  O   UNK N   1      26.139  20.769   7.992  0.00  0.00    -0.776 OA
HETATM    8  H   UNK N   1      26.383  21.278   8.740  0.00  0.00     0.167 HD
ENDBRANCH   5   7
ENDBRANCH   4   5
ENDBRANCH   3   4
ENDBRANCH   2   3
ENDBRANCH   1   2
BRANCH   1   9
HETATM    9  C   UNK N   1      30.815  17.087   8.482  0.00  0.00     0.001 C 
BRANCH   9  10
HETATM   10  C   UNK N   1      31.919  18.114   8.452  0.00  0.00     0.010 C 
BRANCH  10  11
HETATM   11  C   UNK N   1      33.277  17.475   8.641  0.00  0.00     0.110 C 
BRANCH  11  12
HETATM   12  C   UNK N   1      34.323  18.179   7.826  0.00  0.00     0.139 C 
HETATM   13  O   UNK N   1      34.521  17.876   6.657  0.00  0.00    -0.650 OA
BRANCH  12  14
HETATM   14  O   UNK N   1      35.053  19.156   8.390  0.00  0.00    -0.776 OA
HETATM   15  H   UNK N   1      35.978  19.051   8.491  0.00  0.00     0.167 HD
ENDBRANCH  12  14
ENDBRANCH  11  12
ENDBRANCH  10  11
ENDBRANCH   9  10
ENDBRANCH   1   9
TORSDOF 10
ENDMDL
MODEL 5
REMARK VINA RESULT:      -4.3     12.100     13.747
REMARK  10 active torsions:
REMARK  status: ('A' for Active; 'I' for Inactive)
REMARK    1  A    between atoms: O_1  and  C_12 
REMARK    2  A    between atoms: O_2  and  C_13 
REMARK    3  A    between atoms: C_5  and  C_6 
REMARK    4  A    between atoms: C_5  and  C_7 
REMARK    5  A    between atoms: C_6  and  C_8 
REMARK    6  A    between atoms: C_7  and  C_9 
REMARK    7  A    between atoms: C_8  and  C_10 
REMARK    8  A    between atoms: C_9  and  C_11 
REMARK    9  A    between atoms: C_10  and  C_12 
REMARK   10  A    between atoms: C_11  and  C_13 
ROOT
HETATM    1  C   UNK N   1      30.688  17.479   7.468  0.00  0.00     0.000 C 
ENDROOT
BRANCH   1   2
HETATM    2  C   UNK N   1      31.324  16.605   6.421  0.00  0.00     0.001 C 
BRANCH   2   3
HETATM    3  C   UNK N   1      31.006  17.261   5.101  0.00  0.00     0.010 C 
BRANCH   3   4
HETATM    4  C   UNK N   1      32.266  17.693   4.382  0.00  0.00     0.110 C 
BRANCH   4   5
HETATM    5  C   UNK N   1      32.463  16.915   3.115  0.00  0.00     0.139 C 
HETATM    6  O   UNK N   1      33.304  16.027   3.044  0.00  0.00    -0.650 OA
BRANCH   5   7
HETATM    7  O   UNK N   1      31.704  17.196   2.042  0.00  0.00    -0.776 OA
HETATM    8  H   UNK N   1      30.865  17.598   2.155  0.00  0.00     0.167 HD
ENDBRANCH   5   7
ENDBRANCH   4   5
ENDBRANCH   3   4
ENDBRANCH   2   3
ENDBRANCH   1   2
BRANCH   1   9
HETATM    9  C   UNK N   1      31.595  17.701   8.649  0.00  0.00     0.001 C 
BRANCH   9  10
HETATM   10  C   UNK N   1      32.739  16.738   8.461  0.00  0.00     0.010 C 
BRANCH  10  11
HETATM   11  C   UNK N   1      34.023  17.278   9.053  0.00  0.00     0.110 C 
BRANCH  11  12
HETATM   12  C   UNK N   1      34.658  18.284   8.138  0.00  0.00     0.139 C 
HETATM   13  O   UNK N   1      35.282  19.238   8.585  0.00  0.00    -0.650 OA
BRANCH  12  14
HETATM   14  O   UNK N   1      34.540  18.135   6.808  0.00  0.00    -0.776 OA
HETATM   15  H   UNK N   1      34.046  18.755   6.309  0.00  0.00     0.167 HD
ENDBRANCH  12  14
ENDBRANCH  11  12
ENDBRANCH  10  11
ENDBRANCH   9  10
ENDBRANCH   1   9
TORSDOF 10
ENDMDL
MODEL 6
REMARK VINA RESULT:      -4.2     11.355     12.864
REMARK  10 active torsions:
REMARK  status: ('A' for Active; 'I' for Inactive)
REMARK    1  A    between atoms: O_1  and  C_12 
REMARK    2  A    between atoms: O_2  and  C_13 
REMARK    3  A    between atoms: C_5  and  C_6 
REMARK    4  A    between atoms: C_5  and  C_7 
REMARK    5  A    between atoms: C_6  and  C_8 
REMARK    6  A    between atoms: C_7  and  C_9 
REMARK    7  A    between atoms: C_8  and  C_10 
REMARK    8  A    between atoms: C_9  and  C_11 
REMARK    9  A    between atoms: C_10  and  C_12 
REMARK   10  A    between atoms: C_11  and  C_13 
ROOT
HETATM    1  C   UNK N   1      31.299  17.015   6.375  0.00  0.00     0.000 C 
ENDROOT
BRANCH   1   2
HETATM    2  C   UNK N   1      32.484  17.028   5.448  0.00  0.00     0.001 C 
BRANCH   2   3
HETATM    3  C   UNK N   1      33.623  17.594   6.258  0.00  0.00     0.010 C 
BRANCH   3   4
HETATM    4  C   UNK N   1      33.165  18.010   7.639  0.00  0.00     0.110 C 
BRANCH   4   5
HETATM    5  C   UNK N   1      34.329  18.177   8.570  0.00  0.00     0.139 C 
HETATM    6  O   UNK N   1      35.188  19.024   8.361  0.00  0.00    -0.650 OA
BRANCH   5   7
HETATM    7  O   UNK N   1      34.430  17.385   9.651  0.00  0.00    -0.776 OA
HETATM    8  H   UNK N   1      33.930  16.594   9.700  0.00  0.00     0.167 HD
ENDBRANCH   5   7
ENDBRANCH   4   5
ENDBRANCH   3   4
ENDBRANCH   2   3
ENDBRANCH   1   2
BRANCH   1   9
HETATM    9  C   UNK N   1      30.013  16.726   5.647  0.00  0.00     0.001 C 
BRANCH   9  10
HETATM   10  C   UNK N   1      29.060  17.814   6.071  0.00  0.00     0.010 C 
BRANCH  10  11
HETATM   11  C   UNK N   1      28.133  17.344   7.170  0.00  0.00     0.110 C 
BRANCH  11  12
HETATM   12  C   UNK N   1      28.337  18.141   8.426  0.00  0.00     0.139 C 
HETATM   13  O   UNK N   1      29.324  18.851   8.569  0.00  0.00    -0.650 OA
BRANCH  12  14
HETATM   14  O   UNK N   1      27.421  18.074   9.407  0.00  0.00    -0.776 OA
HETATM   15  H   UNK N   1      27.385  18.744  10.060  0.00  0.00     0.167 HD
ENDBRANCH  12  14
ENDBRANCH  11  12
ENDBRANCH  10  11
ENDBRANCH   9  10
ENDBRANCH   1   9
TORSDOF 10
ENDMDL
MODEL 7
REMARK VINA RESULT:      -4.1      8.677     10.056
REMARK  10 active torsions:
REMARK  status: ('A' for Active; 'I' for Inactive)
REMARK    1  A    between atoms: O_1  and  C_12 
REMARK    2  A    between atoms: O_2  and  C_13 
REMARK    3  A    between atoms: C_5  and  C_6 
REMARK    4  A    between atoms: C_5  and  C_7 
REMARK    5  A    between atoms: C_6  and  C_8 
REMARK    6  A    between atoms: C_7  and  C_9 
REMARK    7  A    between atoms: C_8  and  C_10 
REMARK    8  A    between atoms: C_9  and  C_11 
REMARK    9  A    between atoms: C_10  and  C_12 
REMARK   10  A    between atoms: C_11  and  C_13 
ROOT
HETATM    1  C   UNK N   1      22.486  13.405   7.853  0.00  0.00     0.000 C 
ENDROOT
BRANCH   1   2
HETATM    2  C   UNK N   1      22.936  12.403   8.882  0.00  0.00     0.001 C 
BRANCH   2   3
HETATM    3  C   UNK N   1      22.746  13.082  10.215  0.00  0.00     0.010 C 
BRANCH   3   4
HETATM    4  C   UNK N   1      22.557  12.071  11.325  0.00  0.00     0.110 C 
BRANCH   4   5
HETATM    5  C   UNK N   1      23.722  12.077  12.270  0.00  0.00     0.139 C 
HETATM    6  O   UNK N   1      23.554  11.981  13.480  0.00  0.00    -0.650 OA
BRANCH   5   7
HETATM    7  O   UNK N   1      24.968  12.191  11.781  0.00  0.00    -0.776 OA
HETATM    8  H   UNK N   1      25.480  12.951  11.977  0.00  0.00     0.167 HD
ENDBRANCH   5   7
ENDBRANCH   4   5
ENDBRANCH   3   4
ENDBRANCH   2   3
ENDBRANCH   1   2
BRANCH   1   9
HETATM    9  C   UNK N   1      20.988  13.542   7.812  0.00  0.00     0.001 C 
BRANCH   9  10
HETATM   10  C   UNK N   1      20.727  14.976   7.429  0.00  0.00     0.010 C 
BRANCH  10  11
HETATM   11  C   UNK N   1      20.674  15.875   8.645  0.00  0.00     0.110 C 
BRANCH  11  12
HETATM   12  C   UNK N   1      19.557  16.871   8.532  0.00  0.00     0.139 C 
HETATM   13  O   UNK N   1      18.445  16.531   8.149  0.00  0.00    -0.650 OA
BRANCH  12  14
HETATM   14  O   UNK N   1      19.781  18.156   8.857  0.00  0.00    -0.776 OA
HETATM   15  H   UNK N   1      20.428  18.370   9.499  0.00  0.00     0.167 HD
ENDBRANCH  12  14
ENDBRANCH  11  12
ENDBRANCH  10  11
ENDBRANCH   9  10
ENDBRANCH   1   9
TORSDOF 10
ENDMDL
MODEL 8
REMARK VINA RESULT:      -4.1     10.446     11.936
REMARK  10 active torsions:
REMARK  status: ('A' for Active; 'I' for Inactive)
REMARK    1  A    between atoms: O_1  and  C_12 
REMARK    2  A    between atoms: O_2  and  C_13 
REMARK    3  A    between atoms: C_5  and  C_6 
REMARK    4  A    between atoms: C_5  and  C_7 
REMARK    5  A    between atoms: C_6  and  C_8 
REMARK    6  A    between atoms: C_7  and  C_9 
REMARK    7  A    between atoms: C_8  and  C_10 
REMARK    8  A    between atoms: C_9  and  C_11 
REMARK    9  A    between atoms: C_10  and  C_12 
REMARK   10  A    between atoms: C_11  and  C_13 
ROOT
HETATM    1  C   UNK N   1      29.447  17.936   8.458  0.00  0.00     0.000 C 
ENDROOT
BRANCH   1   2
HETATM    2  C   UNK N   1      30.822  18.401   8.857  0.00  0.00     0.001 C 
BRANCH   2   3
HETATM    3  C   UNK N   1      31.773  17.694   7.923  0.00  0.00     0.010 C 
BRANCH   3   4
HETATM    4  C   UNK N   1      33.127  17.490   8.567  0.00  0.00     0.110 C 
BRANCH   4   5
HETATM    5  C   UNK N   1      34.203  18.210   7.808  0.00  0.00     0.139 C 
HETATM    6  O   UNK N   1      34.901  19.057   8.353  0.00  0.00    -0.650 OA
BRANCH   5   7
HETATM    7  O   UNK N   1      34.403  17.921   6.512  0.00  0.00    -0.776 OA
HETATM    8  H   UNK N   1      34.890  18.511   5.970  0.00  0.00     0.167 HD
ENDBRANCH   5   7
ENDBRANCH   4   5
ENDBRANCH   3   4
ENDBRANCH   2   3
ENDBRANCH   1   2
BRANCH   1   9
HETATM    9  C   UNK N   1      29.453  17.218   7.135  0.00  0.00     0.001 C 
BRANCH   9  10
HETATM   10  C   UNK N   1      28.155  17.595   6.469  0.00  0.00     0.010 C 
BRANCH  10  11
HETATM   11  C   UNK N   1      28.322  18.797   5.566  0.00  0.00     0.110 C 
BRANCH  11  12
HETATM   12  C   UNK N   1      27.304  19.855   5.879  0.00  0.00     0.139 C 
HETATM   13  O   UNK N   1      27.638  21.020   6.049  0.00  0.00    -0.650 OA
BRANCH  12  14
HETATM   14  O   UNK N   1      26.007  19.516   5.975  0.00  0.00    -0.776 OA
HETATM   15  H   UNK N   1      25.678  18.782   5.496  0.00  0.00     0.167 HD
ENDBRANCH  12  14
ENDBRANCH  11  12
ENDBRANCH  10  11
ENDBRANCH   9  10
ENDBRANCH   1   9
TORSDOF 10
ENDMDL
MODEL 9
REMARK VINA RESULT:      -4.1     10.756     12.188
REMARK  10 active torsions:
REMARK  status: ('A' for Active; 'I' for Inactive)
REMARK    1  A    between atoms: O_1  and  C_12 
REMARK    2  A    between atoms: O_2  and  C_13 
REMARK    3  A    between atoms: C_5  and  C_6 
REMARK    4  A    between atoms: C_5  and  C_7 
REMARK    5  A    between atoms: C_6  and  C_8 
REMARK    6  A    between atoms: C_7  and  C_9 
REMARK    7  A    between atoms: C_8  and  C_10 
REMARK    8  A    between atoms: C_9  and  C_11 
REMARK    9  A    between atoms: C_10  and  C_12 
REMARK   10  A    between atoms: C_11  and  C_13 
ROOT
HETATM    1  C   UNK N   1      29.089  22.749  -5.954  0.00  0.00     0.000 C 
ENDROOT
BRANCH   1   2
HETATM    2  C   UNK N   1      29.732  21.388  -5.930  0.00  0.00     0.001 C 
BRANCH   2   3
HETATM    3  C   UNK N   1      30.394  21.278  -4.580  0.00  0.00     0.010 C 
BRANCH   3   4
HETATM    4  C   UNK N   1      30.264  22.566  -3.796  0.00  0.00     0.110 C 
BRANCH   4   5
HETATM    5  C   UNK N   1      30.879  22.437  -2.434  0.00  0.00     0.139 C 
HETATM    6  O   UNK N   1      30.444  23.072  -1.481  0.00  0.00    -0.650 OA
BRANCH   5   7
HETATM    7  O   UNK N   1      31.925  21.612  -2.257  0.00  0.00    -0.776 OA
HETATM    8  H   UNK N   1      32.439  21.669  -1.476  0.00  0.00     0.167 HD
ENDBRANCH   5   7
ENDBRANCH   4   5
ENDBRANCH   3   4
ENDBRANCH   2   3
ENDBRANCH   1   2
BRANCH   1   9
HETATM    9  C   UNK N   1      27.739  22.726  -6.619  0.00  0.00     0.001 C 
BRANCH   9  10
HETATM   10  C   UNK N   1      27.089  24.036  -6.252  0.00  0.00     0.010 C 
BRANCH  10  11
HETATM   11  C   UNK N   1      26.185  23.889  -5.048  0.00  0.00     0.110 C 
BRANCH  11  12
HETATM   12  C   UNK N   1      26.815  24.486  -3.823  0.00  0.00     0.139 C 
HETATM   13  O   UNK N   1      26.722  23.935  -2.734  0.00  0.00    -0.650 OA
BRANCH  12  14
HETATM   14  O   UNK N   1      27.493  25.642  -3.925  0.00  0.00    -0.776 OA
HETATM   15  H   UNK N   1      27.397  26.300  -3.265  0.00  0.00     0.167 HD
ENDBRANCH  12  14
ENDBRANCH  11  12
ENDBRANCH  10  11
ENDBRANCH   9  10
ENDBRANCH   1   9
TORSDOF 10
ENDMDL
