MODEL 1
REMARK VINA RESULT:      -8.6      0.000      0.000
REMARK  9 active torsions:
REMARK  status: ('A' for Active; 'I' for Inactive)
REMARK    1  A    between atoms: S_1  and  N_10 
REMARK    2  A    between atoms: S_1  and  C_34 
REMARK    3  A    between atoms: O_2  and  C_11 
REMARK    4  A    between atoms: O_2  and  C_16 
REMARK    5  A    between atoms: O_4  and  C_28 
REMARK       I    between atoms: N_9  and  C_16 
REMARK    6  A    between atoms: N_9  and  C_20 
REMARK       I    between atoms: N_10  and  C_33 
REMARK    7  A    between atoms: C_18  and  C_21 
REMARK    8  A    between atoms: C_21  and  C_26 
REMARK    9  A    between atoms: C_31  and  C_33 
ROOT
HETATM    1  C   UNK N   1      26.378  14.931   4.789  0.00  0.00    -0.020 C 
HETATM    2  C   UNK N   1      25.409  14.758   3.801  0.00  0.00     0.075 C 
HETATM    3  C   UNK N   1      26.004  15.019   6.139  0.00  0.00     0.011 C 
HETATM    4  C   UNK N   1      24.106  15.095   4.130  0.00  0.00     0.054 C 
HETATM    5  C   UNK N   1      23.779  15.514   5.421  0.00  0.00     0.035 C 
HETATM    6  C   UNK N   1      24.708  15.357   6.448  0.00  0.00     0.018 C 
ENDROOT
BRANCH   1   7
HETATM    7  C   UNK N   1      27.508  15.817   4.370  0.00  0.00     0.082 C 
BRANCH   7   8
HETATM    8  C   UNK N   1      27.686  16.869   5.468  0.00  0.00    -0.026 A 
HETATM    9  C   UNK N   1      27.141  18.072   5.307  0.00  0.00     0.001 A 
HETATM   10  C   UNK N   1      27.529  18.896   6.304  0.00  0.00     0.044 A 
HETATM   11  C   UNK N   1      26.280  18.412   4.336  0.00  0.00     0.044 A 
HETATM   12  N   UNK N   1      28.364  18.232   7.125  0.00  0.00    -0.360 N 
HETATM   13  C   UNK N   1      27.045  20.210   6.361  0.00  0.00     0.033 A 
HETATM   14  C   UNK N   1      28.483  16.964   6.629  0.00  0.00     0.099 A 
HETATM   15  C   UNK N   1      29.001  18.757   8.323  0.00  0.00     0.155 C 
HETATM   16  C   UNK N   1      26.042  20.568   5.412  0.00  0.00     0.032 A 
HETATM   17  C   UNK N   1      25.653  19.633   4.410  0.00  0.00     0.037 A 
BRANCH  17  18
HETATM   18  N   UNK N   1      24.360  19.668   3.842  0.00  0.00    -0.303 N 
HETATM   19  C   UNK N   1      24.177  20.433   2.705  0.00  0.00     0.365 C 
HETATM   20  O   UNK N   1      25.133  20.938   2.133  0.00  0.00    -0.238 OA
HETATM   21  H   UNK N   1      23.614  19.164   4.241  0.00  0.00     0.171 HD
BRANCH  19  22
HETATM   22  O   UNK N   1      22.966  20.600   2.146  0.00  0.00    -0.298 OA
BRANCH  22  23
HETATM   23  C   UNK N   1      21.786  20.861   2.793  0.00  0.00     0.133 C 
HETATM   24  C   UNK N   1      20.739  20.916   1.710  0.00  0.00     0.032 C 
HETATM   25  C   UNK N   1      20.507  19.458   1.338  0.00  0.00     0.002 C 
HETATM   26  C   UNK N   1      20.872  18.650   2.575  0.00  0.00     0.002 C 
HETATM   27  C   UNK N   1      21.331  19.663   3.602  0.00  0.00     0.032 C 
ENDBRANCH  22  23
ENDBRANCH  19  22
ENDBRANCH  17  18
ENDBRANCH   7   8
ENDBRANCH   1   7
BRANCH   2  28
HETATM   28  O   UNK N   1      25.721  14.483   2.508  0.00  0.00    -0.355 OA
HETATM   29  C   UNK N   1      24.801  14.543   1.480  0.00  0.00     0.210 C 
ENDBRANCH   2  28
BRANCH   5  30
HETATM   30  C   UNK N   1      22.736  16.544   5.612  0.00  0.00     0.265 C 
HETATM   31  O   UNK N   1      23.098  17.712   5.643  0.00  0.00    -0.267 OA
HETATM   32  N   UNK N   1      21.401  16.306   5.588  0.00  0.00    -0.246 N 
HETATM   33  H   UNK N   1      20.845  17.082   5.346  0.00  0.00     0.182 HD
BRANCH  32  34
HETATM   34  S   UNK N   1      20.508  14.826   5.922  0.00  0.00     0.266 S 
HETATM   35  O   UNK N   1      19.074  15.348   6.068  0.00  0.00    -0.200 OA
HETATM   36  O   UNK N   1      20.367  13.933   4.683  0.00  0.00    -0.200 OA
BRANCH  34  37
HETATM   37  C   UNK N   1      20.963  14.037   7.459  0.00  0.00     0.085 A 
HETATM   38  C   UNK N   1      20.669  14.635   8.708  0.00  0.00    -0.039 A 
HETATM   39  C   UNK N   1      20.985  13.960   9.888  0.00  0.00     0.008 A 
HETATM   40  C   UNK N   1      20.008  15.966   8.819  0.00  0.00     0.050 C 
HETATM   41  C   UNK N   1      21.590  12.705   9.839  0.00  0.00     0.001 A 
HETATM   42  C   UNK N   1      21.890  12.119   8.608  0.00  0.00     0.002 A 
HETATM   43  C   UNK N   1      21.575  12.783   7.420  0.00  0.00     0.026 A 
ENDBRANCH  34  37
ENDBRANCH  32  34
ENDBRANCH   5  30
TORSDOF 9
ENDMDL
MODEL 2
REMARK VINA RESULT:      -8.3      2.724      5.887
REMARK  9 active torsions:
REMARK  status: ('A' for Active; 'I' for Inactive)
REMARK    1  A    between atoms: S_1  and  N_10 
REMARK    2  A    between atoms: S_1  and  C_34 
REMARK    3  A    between atoms: O_2  and  C_11 
REMARK    4  A    between atoms: O_2  and  C_16 
REMARK    5  A    between atoms: O_4  and  C_28 
REMARK       I    between atoms: N_9  and  C_16 
REMARK    6  A    between atoms: N_9  and  C_20 
REMARK       I    between atoms: N_10  and  C_33 
REMARK    7  A    between atoms: C_18  and  C_21 
REMARK    8  A    between atoms: C_21  and  C_26 
REMARK    9  A    between atoms: C_31  and  C_33 
ROOT
HETATM    1  C   UNK N   1      22.560  15.402   4.355  0.00  0.00    -0.020 C 
HETATM    2  C   UNK N   1      21.524  14.565   4.769  0.00  0.00     0.075 C 
HETATM    3  C   UNK N   1      23.748  14.856   3.845  0.00  0.00     0.011 C 
HETATM    4  C   UNK N   1      21.851  13.251   5.057  0.00  0.00     0.054 C 
HETATM    5  C   UNK N   1      23.150  12.777   4.861  0.00  0.00     0.035 C 
HETATM    6  C   UNK N   1      24.060  13.551   4.142  0.00  0.00     0.018 C 
ENDROOT
BRANCH   1   7
HETATM    7  C   UNK N   1      22.718  16.624   5.203  0.00  0.00     0.082 C 
BRANCH   7   8
HETATM    8  C   UNK N   1      22.597  17.835   4.273  0.00  0.00    -0.026 A 
HETATM    9  C   UNK N   1      23.659  18.612   4.079  0.00  0.00     0.001 A 
HETATM   10  C   UNK N   1      23.316  19.697   3.353  0.00  0.00     0.044 A 
HETATM   11  C   UNK N   1      24.908  18.339   4.487  0.00  0.00     0.044 A 
HETATM   12  N   UNK N   1      21.998  19.647   3.081  0.00  0.00    -0.360 N 
HETATM   13  C   UNK N   1      24.288  20.642   2.994  0.00  0.00     0.033 A 
HETATM   14  C   UNK N   1      21.521  18.496   3.643  0.00  0.00     0.099 A 
HETATM   15  C   UNK N   1      21.233  20.621   2.318  0.00  0.00     0.155 C 
HETATM   16  C   UNK N   1      25.641  20.324   3.312  0.00  0.00     0.032 A 
HETATM   17  C   UNK N   1      25.934  19.141   4.049  0.00  0.00     0.037 A 
BRANCH  17  18
HETATM   18  N   UNK N   1      27.179  18.486   3.913  0.00  0.00    -0.303 N 
HETATM   19  C   UNK N   1      28.156  18.760   4.851  0.00  0.00     0.365 C 
HETATM   20  O   UNK N   1      27.899  19.431   5.841  0.00  0.00    -0.238 OA
HETATM   21  H   UNK N   1      27.344  17.855   3.176  0.00  0.00     0.171 HD
BRANCH  19  22
HETATM   22  O   UNK N   1      29.399  18.256   4.754  0.00  0.00    -0.298 OA
BRANCH  22  23
HETATM   23  C   UNK N   1      29.747  16.936   4.631  0.00  0.00     0.133 C 
HETATM   24  C   UNK N   1      31.255  16.921   4.608  0.00  0.00     0.032 C 
HETATM   25  C   UNK N   1      31.655  17.155   6.058  0.00  0.00     0.002 C 
HETATM   26  C   UNK N   1      30.491  16.648   6.897  0.00  0.00     0.002 C 
HETATM   27  C   UNK N   1      29.451  16.172   5.906  0.00  0.00     0.032 C 
ENDBRANCH  22  23
ENDBRANCH  19  22
ENDBRANCH  17  18
ENDBRANCH   7   8
ENDBRANCH   1   7
BRANCH   2  28
HETATM   28  O   UNK N   1      20.290  15.032   5.094  0.00  0.00    -0.355 OA
HETATM   29  C   UNK N   1      19.299  15.260   4.161  0.00  0.00     0.210 C 
ENDBRANCH   2  28
BRANCH   5  30
HETATM   30  C   UNK N   1      23.711  11.775   5.792  0.00  0.00     0.265 C 
HETATM   31  O   UNK N   1      23.756  10.615   5.406  0.00  0.00    -0.267 OA
HETATM   32  N   UNK N   1      24.327  12.066   6.963  0.00  0.00    -0.246 N 
HETATM   33  H   UNK N   1      24.966  11.386   7.278  0.00  0.00     0.182 HD
BRANCH  32  34
HETATM   34  S   UNK N   1      24.163  13.472   8.010  0.00  0.00     0.266 S 
HETATM   35  O   UNK N   1      25.182  13.165   9.114  0.00  0.00    -0.200 OA
HETATM   36  O   UNK N   1      24.773  14.738   7.395  0.00  0.00    -0.200 OA
BRANCH  34  37
HETATM   37  C   UNK N   1      22.555  13.621   8.775  0.00  0.00     0.085 A 
HETATM   38  C   UNK N   1      22.115  12.695   9.751  0.00  0.00    -0.039 A 
HETATM   39  C   UNK N   1      20.879  12.879  10.369  0.00  0.00     0.008 A 
HETATM   40  C   UNK N   1      22.938  11.524  10.166  0.00  0.00     0.050 C 
HETATM   41  C   UNK N   1      20.077  13.968  10.028  0.00  0.00     0.001 A 
HETATM   42  C   UNK N   1      20.504  14.877   9.058  0.00  0.00     0.002 A 
HETATM   43  C   UNK N   1      21.742  14.705   8.435  0.00  0.00     0.026 A 
ENDBRANCH  34  37
ENDBRANCH  32  34
ENDBRANCH   5  30
TORSDOF 9
ENDMDL
MODEL 3
REMARK VINA RESULT:      -8.3      2.562      6.385
REMARK  9 active torsions:
REMARK  status: ('A' for Active; 'I' for Inactive)
REMARK    1  A    between atoms: S_1  and  N_10 
REMARK    2  A    between atoms: S_1  and  C_34 
REMARK    3  A    between atoms: O_2  and  C_11 
REMARK    4  A    between atoms: O_2  and  C_16 
REMARK    5  A    between atoms: O_4  and  C_28 
REMARK       I    between atoms: N_9  and  C_16 
REMARK    6  A    between atoms: N_9  and  C_20 
REMARK       I    between atoms: N_10  and  C_33 
REMARK    7  A    between atoms: C_18  and  C_21 
REMARK    8  A    between atoms: C_21  and  C_26 
REMARK    9  A    between atoms: C_31  and  C_33 
ROOT
HETATM    1  C   UNK N   1      21.389  16.414   5.974  0.00  0.00    -0.020 C 
HETATM    2  C   UNK N   1      20.822  16.458   7.247  0.00  0.00     0.075 C 
HETATM    3  C   UNK N   1      21.306  15.244   5.203  0.00  0.00     0.011 C 
HETATM    4  C   UNK N   1      20.572  15.246   7.869  0.00  0.00     0.054 C 
HETATM    5  C   UNK N   1      20.809  14.039   7.207  0.00  0.00     0.035 C 
HETATM    6  C   UNK N   1      21.059  14.049   5.835  0.00  0.00     0.018 C 
ENDROOT
BRANCH   1   7
HETATM    7  C   UNK N   1      22.673  17.174   5.864  0.00  0.00     0.082 C 
BRANCH   7   8
HETATM    8  C   UNK N   1      22.500  18.185   4.726  0.00  0.00    -0.026 A 
HETATM    9  C   UNK N   1      23.562  18.858   4.291  0.00  0.00     0.001 A 
HETATM   10  C   UNK N   1      23.184  19.796   3.397  0.00  0.00     0.044 A 
HETATM   11  C   UNK N   1      24.835  18.610   4.635  0.00  0.00     0.044 A 
HETATM   12  N   UNK N   1      21.846  19.757   3.256  0.00  0.00    -0.360 N 
HETATM   13  C   UNK N   1      24.146  20.604   2.775  0.00  0.00     0.033 A 
HETATM   14  C   UNK N   1      21.390  18.762   4.075  0.00  0.00     0.099 A 
HETATM   15  C   UNK N   1      21.041  20.599   2.384  0.00  0.00     0.155 C 
HETATM   16  C   UNK N   1      25.513  20.290   3.030  0.00  0.00     0.032 A 
HETATM   17  C   UNK N   1      25.839  19.260   3.958  0.00  0.00     0.037 A 
BRANCH  17  18
HETATM   18  N   UNK N   1      27.045  18.532   3.847  0.00  0.00    -0.303 N 
HETATM   19  C   UNK N   1      28.034  18.779   4.781  0.00  0.00     0.365 C 
HETATM   20  O   UNK N   1      27.812  19.492   5.750  0.00  0.00    -0.238 OA
HETATM   21  H   UNK N   1      27.176  17.871   3.129  0.00  0.00     0.171 HD
BRANCH  19  22
HETATM   22  O   UNK N   1      29.246  18.202   4.704  0.00  0.00    -0.298 OA
BRANCH  22  23
HETATM   23  C   UNK N   1      29.537  16.870   4.837  0.00  0.00     0.133 C 
HETATM   24  C   UNK N   1      30.934  16.709   4.294  0.00  0.00     0.032 C 
HETATM   25  C   UNK N   1      31.829  17.274   5.388  0.00  0.00     0.002 C 
HETATM   26  C   UNK N   1      31.052  17.114   6.686  0.00  0.00     0.002 C 
HETATM   27  C   UNK N   1      29.727  16.495   6.294  0.00  0.00     0.032 C 
ENDBRANCH  22  23
ENDBRANCH  19  22
ENDBRANCH  17  18
ENDBRANCH   7   8
ENDBRANCH   1   7
BRANCH   2  28
HETATM   28  O   UNK N   1      20.708  17.609   7.960  0.00  0.00    -0.355 OA
HETATM   29  C   UNK N   1      19.632  17.887   8.779  0.00  0.00     0.210 C 
ENDBRANCH   2  28
BRANCH   5  30
HETATM   30  C   UNK N   1      21.295  12.871   7.970  0.00  0.00     0.265 C 
HETATM   31  O   UNK N   1      20.803  12.676   9.073  0.00  0.00    -0.267 OA
HETATM   32  N   UNK N   1      22.114  11.911   7.475  0.00  0.00    -0.246 N 
HETATM   33  H   UNK N   1      22.050  11.037   7.924  0.00  0.00     0.182 HD
BRANCH  32  34
HETATM   34  S   UNK N   1      23.278  11.984   6.155  0.00  0.00     0.266 S 
HETATM   35  O   UNK N   1      24.133  10.740   6.418  0.00  0.00    -0.200 OA
HETATM   36  O   UNK N   1      22.653  11.627   4.801  0.00  0.00    -0.200 OA
BRANCH  34  37
HETATM   37  C   UNK N   1      24.352  13.411   6.215  0.00  0.00     0.085 A 
HETATM   38  C   UNK N   1      24.937  13.841   7.431  0.00  0.00    -0.039 A 
HETATM   39  C   UNK N   1      25.818  14.921   7.428  0.00  0.00     0.008 A 
HETATM   40  C   UNK N   1      24.662  13.165   8.731  0.00  0.00     0.050 C 
HETATM   41  C   UNK N   1      26.122  15.578   6.236  0.00  0.00     0.001 A 
HETATM   42  C   UNK N   1      25.538  15.162   5.038  0.00  0.00     0.002 A 
HETATM   43  C   UNK N   1      24.657  14.079   5.027  0.00  0.00     0.026 A 
ENDBRANCH  34  37
ENDBRANCH  32  34
ENDBRANCH   5  30
TORSDOF 9
ENDMDL
MODEL 4
REMARK VINA RESULT:      -8.1      7.469     11.941
REMARK  9 active torsions:
REMARK  status: ('A' for Active; 'I' for Inactive)
REMARK    1  A    between atoms: S_1  and  N_10 
REMARK    2  A    between atoms: S_1  and  C_34 
REMARK    3  A    between atoms: O_2  and  C_11 
REMARK    4  A    between atoms: O_2  and  C_16 
REMARK    5  A    between atoms: O_4  and  C_28 
REMARK       I    between atoms: N_9  and  C_16 
REMARK    6  A    between atoms: N_9  and  C_20 
REMARK       I    between atoms: N_10  and  C_33 
REMARK    7  A    between atoms: C_18  and  C_21 
REMARK    8  A    between atoms: C_21  and  C_26 
REMARK    9  A    between atoms: C_31  and  C_33 
ROOT
HETATM    1  C   UNK N   1      31.842  16.258   7.879  0.00  0.00    -0.020 C 
HETATM    2  C   UNK N   1      32.010  17.566   8.332  0.00  0.00     0.075 C 
HETATM    3  C   UNK N   1      30.732  15.920   7.089  0.00  0.00     0.011 C 
HETATM    4  C   UNK N   1      30.887  18.377   8.347  0.00  0.00     0.054 C 
HETATM    5  C   UNK N   1      29.665  17.917   7.853  0.00  0.00     0.035 C 
HETATM    6  C   UNK N   1      29.626  16.734   7.116  0.00  0.00     0.018 C 
ENDROOT
BRANCH   1   7
HETATM    7  C   UNK N   1      32.274  15.222   8.868  0.00  0.00     0.082 C 
BRANCH   7   8
HETATM    8  C   UNK N   1      33.551  14.579   8.317  0.00  0.00    -0.026 A 
HETATM    9  C   UNK N   1      34.678  14.674   9.017  0.00  0.00     0.001 A 
HETATM   10  C   UNK N   1      35.711  14.178   8.304  0.00  0.00     0.044 A 
HETATM   11  C   UNK N   1      34.778  15.136  10.273  0.00  0.00     0.044 A 
HETATM   12  N   UNK N   1      35.262  13.769   7.102  0.00  0.00    -0.360 N 
HETATM   13  C   UNK N   1      36.998  14.141   8.860  0.00  0.00     0.033 A 
HETATM   14  C   UNK N   1      33.916  14.007   7.080  0.00  0.00     0.099 A 
HETATM   15  C   UNK N   1      36.054  13.168   6.039  0.00  0.00     0.155 C 
HETATM   16  C   UNK N   1      37.117  14.516  10.231  0.00  0.00     0.032 A 
HETATM   17  C   UNK N   1      35.974  14.995  10.933  0.00  0.00     0.037 A 
BRANCH  17  18
HETATM   18  N   UNK N   1      35.862  14.843  12.333  0.00  0.00    -0.303 N 
HETATM   19  C   UNK N   1      35.310  13.669  12.812  0.00  0.00     0.365 C 
HETATM   20  O   UNK N   1      35.068  12.740  12.054  0.00  0.00    -0.238 OA
HETATM   21  H   UNK N   1      36.166  15.550  12.947  0.00  0.00     0.171 HD
BRANCH  19  22
HETATM   22  O   UNK N   1      35.080  13.472  14.121  0.00  0.00    -0.298 OA
BRANCH  22  23
HETATM   23  C   UNK N   1      35.997  13.526  15.139  0.00  0.00     0.133 C 
HETATM   24  C   UNK N   1      35.238  13.141  16.383  0.00  0.00     0.032 C 
HETATM   25  C   UNK N   1      35.073  11.632  16.270  0.00  0.00     0.002 C 
HETATM   26  C   UNK N   1      36.230  11.150  15.409  0.00  0.00     0.002 C 
HETATM   27  C   UNK N   1      37.002  12.396  15.029  0.00  0.00     0.032 C 
ENDBRANCH  22  23
ENDBRANCH  19  22
ENDBRANCH  17  18
ENDBRANCH   7   8
ENDBRANCH   1   7
BRANCH   2  28
HETATM   28  O   UNK N   1      33.148  17.991   8.939  0.00  0.00    -0.355 OA
HETATM   29  C   UNK N   1      34.297  18.318   8.246  0.00  0.00     0.210 C 
ENDBRANCH   2  28
BRANCH   5  30
HETATM   30  C   UNK N   1      28.407  18.346   8.500  0.00  0.00     0.265 C 
HETATM   31  O   UNK N   1      28.207  17.966   9.645  0.00  0.00    -0.267 OA
HETATM   32  N   UNK N   1      27.546  19.259   7.987  0.00  0.00    -0.246 N 
HETATM   33  H   UNK N   1      26.987  19.722   8.652  0.00  0.00     0.182 HD
BRANCH  32  34
HETATM   34  S   UNK N   1      27.271  19.743   6.317  0.00  0.00     0.266 S 
HETATM   35  O   UNK N   1      26.208  20.836   6.475  0.00  0.00    -0.200 OA
HETATM   36  O   UNK N   1      28.438  20.553   5.740  0.00  0.00    -0.200 OA
BRANCH  34  37
HETATM   37  C   UNK N   1      26.580  18.452   5.293  0.00  0.00     0.085 A 
HETATM   38  C   UNK N   1      26.150  18.713   3.970  0.00  0.00    -0.039 A 
HETATM   39  C   UNK N   1      25.672  17.666   3.180  0.00  0.00     0.008 A 
HETATM   40  C   UNK N   1      26.205  20.075   3.367  0.00  0.00     0.050 C 
HETATM   41  C   UNK N   1      25.615  16.370   3.690  0.00  0.00     0.001 A 
HETATM   42  C   UNK N   1      26.029  16.113   4.999  0.00  0.00     0.002 A 
HETATM   43  C   UNK N   1      26.512  17.151   5.798  0.00  0.00     0.026 A 
ENDBRANCH  34  37
ENDBRANCH  32  34
ENDBRANCH   5  30
TORSDOF 9
ENDMDL
MODEL 5
REMARK VINA RESULT:      -8.0      2.721      6.074
REMARK  9 active torsions:
REMARK  status: ('A' for Active; 'I' for Inactive)
REMARK    1  A    between atoms: S_1  and  N_10 
REMARK    2  A    between atoms: S_1  and  C_34 
REMARK    3  A    between atoms: O_2  and  C_11 
REMARK    4  A    between atoms: O_2  and  C_16 
REMARK    5  A    between atoms: O_4  and  C_28 
REMARK       I    between atoms: N_9  and  C_16 
REMARK    6  A    between atoms: N_9  and  C_20 
REMARK       I    between atoms: N_10  and  C_33 
REMARK    7  A    between atoms: C_18  and  C_21 
REMARK    8  A    between atoms: C_21  and  C_26 
REMARK    9  A    between atoms: C_31  and  C_33 
ROOT
HETATM    1  C   UNK N   1      25.273  14.646   4.526  0.00  0.00    -0.020 C 
HETATM    2  C   UNK N   1      24.158  14.700   3.690  0.00  0.00     0.075 C 
HETATM    3  C   UNK N   1      25.121  14.762   5.916  0.00  0.00     0.011 C 
HETATM    4  C   UNK N   1      23.010  15.278   4.207  0.00  0.00     0.054 C 
HETATM    5  C   UNK N   1      22.962  15.712   5.533  0.00  0.00     0.035 C 
HETATM    6  C   UNK N   1      23.977  15.340   6.413  0.00  0.00     0.018 C 
ENDROOT
BRANCH   1   7
HETATM    7  C   UNK N   1      26.487  15.304   3.948  0.00  0.00     0.082 C 
BRANCH   7   8
HETATM    8  C   UNK N   1      26.270  16.816   4.049  0.00  0.00    -0.026 A 
HETATM    9  C   UNK N   1      26.936  17.506   4.970  0.00  0.00     0.001 A 
HETATM   10  C   UNK N   1      26.504  18.785   4.996  0.00  0.00     0.044 A 
HETATM   11  C   UNK N   1      27.937  17.031   5.726  0.00  0.00     0.044 A 
HETATM   12  N   UNK N   1      25.518  18.936   4.092  0.00  0.00    -0.360 N 
HETATM   13  C   UNK N   1      27.093  19.711   5.870  0.00  0.00     0.033 A 
HETATM   14  C   UNK N   1      25.348  17.723   3.485  0.00  0.00     0.099 A 
HETATM   15  C   UNK N   1      24.787  20.161   3.802  0.00  0.00     0.155 C 
HETATM   16  C   UNK N   1      28.233  19.268   6.603  0.00  0.00     0.032 A 
HETATM   17  C   UNK N   1      28.657  17.912   6.496  0.00  0.00     0.037 A 
BRANCH  17  18
HETATM   18  N   UNK N   1      30.008  17.552   6.699  0.00  0.00    -0.303 N 
HETATM   19  C   UNK N   1      30.419  17.299   7.995  0.00  0.00     0.365 C 
HETATM   20  O   UNK N   1      29.607  17.247   8.907  0.00  0.00    -0.238 OA
HETATM   21  H   UNK N   1      30.636  17.483   5.944  0.00  0.00     0.171 HD
BRANCH  19  22
HETATM   22  O   UNK N   1      31.703  17.039   8.297  0.00  0.00    -0.298 OA
BRANCH  22  23
HETATM   23  C   UNK N   1      32.786  17.847   8.067  0.00  0.00     0.133 C 
HETATM   24  C   UNK N   1      33.892  17.287   8.925  0.00  0.00     0.032 C 
HETATM   25  C   UNK N   1      34.347  16.038   8.183  0.00  0.00     0.002 C 
HETATM   26  C   UNK N   1      34.006  16.275   6.719  0.00  0.00     0.002 C 
HETATM   27  C   UNK N   1      33.340  17.634   6.672  0.00  0.00     0.032 C 
ENDBRANCH  22  23
ENDBRANCH  19  22
ENDBRANCH  17  18
ENDBRANCH   7   8
ENDBRANCH   1   7
BRANCH   2  28
HETATM   28  O   UNK N   1      24.221  14.411   2.364  0.00  0.00    -0.355 OA
HETATM   29  C   UNK N   1      23.115  14.415   1.537  0.00  0.00     0.210 C 
ENDBRANCH   2  28
BRANCH   5  30
HETATM   30  C   UNK N   1      22.184  16.920   5.879  0.00  0.00     0.265 C 
HETATM   31  O   UNK N   1      22.747  18.001   5.767  0.00  0.00    -0.267 OA
HETATM   32  N   UNK N   1      20.855  16.935   6.146  0.00  0.00    -0.246 N 
HETATM   33  H   UNK N   1      20.407  17.796   5.982  0.00  0.00     0.182 HD
BRANCH  32  34
HETATM   34  S   UNK N   1      19.806  15.653   6.743  0.00  0.00     0.266 S 
HETATM   35  O   UNK N   1      18.860  16.424   7.670  0.00  0.00    -0.200 OA
HETATM   36  O   UNK N   1      18.824  15.154   5.676  0.00  0.00    -0.200 OA
BRANCH  34  37
HETATM   37  C   UNK N   1      20.652  14.422   7.724  0.00  0.00     0.085 A 
HETATM   38  C   UNK N   1      21.020  13.170   7.176  0.00  0.00    -0.039 A 
HETATM   39  C   UNK N   1      21.733  12.259   7.955  0.00  0.00     0.008 A 
HETATM   40  C   UNK N   1      20.691  12.785   5.774  0.00  0.00     0.050 C 
HETATM   41  C   UNK N   1      22.080  12.576   9.267  0.00  0.00     0.001 A 
HETATM   42  C   UNK N   1      21.708  13.806   9.813  0.00  0.00     0.002 A 
HETATM   43  C   UNK N   1      20.998  14.729   9.042  0.00  0.00     0.026 A 
ENDBRANCH  34  37
ENDBRANCH  32  34
ENDBRANCH   5  30
TORSDOF 9
ENDMDL
MODEL 6
REMARK VINA RESULT:      -7.8      2.832      5.877
REMARK  9 active torsions:
REMARK  status: ('A' for Active; 'I' for Inactive)
REMARK    1  A    between atoms: S_1  and  N_10 
REMARK    2  A    between atoms: S_1  and  C_34 
REMARK    3  A    between atoms: O_2  and  C_11 
REMARK    4  A    between atoms: O_2  and  C_16 
REMARK    5  A    between atoms: O_4  and  C_28 
REMARK       I    between atoms: N_9  and  C_16 
REMARK    6  A    between atoms: N_9  and  C_20 
REMARK       I    between atoms: N_10  and  C_33 
REMARK    7  A    between atoms: C_18  and  C_21 
REMARK    8  A    between atoms: C_21  and  C_26 
REMARK    9  A    between atoms: C_31  and  C_33 
ROOT
HETATM    1  C   UNK N   1      23.040  15.375   4.097  0.00  0.00    -0.020 C 
HETATM    2  C   UNK N   1      21.829  14.692   3.998  0.00  0.00     0.075 C 
HETATM    3  C   UNK N   1      24.255  14.674   4.035  0.00  0.00     0.011 C 
HETATM    4  C   UNK N   1      21.848  13.333   4.263  0.00  0.00     0.054 C 
HETATM    5  C   UNK N   1      23.048  12.674   4.539  0.00  0.00     0.035 C 
HETATM    6  C   UNK N   1      24.257  13.326   4.303  0.00  0.00     0.018 C 
ENDROOT
BRANCH   1   7
HETATM    7  C   UNK N   1      23.003  16.526   5.052  0.00  0.00     0.082 C 
BRANCH   7   8
HETATM    8  C   UNK N   1      22.883  17.803   4.214  0.00  0.00    -0.026 A 
HETATM    9  C   UNK N   1      23.951  18.581   4.063  0.00  0.00     0.001 A 
HETATM   10  C   UNK N   1      23.609  19.720   3.423  0.00  0.00     0.044 A 
HETATM   11  C   UNK N   1      25.202  18.268   4.434  0.00  0.00     0.044 A 
HETATM   12  N   UNK N   1      22.288  19.702   3.165  0.00  0.00    -0.360 N 
HETATM   13  C   UNK N   1      24.587  20.679   3.120  0.00  0.00     0.033 A 
HETATM   14  C   UNK N   1      21.806  18.518   3.649  0.00  0.00     0.099 A 
HETATM   15  C   UNK N   1      21.523  20.736   2.485  0.00  0.00     0.155 C 
HETATM   16  C   UNK N   1      25.941  20.326   3.396  0.00  0.00     0.032 A 
HETATM   17  C   UNK N   1      26.230  19.089   4.040  0.00  0.00     0.037 A 
BRANCH  17  18
HETATM   18  N   UNK N   1      27.466  18.434   3.841  0.00  0.00    -0.303 N 
HETATM   19  C   UNK N   1      28.434  18.573   4.818  0.00  0.00     0.365 C 
HETATM   20  O   UNK N   1      28.173  19.121   5.880  0.00  0.00    -0.238 OA
HETATM   21  H   UNK N   1      27.632  17.896   3.033  0.00  0.00     0.171 HD
BRANCH  19  22
HETATM   22  O   UNK N   1      29.669  18.063   4.675  0.00  0.00    -0.298 OA
BRANCH  22  23
HETATM   23  C   UNK N   1      30.054  16.763   4.876  0.00  0.00     0.133 C 
HETATM   24  C   UNK N   1      31.282  16.573   4.022  0.00  0.00     0.032 C 
HETATM   25  C   UNK N   1      32.387  17.286   4.789  0.00  0.00     0.002 C 
HETATM   26  C   UNK N   1      31.962  17.263   6.250  0.00  0.00     0.002 C 
HETATM   27  C   UNK N   1      30.616  16.569   6.271  0.00  0.00     0.032 C 
ENDBRANCH  22  23
ENDBRANCH  19  22
ENDBRANCH  17  18
ENDBRANCH   7   8
ENDBRANCH   1   7
BRANCH   2  28
HETATM   28  O   UNK N   1      20.636  15.329   3.866  0.00  0.00    -0.355 OA
HETATM   29  C   UNK N   1      19.822  15.186   2.759  0.00  0.00     0.210 C 
ENDBRANCH   2  28
BRANCH   5  30
HETATM   30  C   UNK N   1      23.064  11.563   5.513  0.00  0.00     0.265 C 
HETATM   31  O   UNK N   1      22.935  10.429   5.073  0.00  0.00    -0.267 OA
HETATM   32  N   UNK N   1      23.377  11.690   6.826  0.00  0.00    -0.246 N 
HETATM   33  H   UNK N   1      23.717  10.871   7.254  0.00  0.00     0.182 HD
BRANCH  32  34
HETATM   34  S   UNK N   1      23.268  13.092   7.886  0.00  0.00     0.266 S 
HETATM   35  O   UNK N   1      24.564  13.840   7.555  0.00  0.00    -0.200 OA
HETATM   36  O   UNK N   1      22.218  14.105   7.413  0.00  0.00    -0.200 OA
BRANCH  34  37
HETATM   37  C   UNK N   1      23.297  12.688   9.627  0.00  0.00     0.085 A 
HETATM   38  C   UNK N   1      22.113  12.685  10.401  0.00  0.00    -0.039 A 
HETATM   39  C   UNK N   1      22.167  12.305  11.742  0.00  0.00     0.008 A 
HETATM   40  C   UNK N   1      20.786  13.056   9.832  0.00  0.00     0.050 C 
HETATM   41  C   UNK N   1      23.380  11.934  12.320  0.00  0.00     0.001 A 
HETATM   42  C   UNK N   1      24.551  11.947  11.560  0.00  0.00     0.002 A 
HETATM   43  C   UNK N   1      24.510  12.321  10.215  0.00  0.00     0.026 A 
ENDBRANCH  34  37
ENDBRANCH  32  34
ENDBRANCH   5  30
TORSDOF 9
ENDMDL
MODEL 7
REMARK VINA RESULT:      -7.6      2.724      6.531
REMARK  9 active torsions:
REMARK  status: ('A' for Active; 'I' for Inactive)
REMARK    1  A    between atoms: S_1  and  N_10 
REMARK    2  A    between atoms: S_1  and  C_34 
REMARK    3  A    between atoms: O_2  and  C_11 
REMARK    4  A    between atoms: O_2  and  C_16 
REMARK    5  A    between atoms: O_4  and  C_28 
REMARK       I    between atoms: N_9  and  C_16 
REMARK    6  A    between atoms: N_9  and  C_20 
REMARK       I    between atoms: N_10  and  C_33 
REMARK    7  A    between atoms: C_18  and  C_21 
REMARK    8  A    between atoms: C_21  and  C_26 
REMARK    9  A    between atoms: C_31  and  C_33 
ROOT
HETATM    1  C   UNK N   1      22.131  15.810   5.123  0.00  0.00    -0.020 C 
HETATM    2  C   UNK N   1      21.765  15.159   6.301  0.00  0.00     0.075 C 
HETATM    3  C   UNK N   1      22.012  15.155   3.887  0.00  0.00     0.011 C 
HETATM    4  C   UNK N   1      21.699  13.776   6.263  0.00  0.00     0.054 C 
HETATM    5  C   UNK N   1      21.914  13.082   5.071  0.00  0.00     0.035 C 
HETATM    6  C   UNK N   1      21.950  13.783   3.867  0.00  0.00     0.018 C 
ENDROOT
BRANCH   1   7
HETATM    7  C   UNK N   1      23.326  16.697   5.276  0.00  0.00     0.082 C 
BRANCH   7   8
HETATM    8  C   UNK N   1      23.109  17.905   4.360  0.00  0.00    -0.026 A 
HETATM    9  C   UNK N   1      24.136  18.708   4.093  0.00  0.00     0.001 A 
HETATM   10  C   UNK N   1      23.714  19.785   3.397  0.00  0.00     0.044 A 
HETATM   11  C   UNK N   1      25.417  18.464   4.408  0.00  0.00     0.044 A 
HETATM   12  N   UNK N   1      22.382  19.704   3.221  0.00  0.00    -0.360 N 
HETATM   13  C   UNK N   1      24.635  20.753   2.970  0.00  0.00     0.033 A 
HETATM   14  C   UNK N   1      21.975  18.541   3.813  0.00  0.00     0.099 A 
HETATM   15  C   UNK N   1      21.540  20.660   2.518  0.00  0.00     0.155 C 
HETATM   16  C   UNK N   1      26.015  20.468   3.188  0.00  0.00     0.032 A 
HETATM   17  C   UNK N   1      26.389  19.290   3.898  0.00  0.00     0.037 A 
BRANCH  17  18
HETATM   18  N   UNK N   1      27.636  18.665   3.670  0.00  0.00    -0.303 N 
HETATM   19  C   UNK N   1      28.548  18.651   4.709  0.00  0.00     0.365 C 
HETATM   20  O   UNK N   1      28.227  19.034   5.825  0.00  0.00    -0.238 OA
HETATM   21  H   UNK N   1      27.847  18.254   2.801  0.00  0.00     0.171 HD
BRANCH  19  22
HETATM   22  O   UNK N   1      29.791  18.161   4.559  0.00  0.00    -0.298 OA
BRANCH  22  23
HETATM   23  C   UNK N   1      30.244  16.926   4.945  0.00  0.00     0.133 C 
HETATM   24  C   UNK N   1      30.767  16.280   3.687  0.00  0.00     0.032 C 
HETATM   25  C   UNK N   1      32.100  16.972   3.436  0.00  0.00     0.002 C 
HETATM   26  C   UNK N   1      32.585  17.447   4.798  0.00  0.00     0.002 C 
HETATM   27  C   UNK N   1      31.504  17.043   5.779  0.00  0.00     0.032 C 
ENDBRANCH  22  23
ENDBRANCH  19  22
ENDBRANCH  17  18
ENDBRANCH   7   8
ENDBRANCH   1   7
BRANCH   2  28
HETATM   28  O   UNK N   1      21.683  15.799   7.497  0.00  0.00    -0.355 OA
HETATM   29  C   UNK N   1      20.494  16.259   8.027  0.00  0.00     0.210 C 
ENDBRANCH   2  28
BRANCH   5  30
HETATM   30  C   UNK N   1      22.593  11.769   5.104  0.00  0.00     0.265 C 
HETATM   31  O   UNK N   1      21.982  10.833   5.602  0.00  0.00    -0.267 OA
HETATM   32  N   UNK N   1      23.762  11.487   4.478  0.00  0.00    -0.246 N 
HETATM   33  H   UNK N   1      23.898  10.537   4.259  0.00  0.00     0.182 HD
BRANCH  32  34
HETATM   34  S   UNK N   1      25.076  12.555   3.997  0.00  0.00     0.266 S 
HETATM   35  O   UNK N   1      26.213  11.561   3.737  0.00  0.00    -0.200 OA
HETATM   36  O   UNK N   1      24.874  13.140   2.594  0.00  0.00    -0.200 OA
BRANCH  34  37
HETATM   37  C   UNK N   1      25.609  13.673   5.286  0.00  0.00     0.085 A 
HETATM   38  C   UNK N   1      26.461  14.768   5.005  0.00  0.00    -0.039 A 
HETATM   39  C   UNK N   1      26.806  15.653   6.026  0.00  0.00     0.008 A 
HETATM   40  C   UNK N   1      26.997  15.030   3.640  0.00  0.00     0.050 C 
HETATM   41  C   UNK N   1      26.319  15.461   7.318  0.00  0.00     0.001 A 
HETATM   42  C   UNK N   1      25.486  14.376   7.600  0.00  0.00     0.002 A 
HETATM   43  C   UNK N   1      25.130  13.485   6.585  0.00  0.00     0.026 A 
ENDBRANCH  34  37
ENDBRANCH  32  34
ENDBRANCH   5  30
TORSDOF 9
ENDMDL
MODEL 8
REMARK VINA RESULT:      -7.5      7.871     11.131
REMARK  9 active torsions:
REMARK  status: ('A' for Active; 'I' for Inactive)
REMARK    1  A    between atoms: S_1  and  N_10 
REMARK    2  A    between atoms: S_1  and  C_34 
REMARK    3  A    between atoms: O_2  and  C_11 
REMARK    4  A    between atoms: O_2  and  C_16 
REMARK    5  A    between atoms: O_4  and  C_28 
REMARK       I    between atoms: N_9  and  C_16 
REMARK    6  A    between atoms: N_9  and  C_20 
REMARK       I    between atoms: N_10  and  C_33 
REMARK    7  A    between atoms: C_18  and  C_21 
REMARK    8  A    between atoms: C_21  and  C_26 
REMARK    9  A    between atoms: C_31  and  C_33 
ROOT
HETATM    1  C   UNK N   1      33.616  15.644   7.297  0.00  0.00    -0.020 C 
HETATM    2  C   UNK N   1      32.959  16.400   8.266  0.00  0.00     0.075 C 
HETATM    3  C   UNK N   1      34.528  14.646   7.675  0.00  0.00     0.011 C 
HETATM    4  C   UNK N   1      33.526  16.436   9.529  0.00  0.00     0.054 C 
HETATM    5  C   UNK N   1      34.662  15.680   9.826  0.00  0.00     0.035 C 
HETATM    6  C   UNK N   1      35.083  14.697   8.931  0.00  0.00     0.018 C 
ENDROOT
BRANCH   1   7
HETATM    7  C   UNK N   1      33.980  16.424   6.073  0.00  0.00     0.082 C 
BRANCH   7   8
HETATM    8  C   UNK N   1      33.736  15.511   4.868  0.00  0.00    -0.026 A 
HETATM    9  C   UNK N   1      32.505  15.400   4.377  0.00  0.00     0.001 A 
HETATM   10  C   UNK N   1      32.469  14.447   3.422  0.00  0.00     0.044 A 
HETATM   11  C   UNK N   1      31.456  16.161   4.727  0.00  0.00     0.044 A 
HETATM   12  N   UNK N   1      33.694  13.903   3.295  0.00  0.00    -0.360 N 
HETATM   13  C   UNK N   1      31.275  14.182   2.735  0.00  0.00     0.033 A 
HETATM   14  C   UNK N   1      34.507  14.546   4.186  0.00  0.00     0.099 A 
HETATM   15  C   UNK N   1      34.083  12.847   2.372  0.00  0.00     0.155 C 
HETATM   16  C   UNK N   1      30.174  15.048   3.002  0.00  0.00     0.032 A 
HETATM   17  C   UNK N   1      30.297  16.059   3.998  0.00  0.00     0.037 A 
BRANCH  17  18
HETATM   18  N   UNK N   1      29.536  17.247   3.929  0.00  0.00    -0.303 N 
HETATM   19  C   UNK N   1      28.373  17.311   4.674  0.00  0.00     0.365 C 
HETATM   20  O   UNK N   1      28.096  16.429   5.474  0.00  0.00    -0.238 OA
HETATM   21  H   UNK N   1      29.824  18.004   3.370  0.00  0.00     0.171 HD
BRANCH  19  22
HETATM   22  O   UNK N   1      27.538  18.363   4.603  0.00  0.00    -0.298 OA
BRANCH  22  23
HETATM   23  C   UNK N   1      27.877  19.672   4.377  0.00  0.00     0.133 C 
HETATM   24  C   UNK N   1      26.780  20.223   3.501  0.00  0.00     0.032 C 
HETATM   25  C   UNK N   1      25.607  20.425   4.450  0.00  0.00     0.002 C 
HETATM   26  C   UNK N   1      26.217  20.627   5.829  0.00  0.00     0.002 C 
HETATM   27  C   UNK N   1      27.714  20.503   5.634  0.00  0.00     0.032 C 
ENDBRANCH  22  23
ENDBRANCH  19  22
ENDBRANCH  17  18
ENDBRANCH   7   8
ENDBRANCH   1   7
BRANCH   2  28
HETATM   28  O   UNK N   1      31.938  17.245   7.969  0.00  0.00    -0.355 OA
HETATM   29  C   UNK N   1      30.611  16.932   8.188  0.00  0.00     0.210 C 
ENDBRANCH   2  28
BRANCH   5  30
HETATM   30  C   UNK N   1      35.676  16.220  10.756  0.00  0.00     0.265 C 
HETATM   31  O   UNK N   1      36.110  17.340  10.525  0.00  0.00    -0.267 OA
HETATM   32  N   UNK N   1      36.035  15.642  11.929  0.00  0.00    -0.246 N 
HETATM   33  H   UNK N   1      36.404  16.260  12.601  0.00  0.00     0.182 HD
BRANCH  32  34
HETATM   34  S   UNK N   1      35.945  13.959  12.437  0.00  0.00     0.266 S 
HETATM   35  O   UNK N   1      36.748  13.978  13.742  0.00  0.00    -0.200 OA
HETATM   36  O   UNK N   1      34.554  13.575  12.956  0.00  0.00    -0.200 OA
BRANCH  34  37
HETATM   37  C   UNK N   1      36.749  12.821  11.317  0.00  0.00     0.085 A 
HETATM   38  C   UNK N   1      36.094  11.652  10.861  0.00  0.00    -0.039 A 
HETATM   39  C   UNK N   1      36.731  10.819   9.940  0.00  0.00     0.008 A 
HETATM   40  C   UNK N   1      34.725  11.276  11.314  0.00  0.00     0.050 C 
HETATM   41  C   UNK N   1      38.006  11.133   9.472  0.00  0.00     0.001 A 
HETATM   42  C   UNK N   1      38.658  12.281   9.929  0.00  0.00     0.002 A 
HETATM   43  C   UNK N   1      38.029  13.124  10.848  0.00  0.00     0.026 A 
ENDBRANCH  34  37
ENDBRANCH  32  34
ENDBRANCH   5  30
TORSDOF 9
ENDMDL
MODEL 9
REMARK VINA RESULT:      -7.4     10.392     13.638
REMARK  9 active torsions:
REMARK  status: ('A' for Active; 'I' for Inactive)
REMARK    1  A    between atoms: S_1  and  N_10 
REMARK    2  A    between atoms: S_1  and  C_34 
REMARK    3  A    between atoms: O_2  and  C_11 
REMARK    4  A    between atoms: O_2  and  C_16 
REMARK    5  A    between atoms: O_4  and  C_28 
REMARK       I    between atoms: N_9  and  C_16 
REMARK    6  A    between atoms: N_9  and  C_20 
REMARK       I    between atoms: N_10  and  C_33 
REMARK    7  A    between atoms: C_18  and  C_21 
REMARK    8  A    between atoms: C_21  and  C_26 
REMARK    9  A    between atoms: C_31  and  C_33 
ROOT
HETATM    1  C   UNK N   1      34.814   9.113  11.329  0.00  0.00    -0.020 C 
HETATM    2  C   UNK N   1      35.696   9.297  10.264  0.00  0.00     0.075 C 
HETATM    3  C   UNK N   1      34.137   7.893  11.484  0.00  0.00     0.011 C 
HETATM    4  C   UNK N   1      35.559   8.447   9.179  0.00  0.00     0.054 C 
HETATM    5  C   UNK N   1      34.628   7.406   9.197  0.00  0.00     0.035 C 
HETATM    6  C   UNK N   1      34.009   7.062  10.397  0.00  0.00     0.018 C 
ENDROOT
BRANCH   1   7
HETATM    7  C   UNK N   1      34.030  10.339  11.676  0.00  0.00     0.082 C 
BRANCH   7   8
HETATM    8  C   UNK N   1      34.651  10.926  12.947  0.00  0.00    -0.026 A 
HETATM    9  C   UNK N   1      35.131  12.166  12.921  0.00  0.00     0.001 A 
HETATM   10  C   UNK N   1      35.762  12.445  14.081  0.00  0.00     0.044 A 
HETATM   11  C   UNK N   1      34.966  13.043  11.919  0.00  0.00     0.044 A 
HETATM   12  N   UNK N   1      35.718  11.361  14.879  0.00  0.00    -0.360 N 
HETATM   13  C   UNK N   1      36.317  13.715  14.294  0.00  0.00     0.033 A 
HETATM   14  C   UNK N   1      35.031  10.396  14.198  0.00  0.00     0.099 A 
HETATM   15  C   UNK N   1      36.276  11.247  16.218  0.00  0.00     0.155 C 
HETATM   16  C   UNK N   1      36.060  14.704  13.299  0.00  0.00     0.032 A 
HETATM   17  C   UNK N   1      35.353  14.347  12.116  0.00  0.00     0.037 A 
BRANCH  17  18
HETATM   18  N   UNK N   1      34.594  15.302  11.403  0.00  0.00    -0.303 N 
HETATM   19  C   UNK N   1      35.267  16.137  10.531  0.00  0.00     0.365 C 
HETATM   20  O   UNK N   1      36.449  15.954  10.279  0.00  0.00    -0.238 OA
HETATM   21  H   UNK N   1      33.619  15.370  11.523  0.00  0.00     0.171 HD
BRANCH  19  22
HETATM   22  O   UNK N   1      34.645  17.135   9.877  0.00  0.00    -0.298 OA
BRANCH  22  23
HETATM   23  C   UNK N   1      34.620  17.346   8.523  0.00  0.00     0.133 C 
HETATM   24  C   UNK N   1      33.906  16.150   7.946  0.00  0.00     0.032 C 
HETATM   25  C   UNK N   1      32.438  16.398   8.268  0.00  0.00     0.002 C 
HETATM   26  C   UNK N   1      32.288  17.907   8.388  0.00  0.00     0.002 C 
HETATM   27  C   UNK N   1      33.674  18.474   8.163  0.00  0.00     0.032 C 
ENDBRANCH  22  23
ENDBRANCH  19  22
ENDBRANCH  17  18
ENDBRANCH   7   8
ENDBRANCH   1   7
BRANCH   2  28
HETATM   28  O   UNK N   1      36.512  10.377  10.167  0.00  0.00    -0.355 OA
HETATM   29  C   UNK N   1      37.735  10.460  10.803  0.00  0.00     0.210 C 
ENDBRANCH   2  28
BRANCH   5  30
HETATM   30  C   UNK N   1      33.931   7.029   7.949  0.00  0.00     0.265 C 
HETATM   31  O   UNK N   1      34.321   6.025   7.370  0.00  0.00    -0.267 OA
HETATM   32  N   UNK N   1      32.794   7.610   7.493  0.00  0.00    -0.246 N 
HETATM   33  H   UNK N   1      32.246   7.044   6.903  0.00  0.00     0.182 HD
BRANCH  32  34
HETATM   34  S   UNK N   1      32.146   9.219   7.791  0.00  0.00     0.266 S 
HETATM   35  O   UNK N   1      31.082   9.340   6.694  0.00  0.00    -0.200 OA
HETATM   36  O   UNK N   1      31.273   9.277   9.051  0.00  0.00    -0.200 OA
BRANCH  34  37
HETATM   37  C   UNK N   1      33.332  10.534   7.551  0.00  0.00     0.085 A 
HETATM   38  C   UNK N   1      34.124  10.605   6.380  0.00  0.00    -0.039 A 
HETATM   39  C   UNK N   1      34.995  11.680   6.201  0.00  0.00     0.008 A 
HETATM   40  C   UNK N   1      34.051   9.577   5.304  0.00  0.00     0.050 C 
HETATM   41  C   UNK N   1      35.090  12.678   7.170  0.00  0.00     0.001 A 
HETATM   42  C   UNK N   1      34.317  12.603   8.331  0.00  0.00     0.002 A 
HETATM   43  C   UNK N   1      33.438  11.534   8.520  0.00  0.00     0.026 A 
ENDBRANCH  34  37
ENDBRANCH  32  34
ENDBRANCH   5  30
TORSDOF 9
ENDMDL
