MODEL 1
REMARK VINA RESULT:      -4.9      0.000      0.000
REMARK  2 active torsions:
REMARK  status: ('A' for Active; 'I' for Inactive)
REMARK    1  A    between atoms: C_5  and  C_6 
REMARK    2  A    between atoms: C_5  and  C_7 
ROOT
HETATM    1  S   UNK N   1      34.316  14.814  10.050  0.00  0.00    -0.040 SA
HETATM    2  O   UNK N   1      35.270  18.982   8.200  0.00  0.00    -0.268 OA
HETATM    3  N   UNK N   1      32.589  16.227   9.129  0.00  0.00    -0.337 N 
HETATM    4  N   UNK N   1      34.822  16.974   9.093  0.00  0.00    -0.300 N 
HETATM    5  C   UNK N   1      32.165  17.368   8.525  0.00  0.00     0.017 A 
HETATM    6  C   UNK N   1      33.097  18.356   8.187  0.00  0.00     0.099 A 
HETATM    7  C   UNK N   1      33.902  16.026   9.413  0.00  0.00     0.178 A 
HETATM    8  C   UNK N   1      34.440  18.139   8.483  0.00  0.00     0.249 A 
HETATM    9  H   UNK N   1      31.932  15.533   9.366  0.00  0.00     0.168 HD
HETATM   10  H   UNK N   1      35.772  16.821   9.301  0.00  0.00     0.171 HD
ENDROOT
BRANCH   5  11
HETATM   11  C   UNK N   1      30.704  17.530   8.239  0.00  0.00     0.057 C 
BRANCH  11  12
HETATM   12  C   UNK N   1      30.002  18.513   9.159  0.00  0.00     0.002 C 
HETATM   13  C   UNK N   1      28.525  18.189   9.190  0.00  0.00     0.005 C 
ENDBRANCH  11  12
ENDBRANCH   5  11
TORSDOF 2
ENDMDL
MODEL 2
REMARK VINA RESULT:      -4.7      2.415      2.937
REMARK  2 active torsions:
REMARK  status: ('A' for Active; 'I' for Inactive)
REMARK    1  A    between atoms: C_5  and  C_6 
REMARK    2  A    between atoms: C_5  and  C_7 
ROOT
HETATM    1  S   UNK N   1      34.029  15.139  10.308  0.00  0.00    -0.040 SA
HETATM    2  O   UNK N   1      35.259  19.241   8.473  0.00  0.00    -0.268 OA
HETATM    3  N   UNK N   1      33.310  15.819   8.107  0.00  0.00    -0.337 N 
HETATM    4  N   UNK N   1      34.673  17.269   9.366  0.00  0.00    -0.300 N 
HETATM    5  C   UNK N   1      33.267  16.704   7.076  0.00  0.00     0.017 A 
HETATM    6  C   UNK N   1      33.950  17.922   7.185  0.00  0.00     0.099 A 
HETATM    7  C   UNK N   1      34.004  16.093   9.242  0.00  0.00     0.178 A 
HETATM    8  C   UNK N   1      34.658  18.191   8.353  0.00  0.00     0.249 A 
HETATM    9  H   UNK N   1      32.829  14.964   8.028  0.00  0.00     0.168 HD
HETATM   10  H   UNK N   1      35.173  17.460  10.192  0.00  0.00     0.171 HD
ENDROOT
BRANCH   5  11
HETATM   11  C   UNK N   1      32.485  16.344   5.851  0.00  0.00     0.057 C 
BRANCH  11  12
HETATM   12  C   UNK N   1      32.302  17.496   4.878  0.00  0.00     0.002 C 
HETATM   13  C   UNK N   1      32.824  17.080   3.521  0.00  0.00     0.005 C 
ENDBRANCH  11  12
ENDBRANCH   5  11
TORSDOF 2
ENDMDL
MODEL 3
REMARK VINA RESULT:      -4.7      6.845      8.110
REMARK  2 active torsions:
REMARK  status: ('A' for Active; 'I' for Inactive)
REMARK    1  A    between atoms: C_5  and  C_6 
REMARK    2  A    between atoms: C_5  and  C_7 
ROOT
HETATM    1  S   UNK N   1      35.924  14.534  11.556  0.00  0.00    -0.040 SA
HETATM    2  O   UNK N   1      37.594  14.947  15.885  0.00  0.00    -0.268 OA
HETATM    3  N   UNK N   1      35.098  13.181  13.376  0.00  0.00    -0.337 N 
HETATM    4  N   UNK N   1      36.797  14.757  13.798  0.00  0.00    -0.300 N 
HETATM    5  C   UNK N   1      35.090  12.795  14.680  0.00  0.00     0.017 A 
HETATM    6  C   UNK N   1      35.966  13.407  15.585  0.00  0.00     0.099 A 
HETATM    7  C   UNK N   1      35.941  14.151  12.934  0.00  0.00     0.178 A 
HETATM    8  C   UNK N   1      36.824  14.400  15.120  0.00  0.00     0.249 A 
HETATM    9  H   UNK N   1      34.482  12.749  12.741  0.00  0.00     0.168 HD
HETATM   10  H   UNK N   1      37.404  15.458  13.470  0.00  0.00     0.171 HD
ENDROOT
BRANCH   5  11
HETATM   11  C   UNK N   1      34.139  11.720  15.106  0.00  0.00     0.057 C 
BRANCH  11  12
HETATM   12  C   UNK N   1      33.916  10.644  14.058  0.00  0.00     0.002 C 
HETATM   13  C   UNK N   1      34.998   9.596  14.192  0.00  0.00     0.005 C 
ENDBRANCH  11  12
ENDBRANCH   5  11
TORSDOF 2
ENDMDL
MODEL 4
REMARK VINA RESULT:      -4.6      3.075      3.833
REMARK  2 active torsions:
REMARK  status: ('A' for Active; 'I' for Inactive)
REMARK    1  A    between atoms: C_5  and  C_6 
REMARK    2  A    between atoms: C_5  and  C_7 
ROOT
HETATM    1  S   UNK N   1      30.265  17.205   8.664  0.00  0.00    -0.040 SA
HETATM    2  O   UNK N   1      34.831  17.605   9.502  0.00  0.00    -0.268 OA
HETATM    3  N   UNK N   1      31.885  17.320   6.878  0.00  0.00    -0.337 N 
HETATM    4  N   UNK N   1      32.631  17.413   9.110  0.00  0.00    -0.300 N 
HETATM    5  C   UNK N   1      33.159  17.423   6.416  0.00  0.00     0.017 A 
HETATM    6  C   UNK N   1      34.217  17.525   7.327  0.00  0.00     0.099 A 
HETATM    7  C   UNK N   1      31.618  17.315   8.210  0.00  0.00     0.178 A 
HETATM    8  C   UNK N   1      33.930  17.518   8.689  0.00  0.00     0.249 A 
HETATM    9  H   UNK N   1      31.143  17.249   6.236  0.00  0.00     0.168 HD
HETATM   10  H   UNK N   1      32.429  17.408  10.074  0.00  0.00     0.171 HD
ENDROOT
BRANCH   5  11
HETATM   11  C   UNK N   1      33.390  17.423   4.936  0.00  0.00     0.057 C 
BRANCH  11  12
HETATM   12  C   UNK N   1      32.138  17.688   4.118  0.00  0.00     0.002 C 
HETATM   13  C   UNK N   1      32.239  16.940   2.808  0.00  0.00     0.005 C 
ENDBRANCH  11  12
ENDBRANCH   5  11
TORSDOF 2
ENDMDL
MODEL 5
REMARK VINA RESULT:      -4.4     11.469     12.256
REMARK  2 active torsions:
REMARK  status: ('A' for Active; 'I' for Inactive)
REMARK    1  A    between atoms: C_5  and  C_6 
REMARK    2  A    between atoms: C_5  and  C_7 
ROOT
HETATM    1  S   UNK N   1      24.488  11.999  10.771  0.00  0.00    -0.040 SA
HETATM    2  O   UNK N   1      19.983  11.832  11.944  0.00  0.00    -0.268 OA
HETATM    3  N   UNK N   1      22.841  13.410   9.711  0.00  0.00    -0.337 N 
HETATM    4  N   UNK N   1      22.154  11.904  11.387  0.00  0.00    -0.300 N 
HETATM    5  C   UNK N   1      21.567  13.855   9.545  0.00  0.00     0.017 A 
HETATM    6  C   UNK N   1      20.540  13.309  10.325  0.00  0.00     0.099 A 
HETATM    7  C   UNK N   1      23.137  12.445  10.621  0.00  0.00     0.178 A 
HETATM    8  C   UNK N   1      20.856  12.322  11.254  0.00  0.00     0.249 A 
HETATM    9  H   UNK N   1      23.562  13.794   9.162  0.00  0.00     0.168 HD
HETATM   10  H   UNK N   1      22.376  11.206  12.044  0.00  0.00     0.171 HD
ENDROOT
BRANCH   5  11
HETATM   11  C   UNK N   1      21.304  14.920   8.527  0.00  0.00     0.057 C 
BRANCH  11  12
HETATM   12  C   UNK N   1      20.126  15.817   8.864  0.00  0.00     0.002 C 
HETATM   13  C   UNK N   1      19.657  16.507   7.603  0.00  0.00     0.005 C 
ENDBRANCH  11  12
ENDBRANCH   5  11
TORSDOF 2
ENDMDL
MODEL 6
REMARK VINA RESULT:      -4.3     11.476     12.074
REMARK  2 active torsions:
REMARK  status: ('A' for Active; 'I' for Inactive)
REMARK    1  A    between atoms: C_5  and  C_6 
REMARK    2  A    between atoms: C_5  and  C_7 
ROOT
HETATM    1  S   UNK N   1      23.339  10.861   6.709  0.00  0.00    -0.040 SA
HETATM    2  O   UNK N   1      20.238  13.727   8.676  0.00  0.00    -0.268 OA
HETATM    3  N   UNK N   1      23.450  11.449   9.047  0.00  0.00    -0.337 N 
HETATM    4  N   UNK N   1      21.725  12.348   7.719  0.00  0.00    -0.300 N 
HETATM    5  C   UNK N   1      22.989  12.106  10.145  0.00  0.00     0.017 A 
HETATM    6  C   UNK N   1      21.853  12.917  10.035  0.00  0.00     0.099 A 
HETATM    7  C   UNK N   1      22.829  11.565   7.844  0.00  0.00     0.178 A 
HETATM    8  C   UNK N   1      21.226  13.028   8.798  0.00  0.00     0.249 A 
HETATM    9  H   UNK N   1      24.248  10.879   9.126  0.00  0.00     0.168 HD
HETATM   10  H   UNK N   1      21.281  12.427   6.844  0.00  0.00     0.171 HD
ENDROOT
BRANCH   5  11
HETATM   11  C   UNK N   1      23.717  11.937  11.442  0.00  0.00     0.057 C 
BRANCH  11  12
HETATM   12  C   UNK N   1      22.803  11.802  12.648  0.00  0.00     0.002 C 
HETATM   13  C   UNK N   1      23.556  12.235  13.885  0.00  0.00     0.005 C 
ENDBRANCH  11  12
ENDBRANCH   5  11
TORSDOF 2
ENDMDL
MODEL 7
REMARK VINA RESULT:      -4.2     14.401     14.735
REMARK  2 active torsions:
REMARK  status: ('A' for Active; 'I' for Inactive)
REMARK    1  A    between atoms: C_5  and  C_6 
REMARK    2  A    between atoms: C_5  and  C_7 
ROOT
HETATM    1  S   UNK N   1      31.023  20.711  -5.396  0.00  0.00    -0.040 SA
HETATM    2  O   UNK N   1      30.469  22.980  -1.364  0.00  0.00    -0.268 OA
HETATM    3  N   UNK N   1      29.471  22.546  -5.167  0.00  0.00    -0.337 N 
HETATM    4  N   UNK N   1      30.744  21.881  -3.300  0.00  0.00    -0.300 N 
HETATM    5  C   UNK N   1      28.863  23.523  -4.443  0.00  0.00     0.017 A 
HETATM    6  C   UNK N   1      29.202  23.694  -3.095  0.00  0.00     0.099 A 
HETATM    7  C   UNK N   1      30.402  21.730  -4.606  0.00  0.00     0.178 A 
HETATM    8  C   UNK N   1      30.157  22.852  -2.533  0.00  0.00     0.249 A 
HETATM    9  H   UNK N   1      29.232  22.427  -6.114  0.00  0.00     0.168 HD
HETATM   10  H   UNK N   1      31.420  21.286  -2.901  0.00  0.00     0.171 HD
ENDROOT
BRANCH   5  11
HETATM   11  C   UNK N   1      27.845  24.389  -5.117  0.00  0.00     0.057 C 
BRANCH  11  12
HETATM   12  C   UNK N   1      26.462  24.311  -4.495  0.00  0.00     0.002 C 
HETATM   13  C   UNK N   1      25.507  25.149  -5.315  0.00  0.00     0.005 C 
ENDBRANCH  11  12
ENDBRANCH   5  11
TORSDOF 2
ENDMDL
MODEL 8
REMARK VINA RESULT:      -4.2      5.846      7.613
REMARK  2 active torsions:
REMARK  status: ('A' for Active; 'I' for Inactive)
REMARK    1  A    between atoms: C_5  and  C_6 
REMARK    2  A    between atoms: C_5  and  C_7 
ROOT
HETATM    1  S   UNK N   1      38.307  12.727  10.572  0.00  0.00    -0.040 SA
HETATM    2  O   UNK N   1      34.206  14.706  11.558  0.00  0.00    -0.268 OA
HETATM    3  N   UNK N   1      37.438  12.807  12.822  0.00  0.00    -0.337 N 
HETATM    4  N   UNK N   1      36.179  13.756  11.072  0.00  0.00    -0.300 N 
HETATM    5  C   UNK N   1      36.489  13.152  13.733  0.00  0.00     0.017 A 
HETATM    6  C   UNK N   1      35.337  13.824  13.306  0.00  0.00     0.099 A 
HETATM    7  C   UNK N   1      37.290  13.104  11.504  0.00  0.00     0.178 A 
HETATM    8  C   UNK N   1      35.197  14.122  11.954  0.00  0.00     0.249 A 
HETATM    9  H   UNK N   1      38.247  12.335  13.123  0.00  0.00     0.168 HD
HETATM   10  H   UNK N   1      36.079  13.967  10.116  0.00  0.00     0.171 HD
ENDROOT
BRANCH   5  11
HETATM   11  C   UNK N   1      36.710  12.797  15.171  0.00  0.00     0.057 C 
BRANCH  11  12
HETATM   12  C   UNK N   1      35.434  12.475  15.928  0.00  0.00     0.002 C 
HETATM   13  C   UNK N   1      35.377  13.323  17.179  0.00  0.00     0.005 C 
ENDBRANCH  11  12
ENDBRANCH   5  11
TORSDOF 2
ENDMDL
MODEL 9
REMARK VINA RESULT:      -4.2      7.745      9.276
REMARK  2 active torsions:
REMARK  status: ('A' for Active; 'I' for Inactive)
REMARK    1  A    between atoms: C_5  and  C_6 
REMARK    2  A    between atoms: C_5  and  C_7 
ROOT
HETATM    1  S   UNK N   1      35.901  14.285  13.085  0.00  0.00    -0.040 SA
HETATM    2  O   UNK N   1      33.572  10.257  12.846  0.00  0.00    -0.268 OA
HETATM    3  N   UNK N   1      35.491  12.930  15.040  0.00  0.00    -0.337 N 
HETATM    4  N   UNK N   1      34.692  12.197  12.949  0.00  0.00    -0.300 N 
HETATM    5  C   UNK N   1      34.980  11.831  15.656  0.00  0.00     0.017 A 
HETATM    6  C   UNK N   1      34.297  10.872  14.897  0.00  0.00     0.099 A 
HETATM    7  C   UNK N   1      35.351  13.116  13.702  0.00  0.00     0.178 A 
HETATM    8  C   UNK N   1      34.161  11.074  13.527  0.00  0.00     0.249 A 
HETATM    9  H   UNK N   1      35.971  13.603  15.575  0.00  0.00     0.168 HD
HETATM   10  H   UNK N   1      34.594  12.339  11.980  0.00  0.00     0.171 HD
ENDROOT
BRANCH   5  11
HETATM   11  C   UNK N   1      35.167  11.682  17.134  0.00  0.00     0.057 C 
BRANCH  11  12
HETATM   12  C   UNK N   1      35.142  12.997  17.893  0.00  0.00     0.002 C 
HETATM   13  C   UNK N   1      35.281  12.713  19.372  0.00  0.00     0.005 C 
ENDBRANCH  11  12
ENDBRANCH   5  11
TORSDOF 2
ENDMDL
