MODEL 1
REMARK VINA RESULT:      -6.2      0.000      0.000
REMARK  2 active torsions:
REMARK  status: ('A' for Active; 'I' for Inactive)
REMARK    1  A    between atoms: N_7  and  C_15 
REMARK       I    between atoms: N_10  and  C_19 
REMARK    2  A    between atoms: C_11  and  C_12 
ROOT
HETATM    1  N   UNK N   1      34.135  17.249   9.642  0.00  0.00    -0.282 N 
ATOM      2  HN  UNK N   1      34.058  18.192   9.261  1.00  0.00     0.187 HD
HETATM    3  N   UNK N   1      34.393  14.765  10.677  0.00  0.00    -0.174 N 
ATOM      4  HN  UNK N   1      34.504  13.832  11.074  1.00  0.00     0.186 HD
HETATM    5  N   UNK N   1      35.043  17.011  10.586  0.00  0.00    -0.132 N 
ATOM      6  HN  UNK N   1      35.643  17.769  10.912  1.00  0.00     0.205 HD
HETATM    7  N   UNK N   1      36.122  15.546  12.138  0.00  0.00    -0.233 N 
HETATM    8  C   UNK N   1      33.308  16.280   9.168  0.00  0.00     0.104 A 
HETATM    9  C   UNK N   1      33.461  14.976   9.713  0.00  0.00     0.144 A 
HETATM   10  C   UNK N   1      35.178  15.775  11.119  0.00  0.00     0.692 A 
HETATM   11  H   UNK N   1      36.258  14.636  12.487  0.00  0.00     0.174 HD
HETATM   12  H   UNK N   1      36.646  16.296  12.501  0.00  0.00     0.174 HD
ENDROOT
BRANCH   8  13
HETATM   13  C   UNK N   1      32.277  16.636   8.118  0.00  0.00     0.019 A 
HETATM   14  C   UNK N   1      32.604  16.817   6.735  0.00  0.00     0.068 A 
HETATM   15 Cl   UNK N   1      34.247  16.638   6.100  0.00  0.00    -0.082 Cl
HETATM   16  C   UNK N   1      31.589  17.158   5.817  0.00  0.00     0.056 A 
HETATM   17 Cl   UNK N   1      31.938  17.382   4.107  0.00  0.00    -0.083 Cl
HETATM   18  C   UNK N   1      30.275  17.327   6.246  0.00  0.00     0.026 A 
HETATM   19  C   UNK N   1      29.949  17.159   7.586  0.00  0.00     0.003 A 
HETATM   20  C   UNK N   1      30.937  16.818   8.504  0.00  0.00     0.016 A 
ENDBRANCH   8  13
BRANCH   9  21
HETATM   21  N   UNK N   1      32.667  13.888   9.294  0.00  0.00    -0.383 N 
HETATM   22  H   UNK N   1      33.064  12.992   9.198  0.00  0.00     0.157 HD
HETATM   23  H   UNK N   1      31.712  14.025   9.096  0.00  0.00     0.157 HD
ENDBRANCH   9  21
TORSDOF 2
ENDMDL
MODEL 2
REMARK VINA RESULT:      -6.1      2.135      2.795
REMARK  2 active torsions:
REMARK  status: ('A' for Active; 'I' for Inactive)
REMARK    1  A    between atoms: N_7  and  C_15 
REMARK       I    between atoms: N_10  and  C_19 
REMARK    2  A    between atoms: C_11  and  C_12 
ROOT
HETATM    1  N   UNK N   1      32.532  15.252   9.868  0.00  0.00    -0.282 N 
ATOM      2  HN  UNK N   1      31.736  14.614   9.869  1.00  0.00     0.187 HD
HETATM    3  N   UNK N   1      34.655  16.923   9.922  0.00  0.00    -0.174 N 
ATOM      4  HN  UNK N   1      35.460  17.549   9.955  1.00  0.00     0.186 HD
HETATM    5  N   UNK N   1      33.488  15.086  10.779  0.00  0.00    -0.132 N 
ATOM      6  HN  UNK N   1      33.412  14.329  11.458  1.00  0.00     0.205 HD
HETATM    7  N   UNK N   1      35.578  15.703  11.763  0.00  0.00    -0.233 N 
HETATM    8  C   UNK N   1      32.577  16.243   8.937  0.00  0.00     0.104 A 
HETATM    9  C   UNK N   1      33.695  17.121   8.983  0.00  0.00     0.144 A 
HETATM   10  C   UNK N   1      34.560  15.909  10.813  0.00  0.00     0.692 A 
HETATM   11  H   UNK N   1      36.331  16.334  11.823  0.00  0.00     0.174 HD
HETATM   12  H   UNK N   1      35.537  14.927  12.368  0.00  0.00     0.174 HD
ENDROOT
BRANCH   8  13
HETATM   13  C   UNK N   1      31.469  16.346   7.912  0.00  0.00     0.019 A 
HETATM   14  C   UNK N   1      30.439  17.341   7.976  0.00  0.00     0.068 A 
HETATM   15 Cl   UNK N   1      30.354  18.561   9.255  0.00  0.00    -0.082 Cl
HETATM   16  C   UNK N   1      29.433  17.367   6.987  0.00  0.00     0.056 A 
HETATM   17 Cl   UNK N   1      28.153  18.574   7.017  0.00  0.00    -0.083 Cl
HETATM   18  C   UNK N   1      29.430  16.431   5.957  0.00  0.00     0.026 A 
HETATM   19  C   UNK N   1      30.421  15.460   5.889  0.00  0.00     0.003 A 
HETATM   20  C   UNK N   1      31.424  15.422   6.853  0.00  0.00     0.016 A 
ENDBRANCH   8  13
BRANCH   9  21
HETATM   21  N   UNK N   1      33.847  18.190   8.076  0.00  0.00    -0.383 N 
HETATM   22  H   UNK N   1      33.528  18.101   7.148  0.00  0.00     0.157 HD
HETATM   23  H   UNK N   1      34.274  19.027   8.370  0.00  0.00     0.157 HD
ENDBRANCH   9  21
TORSDOF 2
ENDMDL
MODEL 3
REMARK VINA RESULT:      -6.1      6.924      9.777
REMARK  2 active torsions:
REMARK  status: ('A' for Active; 'I' for Inactive)
REMARK    1  A    between atoms: N_7  and  C_15 
REMARK       I    between atoms: N_10  and  C_19 
REMARK    2  A    between atoms: C_11  and  C_12 
ROOT
HETATM    1  N   UNK N   1      36.780  14.170  14.839  0.00  0.00    -0.282 N 
ATOM      2  HN  UNK N   1      37.356  14.369  15.658  1.00  0.00     0.187 HD
HETATM    3  N   UNK N   1      35.266  13.700  12.650  0.00  0.00    -0.174 N 
ATOM      4  HN  UNK N   1      34.699  13.536  11.819  1.00  0.00     0.186 HD
HETATM    5  N   UNK N   1      36.863  14.978  13.785  0.00  0.00    -0.132 N 
ATOM      6  HN  UNK N   1      37.497  15.777  13.810  1.00  0.00     0.205 HD
HETATM    7  N   UNK N   1      36.240  15.597  11.561  0.00  0.00    -0.233 N 
HETATM    8  C   UNK N   1      35.954  13.090  14.865  0.00  0.00     0.104 A 
HETATM    9  C   UNK N   1      35.156  12.860  13.711  0.00  0.00     0.144 A 
HETATM   10  C   UNK N   1      36.119  14.750  12.679  0.00  0.00     0.692 A 
HETATM   11  H   UNK N   1      35.659  15.463  10.777  0.00  0.00     0.174 HD
HETATM   12  H   UNK N   1      36.906  16.321  11.562  0.00  0.00     0.174 HD
ENDROOT
BRANCH   8  13
HETATM   13  C   UNK N   1      35.940  12.198  16.087  0.00  0.00     0.019 A 
HETATM   14  C   UNK N   1      36.576  10.914  16.122  0.00  0.00     0.068 A 
HETATM   15 Cl   UNK N   1      37.453  10.234  14.743  0.00  0.00    -0.082 Cl
HETATM   16  C   UNK N   1      36.510  10.135  17.296  0.00  0.00     0.056 A 
HETATM   17 Cl   UNK N   1      37.282   8.557  17.391  0.00  0.00    -0.083 Cl
HETATM   18  C   UNK N   1      35.828  10.600  18.417  0.00  0.00     0.026 A 
HETATM   19  C   UNK N   1      35.205  11.841  18.391  0.00  0.00     0.003 A 
HETATM   20  C   UNK N   1      35.262  12.625  17.243  0.00  0.00     0.016 A 
ENDBRANCH   8  13
BRANCH   9  21
HETATM   21  N   UNK N   1      34.256  11.778  13.623  0.00  0.00    -0.383 N 
HETATM   22  H   UNK N   1      33.336  11.869  13.964  0.00  0.00     0.157 HD
HETATM   23  H   UNK N   1      34.548  10.928  13.221  0.00  0.00     0.157 HD
ENDBRANCH   9  21
TORSDOF 2
ENDMDL
MODEL 4
REMARK VINA RESULT:      -6.0      6.258      9.300
REMARK  2 active torsions:
REMARK  status: ('A' for Active; 'I' for Inactive)
REMARK    1  A    between atoms: N_7  and  C_15 
REMARK       I    between atoms: N_10  and  C_19 
REMARK    2  A    between atoms: C_11  and  C_12 
ROOT
HETATM    1  N   UNK N   1      34.859  12.790  12.628  0.00  0.00    -0.282 N 
ATOM      2  HN  UNK N   1      34.457  11.853  12.600  1.00  0.00     0.187 HD
HETATM    3  N   UNK N   1      35.902  15.284  12.646  0.00  0.00    -0.174 N 
ATOM      4  HN  UNK N   1      36.291  16.226  12.639  1.00  0.00     0.186 HD
HETATM    5  N   UNK N   1      34.507  13.667  11.690  0.00  0.00    -0.132 N 
ATOM      6  HN  UNK N   1      33.846  13.391  10.964  1.00  0.00     0.205 HD
HETATM    7  N   UNK N   1      34.610  15.846  10.710  0.00  0.00    -0.233 N 
HETATM    8  C   UNK N   1      35.734  13.099  13.621  0.00  0.00     0.104 A 
HETATM    9  C   UNK N   1      36.283  14.411  13.613  0.00  0.00     0.144 A 
HETATM   10  C   UNK N   1      35.014  14.921  11.691  0.00  0.00     0.692 A 
HETATM   11  H   UNK N   1      35.020  16.740  10.679  0.00  0.00     0.174 HD
HETATM   12  H   UNK N   1      33.917  15.599  10.056  0.00  0.00     0.174 HD
ENDROOT
BRANCH   8  13
HETATM   13  C   UNK N   1      36.058  12.060  14.672  0.00  0.00     0.019 A 
HETATM   14  C   UNK N   1      35.502  12.087  15.993  0.00  0.00     0.068 A 
HETATM   15 Cl   UNK N   1      34.370  13.334  16.538  0.00  0.00    -0.082 Cl
HETATM   16  C   UNK N   1      35.861  11.087  16.921  0.00  0.00     0.056 A 
HETATM   17 Cl   UNK N   1      35.198  11.072  18.551  0.00  0.00    -0.083 Cl
HETATM   18  C   UNK N   1      36.755  10.080  16.566  0.00  0.00     0.026 A 
HETATM   19  C   UNK N   1      37.303  10.048  15.290  0.00  0.00     0.003 A 
HETATM   20  C   UNK N   1      36.957  11.024  14.360  0.00  0.00     0.016 A 
ENDBRANCH   8  13
BRANCH   9  21
HETATM   21  N   UNK N   1      37.207  14.844  14.586  0.00  0.00    -0.383 N 
HETATM   22  H   UNK N   1      38.167  14.900  14.369  0.00  0.00     0.157 HD
HETATM   23  H   UNK N   1      36.894  15.092  15.486  0.00  0.00     0.157 HD
ENDBRANCH   9  21
TORSDOF 2
ENDMDL
MODEL 5
REMARK VINA RESULT:      -6.0      7.107     10.090
REMARK  2 active torsions:
REMARK  status: ('A' for Active; 'I' for Inactive)
REMARK    1  A    between atoms: N_7  and  C_15 
REMARK       I    between atoms: N_10  and  C_19 
REMARK    2  A    between atoms: C_11  and  C_12 
ROOT
HETATM    1  N   UNK N   1      34.710  12.271  14.035  0.00  0.00    -0.282 N 
ATOM      2  HN  UNK N   1      34.136  11.483  14.337  1.00  0.00     0.187 HD
HETATM    3  N   UNK N   1      36.217  14.343  13.176  0.00  0.00    -0.174 N 
ATOM      4  HN  UNK N   1      36.782  15.122  12.837  1.00  0.00     0.186 HD
HETATM    5  N   UNK N   1      34.602  12.698  12.779  0.00  0.00    -0.132 N 
ATOM      6  HN  UNK N   1      33.952  12.236  12.143  1.00  0.00     0.205 HD
HETATM    7  N   UNK N   1      35.196  14.198  11.015  0.00  0.00    -0.233 N 
HETATM    8  C   UNK N   1      35.558  12.845  14.929  0.00  0.00     0.104 A 
HETATM    9  C   UNK N   1      36.353  13.928  14.461  0.00  0.00     0.144 A 
HETATM   10  C   UNK N   1      35.343  13.739  12.337  0.00  0.00     0.692 A 
HETATM   11  H   UNK N   1      35.775  14.920  10.677  0.00  0.00     0.174 HD
HETATM   12  H   UNK N   1      34.516  13.798  10.427  0.00  0.00     0.174 HD
ENDROOT
BRANCH   8  13
HETATM   13  C   UNK N   1      35.599  12.326  16.349  0.00  0.00     0.019 A 
HETATM   14  C   UNK N   1      36.157  11.052  16.697  0.00  0.00     0.068 A 
HETATM   15 Cl   UNK N   1      36.865   9.951  15.506  0.00  0.00    -0.082 Cl
HETATM   16  C   UNK N   1      36.150  10.632  18.044  0.00  0.00     0.056 A 
HETATM   17 Cl   UNK N   1      36.831   9.082  18.522  0.00  0.00    -0.083 Cl
HETATM   18  C   UNK N   1      35.599  11.441  19.034  0.00  0.00     0.026 A 
HETATM   19  C   UNK N   1      35.052  12.675  18.707  0.00  0.00     0.003 A 
HETATM   20  C   UNK N   1      35.054  13.107  17.384  0.00  0.00     0.016 A 
ENDBRANCH   8  13
BRANCH   9  21
HETATM   21  N   UNK N   1      37.274  14.598  15.293  0.00  0.00    -0.383 N 
HETATM   22  H   UNK N   1      38.008  14.099  15.721  0.00  0.00     0.157 HD
HETATM   23  H   UNK N   1      37.184  15.566  15.446  0.00  0.00     0.157 HD
ENDBRANCH   9  21
TORSDOF 2
ENDMDL
MODEL 6
REMARK VINA RESULT:      -5.9      5.308      8.001
REMARK  2 active torsions:
REMARK  status: ('A' for Active; 'I' for Inactive)
REMARK    1  A    between atoms: N_7  and  C_15 
REMARK       I    between atoms: N_10  and  C_19 
REMARK    2  A    between atoms: C_11  and  C_12 
ROOT
HETATM    1  N   UNK N   1      34.457  13.537  11.612  0.00  0.00    -0.282 N 
ATOM      2  HN  UNK N   1      33.858  12.775  11.293  1.00  0.00     0.187 HD
HETATM    3  N   UNK N   1      36.032  15.585  12.405  0.00  0.00    -0.174 N 
ATOM      4  HN  UNK N   1      36.623  16.365  12.692  1.00  0.00     0.186 HD
HETATM    5  N   UNK N   1      34.414  14.700  10.967  0.00  0.00    -0.132 N 
ATOM      6  HN  UNK N   1      33.788  14.812  10.169  1.00  0.00     0.205 HD
HETATM    7  N   UNK N   1      35.111  16.970  10.682  0.00  0.00    -0.233 N 
HETATM    8  C   UNK N   1      35.271  13.328  12.681  0.00  0.00     0.104 A 
HETATM    9  C   UNK N   1      36.102  14.410  13.081  0.00  0.00     0.144 A 
HETATM   10  C   UNK N   1      35.190  15.736  11.357  0.00  0.00     0.692 A 
HETATM   11  H   UNK N   1      35.715  17.706  10.932  0.00  0.00     0.174 HD
HETATM   12  H   UNK N   1      34.453  17.096   9.962  0.00  0.00     0.174 HD
ENDROOT
BRANCH   8  13
HETATM   13  C   UNK N   1      35.238  11.989  13.385  0.00  0.00     0.019 A 
HETATM   14  C   UNK N   1      36.203  10.957  13.141  0.00  0.00     0.068 A 
HETATM   15 Cl   UNK N   1      37.541  11.138  11.996  0.00  0.00    -0.082 Cl
HETATM   16  C   UNK N   1      36.101   9.730  13.829  0.00  0.00     0.056 A 
HETATM   17 Cl   UNK N   1      37.265   8.436  13.572  0.00  0.00    -0.083 Cl
HETATM   18  C   UNK N   1      35.067   9.512  14.737  0.00  0.00     0.026 A 
HETATM   19  C   UNK N   1      34.125  10.504  14.977  0.00  0.00     0.003 A 
HETATM   20  C   UNK N   1      34.213  11.722  14.310  0.00  0.00     0.016 A 
ENDBRANCH   8  13
BRANCH   9  21
HETATM   21  N   UNK N   1      36.993  14.310  14.170  0.00  0.00    -0.383 N 
HETATM   22  H   UNK N   1      36.689  13.929  15.026  0.00  0.00     0.157 HD
HETATM   23  H   UNK N   1      37.922  14.622  14.075  0.00  0.00     0.157 HD
ENDBRANCH   9  21
TORSDOF 2
ENDMDL
MODEL 7
REMARK VINA RESULT:      -5.9      6.176      8.036
REMARK  2 active torsions:
REMARK  status: ('A' for Active; 'I' for Inactive)
REMARK    1  A    between atoms: N_7  and  C_15 
REMARK       I    between atoms: N_10  and  C_19 
REMARK    2  A    between atoms: C_11  and  C_12 
ROOT
HETATM    1  N   UNK N   1      37.632  12.728  12.224  0.00  0.00    -0.282 N 
ATOM      2  HN  UNK N   1      38.073  12.180  12.963  1.00  0.00     0.187 HD
HETATM    3  N   UNK N   1      36.519  14.195  10.245  0.00  0.00    -0.174 N 
ATOM      4  HN  UNK N   1      36.113  14.751   9.494  1.00  0.00     0.186 HD
HETATM    5  N   UNK N   1      38.374  13.132  11.195  0.00  0.00    -0.132 N 
ATOM      6  HN  UNK N   1      39.364  12.889  11.161  1.00  0.00     0.205 HD
HETATM    7  N   UNK N   1      38.620  14.254   9.098  0.00  0.00    -0.233 N 
HETATM    8  C   UNK N   1      36.308  13.020  12.325  0.00  0.00     0.104 A 
HETATM    9  C   UNK N   1      35.737  13.801  11.283  0.00  0.00     0.144 A 
HETATM   10  C   UNK N   1      37.829  13.859  10.194  0.00  0.00     0.692 A 
HETATM   11  H   UNK N   1      38.236  14.828   8.396  0.00  0.00     0.174 HD
HETATM   12  H   UNK N   1      39.555  13.954   9.032  0.00  0.00     0.174 HD
ENDROOT
BRANCH   8  13
HETATM   13  C   UNK N   1      35.523  12.496  13.508  0.00  0.00     0.019 A 
HETATM   14  C   UNK N   1      35.676  13.013  14.836  0.00  0.00     0.068 A 
HETATM   15 Cl   UNK N   1      36.794  14.326  15.237  0.00  0.00    -0.082 Cl
HETATM   16  C   UNK N   1      34.916  12.465  15.890  0.00  0.00     0.056 A 
HETATM   17 Cl   UNK N   1      35.062  13.072  17.535  0.00  0.00    -0.083 Cl
HETATM   18  C   UNK N   1      34.024  11.423  15.651  0.00  0.00     0.026 A 
HETATM   19  C   UNK N   1      33.872  10.911  14.369  0.00  0.00     0.003 A 
HETATM   20  C   UNK N   1      34.611  11.443  13.316  0.00  0.00     0.016 A 
ENDBRANCH   8  13
BRANCH   9  21
HETATM   21  N   UNK N   1      34.377  14.174  11.283  0.00  0.00    -0.383 N 
HETATM   22  H   UNK N   1      33.752  13.767  11.926  0.00  0.00     0.157 HD
HETATM   23  H   UNK N   1      34.051  14.844  10.638  0.00  0.00     0.157 HD
ENDBRANCH   9  21
TORSDOF 2
ENDMDL
MODEL 8
REMARK VINA RESULT:      -5.7      1.622      2.500
REMARK  2 active torsions:
REMARK  status: ('A' for Active; 'I' for Inactive)
REMARK    1  A    between atoms: N_7  and  C_15 
REMARK       I    between atoms: N_10  and  C_19 
REMARK    2  A    between atoms: C_11  and  C_12 
ROOT
HETATM    1  N   UNK N   1      31.904  15.593   9.669  0.00  0.00    -0.282 N 
ATOM      2  HN  UNK N   1      30.972  15.209   9.826  1.00  0.00     0.187 HD
HETATM    3  N   UNK N   1      34.395  16.577   9.301  0.00  0.00    -0.174 N 
ATOM      4  HN  UNK N   1      35.339  16.940   9.174  1.00  0.00     0.186 HD
HETATM    5  N   UNK N   1      32.945  15.015  10.265  0.00  0.00    -0.132 N 
ATOM      6  HN  UNK N   1      32.796  14.203  10.865  1.00  0.00     0.205 HD
HETATM    7  N   UNK N   1      35.291  14.850  10.698  0.00  0.00    -0.233 N 
HETATM    8  C   UNK N   1      32.040  16.677   8.860  0.00  0.00     0.104 A 
HETATM    9  C   UNK N   1      33.354  17.191   8.683  0.00  0.00     0.144 A 
HETATM   10  C   UNK N   1      34.197  15.491  10.084  0.00  0.00     0.692 A 
HETATM   11  H   UNK N   1      36.195  15.229  10.610  0.00  0.00     0.174 HD
HETATM   12  H   UNK N   1      35.151  14.024  11.214  0.00  0.00     0.174 HD
ENDROOT
BRANCH   8  13
HETATM   13  C   UNK N   1      30.814  17.257   8.189  0.00  0.00     0.019 A 
HETATM   14  C   UNK N   1      30.468  16.984   6.825  0.00  0.00     0.068 A 
HETATM   15 Cl   UNK N   1      31.433  15.932   5.778  0.00  0.00    -0.082 Cl
HETATM   16  C   UNK N   1      29.314  17.571   6.267  0.00  0.00     0.056 A 
HETATM   17 Cl   UNK N   1      28.843  17.259   4.601  0.00  0.00    -0.083 Cl
HETATM   18  C   UNK N   1      28.513  18.418   7.028  0.00  0.00     0.026 A 
HETATM   19  C   UNK N   1      28.841  18.693   8.349  0.00  0.00     0.003 A 
HETATM   20  C   UNK N   1      29.974  18.119   8.918  0.00  0.00     0.016 A 
ENDBRANCH   8  13
BRANCH   9  21
HETATM   21  N   UNK N   1      33.618  18.315   7.874  0.00  0.00    -0.383 N 
HETATM   22  H   UNK N   1      33.234  19.193   8.105  0.00  0.00     0.157 HD
HETATM   23  H   UNK N   1      34.187  18.224   7.076  0.00  0.00     0.157 HD
ENDBRANCH   9  21
TORSDOF 2
ENDMDL
MODEL 9
REMARK VINA RESULT:      -5.6      4.730      6.260
REMARK  2 active torsions:
REMARK  status: ('A' for Active; 'I' for Inactive)
REMARK    1  A    between atoms: N_7  and  C_15 
REMARK       I    between atoms: N_10  and  C_19 
REMARK    2  A    between atoms: C_11  and  C_12 
ROOT
HETATM    1  N   UNK N   1      29.828  17.529   6.041  0.00  0.00    -0.282 N 
ATOM      2  HN  UNK N   1      29.925  17.300   5.051  1.00  0.00     0.187 HD
HETATM    3  N   UNK N   1      29.617  18.098   8.674  0.00  0.00    -0.174 N 
ATOM      4  HN  UNK N   1      29.549  18.304   9.671  1.00  0.00     0.186 HD
HETATM    5  N   UNK N   1      30.803  17.183   6.878  0.00  0.00    -0.132 N 
ATOM      6  HN  UNK N   1      31.627  16.698   6.521  1.00  0.00     0.205 HD
HETATM    7  N   UNK N   1      31.768  17.122   9.065  0.00  0.00    -0.233 N 
HETATM    8  C   UNK N   1      28.707  18.177   6.457  0.00  0.00     0.104 A 
HETATM    9  C   UNK N   1      28.604  18.461   7.847  0.00  0.00     0.144 A 
HETATM   10  C   UNK N   1      30.715  17.469   8.197  0.00  0.00     0.692 A 
HETATM   11  H   UNK N   1      31.681  17.281  10.032  0.00  0.00     0.174 HD
HETATM   12  H   UNK N   1      32.592  16.722   8.704  0.00  0.00     0.174 HD
ENDROOT
BRANCH   8  13
HETATM   13  C   UNK N   1      27.658  18.568   5.440  0.00  0.00     0.019 A 
HETATM   14  C   UNK N   1      26.500  17.768   5.167  0.00  0.00     0.068 A 
HETATM   15 Cl   UNK N   1      26.167  16.239   5.994  0.00  0.00    -0.082 Cl
HETATM   16  C   UNK N   1      25.570  18.195   4.196  0.00  0.00     0.056 A 
HETATM   17 Cl   UNK N   1      24.130  17.253   3.831  0.00  0.00    -0.083 Cl
HETATM   18  C   UNK N   1      25.773  19.382   3.497  0.00  0.00     0.026 A 
HETATM   19  C   UNK N   1      26.893  20.162   3.750  0.00  0.00     0.003 A 
HETATM   20  C   UNK N   1      27.819  19.758   4.708  0.00  0.00     0.016 A 
ENDBRANCH   8  13
BRANCH   9  21
HETATM   21  N   UNK N   1      27.486  19.120   8.397  0.00  0.00    -0.383 N 
HETATM   22  H   UNK N   1      27.369  19.166   9.375  0.00  0.00     0.157 HD
HETATM   23  H   UNK N   1      26.819  19.536   7.804  0.00  0.00     0.157 HD
ENDBRANCH   9  21
TORSDOF 2
ENDMDL
