MODEL 1
REMARK VINA RESULT:      -5.8      0.000      0.000
REMARK  8 active torsions:
REMARK  status: ('A' for Active; 'I' for Inactive)
REMARK    1  A    between atoms: O_2  and  C_14 
REMARK    2  A    between atoms: O_2  and  C_25 
REMARK    3  A    between atoms: N_4  and  C_10 
REMARK    4  A    between atoms: N_5  and  C_11 
REMARK    5  A    between atoms: C_10  and  C_12 
REMARK    6  A    between atoms: C_10  and  C_13 
REMARK    7  A    between atoms: C_11  and  C_14 
REMARK    8  A    between atoms: C_25  and  C_26 
ROOT
HETATM    1  O   UNK N   1      33.415  14.951  11.241  0.00  0.00    -0.399 OA
HETATM    2  C   UNK N   1      34.158  14.694  10.088  0.00  0.00     0.190 C 
HETATM    3  H   UNK N   1      32.943  15.187  12.055  0.00  0.00     0.209 HD
ENDROOT
BRANCH   2   4
HETATM    4  C   UNK N   1      34.982  15.917   9.724  0.00  0.00     0.193 C 
BRANCH   4   5
HETATM    5  O   UNK N   1      34.646  16.367   8.444  0.00  0.00    -0.387 OA
BRANCH   5   6
HETATM    6  C   UNK N   1      34.411  17.735   8.590  0.00  0.00     0.198 C 
BRANCH   6   7
HETATM    7  C   UNK N   1      33.031  18.074   8.035  0.00  0.00     0.298 C 
BRANCH   7   8
HETATM    8  N   UNK N   1      32.409  16.946   7.338  0.00  0.00     0.093 N 
HETATM    9  C   UNK N   1      32.275  17.231   5.902  0.00  0.00     0.302 C 
HETATM   10  C   UNK N   1      30.987  16.666   5.324  0.00  0.00     0.304 C 
HETATM   11  N   UNK N   1      29.843  17.257   6.028  0.00  0.00     0.105 N 
HETATM   12  C   UNK N   1      29.901  17.158   7.495  0.00  0.00     0.304 C 
HETATM   13  C   UNK N   1      31.184  16.487   8.018  0.00  0.00     0.302 C 
BRANCH  11  14
HETATM   14  C   UNK N   1      28.547  16.788   5.499  0.00  0.00     0.289 C 
BRANCH  14  15
HETATM   15  C   UNK N   1      28.636  15.683   4.445  0.00  0.00    -0.021 A 
HETATM   16  C   UNK N   1      28.775  14.348   4.861  0.00  0.00     0.011 A 
HETATM   17  C   UNK N   1      28.882  13.318   3.920  0.00  0.00     0.024 A 
HETATM   18  C   UNK N   1      28.869  13.613   2.556  0.00  0.00     0.034 A 
HETATM   19 Cl   UNK N   1      29.011  12.326   1.378  0.00  0.00    -0.084 Cl
HETATM   20  C   UNK N   1      28.748  14.937   2.130  0.00  0.00     0.024 A 
HETATM   21  C   UNK N   1      28.632  15.964   3.069  0.00  0.00     0.011 A 
ENDBRANCH  14  15
BRANCH  14  22
HETATM   22  C   UNK N   1      27.701  17.985   5.124  0.00  0.00    -0.021 A 
HETATM   23  C   UNK N   1      26.306  17.848   5.118  0.00  0.00     0.010 A 
HETATM   24  C   UNK N   1      25.488  18.931   4.786  0.00  0.00     0.001 A 
HETATM   25  C   UNK N   1      26.059  20.163   4.461  0.00  0.00     0.000 A 
HETATM   26  C   UNK N   1      27.449  20.313   4.466  0.00  0.00     0.001 A 
HETATM   27  C   UNK N   1      28.269  19.230   4.797  0.00  0.00     0.010 A 
ENDBRANCH  14  22
ENDBRANCH  11  14
ENDBRANCH   7   8
ENDBRANCH   6   7
ENDBRANCH   5   6
ENDBRANCH   4   5
ENDBRANCH   2   4
TORSDOF 8
ENDMDL
MODEL 2
REMARK VINA RESULT:      -5.7      4.250      6.345
REMARK  8 active torsions:
REMARK  status: ('A' for Active; 'I' for Inactive)
REMARK    1  A    between atoms: O_2  and  C_14 
REMARK    2  A    between atoms: O_2  and  C_25 
REMARK    3  A    between atoms: N_4  and  C_10 
REMARK    4  A    between atoms: N_5  and  C_11 
REMARK    5  A    between atoms: C_10  and  C_12 
REMARK    6  A    between atoms: C_10  and  C_13 
REMARK    7  A    between atoms: C_11  and  C_14 
REMARK    8  A    between atoms: C_25  and  C_26 
ROOT
HETATM    1  O   UNK N   1      24.893  12.335  11.555  0.00  0.00    -0.399 OA
HETATM    2  C   UNK N   1      25.062  12.733  10.229  0.00  0.00     0.190 C 
HETATM    3  H   UNK N   1      24.715  12.019  12.455  0.00  0.00     0.209 HD
ENDROOT
BRANCH   2   4
HETATM    4  C   UNK N   1      24.241  11.843   9.313  0.00  0.00     0.193 C 
BRANCH   4   5
HETATM    5  O   UNK N   1      23.618  12.606   8.322  0.00  0.00    -0.387 OA
BRANCH   5   6
HETATM    6  C   UNK N   1      24.595  12.802   7.345  0.00  0.00     0.198 C 
BRANCH   6   7
HETATM    7  C   UNK N   1      24.574  14.259   6.892  0.00  0.00     0.298 C 
BRANCH   7   8
HETATM    8  N   UNK N   1      25.355  14.484   5.675  0.00  0.00     0.093 N 
HETATM    9  C   UNK N   1      26.764  14.119   5.885  0.00  0.00     0.302 C 
HETATM   10  C   UNK N   1      27.713  15.058   5.156  0.00  0.00     0.304 C 
HETATM   11  N   UNK N   1      27.506  16.427   5.642  0.00  0.00     0.105 N 
HETATM   12  C   UNK N   1      26.109  16.889   5.608  0.00  0.00     0.304 C 
HETATM   13  C   UNK N   1      25.117  15.824   5.108  0.00  0.00     0.302 C 
BRANCH  11  14
HETATM   14  C   UNK N   1      28.419  17.398   5.009  0.00  0.00     0.289 C 
BRANCH  14  15
HETATM   15  C   UNK N   1      29.892  17.256   5.399  0.00  0.00    -0.021 A 
HETATM   16  C   UNK N   1      30.222  16.919   6.723  0.00  0.00     0.011 A 
HETATM   17  C   UNK N   1      31.559  16.804   7.114  0.00  0.00     0.024 A 
HETATM   18  C   UNK N   1      32.581  17.040   6.192  0.00  0.00     0.034 A 
HETATM   19 Cl   UNK N   1      34.256  16.904   6.683  0.00  0.00    -0.084 Cl
HETATM   20  C   UNK N   1      32.267  17.391   4.878  0.00  0.00     0.024 A 
HETATM   21  C   UNK N   1      30.931  17.497   4.485  0.00  0.00     0.011 A 
ENDBRANCH  14  15
BRANCH  14  22
HETATM   22  C   UNK N   1      27.837  18.788   5.144  0.00  0.00    -0.021 A 
HETATM   23  C   UNK N   1      27.899  19.425   6.391  0.00  0.00     0.010 A 
HETATM   24  C   UNK N   1      27.380  20.712   6.557  0.00  0.00     0.001 A 
HETATM   25  C   UNK N   1      26.799  21.375   5.474  0.00  0.00     0.000 A 
HETATM   26  C   UNK N   1      26.734  20.751   4.225  0.00  0.00     0.001 A 
HETATM   27  C   UNK N   1      27.251  19.462   4.058  0.00  0.00     0.010 A 
ENDBRANCH  14  22
ENDBRANCH  11  14
ENDBRANCH   7   8
ENDBRANCH   6   7
ENDBRANCH   5   6
ENDBRANCH   4   5
ENDBRANCH   2   4
TORSDOF 8
ENDMDL
MODEL 3
REMARK VINA RESULT:      -5.6      2.794      4.643
REMARK  8 active torsions:
REMARK  status: ('A' for Active; 'I' for Inactive)
REMARK    1  A    between atoms: O_2  and  C_14 
REMARK    2  A    between atoms: O_2  and  C_25 
REMARK    3  A    between atoms: N_4  and  C_10 
REMARK    4  A    between atoms: N_5  and  C_11 
REMARK    5  A    between atoms: C_10  and  C_12 
REMARK    6  A    between atoms: C_10  and  C_13 
REMARK    7  A    between atoms: C_11  and  C_14 
REMARK    8  A    between atoms: C_25  and  C_26 
ROOT
HETATM    1  O   UNK N   1      35.723  17.559  10.333  0.00  0.00    -0.399 OA
HETATM    2  C   UNK N   1      34.950  16.417  10.120  0.00  0.00     0.190 C 
HETATM    3  H   UNK N   1      36.254  18.367  10.408  0.00  0.00     0.209 HD
ENDROOT
BRANCH   2   4
HETATM    4  C   UNK N   1      34.254  16.509   8.773  0.00  0.00     0.193 C 
BRANCH   4   5
HETATM    5  O   UNK N   1      34.483  17.758   8.192  0.00  0.00    -0.387 OA
BRANCH   5   6
HETATM    6  C   UNK N   1      33.929  17.672   6.913  0.00  0.00     0.198 C 
BRANCH   6   7
HETATM    7  C   UNK N   1      33.947  16.218   6.451  0.00  0.00     0.298 C 
BRANCH   7   8
HETATM    8  N   UNK N   1      33.103  15.988   5.277  0.00  0.00     0.093 N 
HETATM    9  C   UNK N   1      33.038  17.193   4.437  0.00  0.00     0.302 C 
HETATM   10  C   UNK N   1      31.661  17.387   3.821  0.00  0.00     0.304 C 
HETATM   11  N   UNK N   1      30.665  17.507   4.892  0.00  0.00     0.105 N 
HETATM   12  C   UNK N   1      30.696  16.424   5.888  0.00  0.00     0.304 C 
HETATM   13  C   UNK N   1      31.807  15.387   5.640  0.00  0.00     0.302 C 
BRANCH  11  14
HETATM   14  C   UNK N   1      29.301  17.737   4.377  0.00  0.00     0.289 C 
BRANCH  14  15
HETATM   15  C   UNK N   1      28.460  18.729   5.183  0.00  0.00    -0.021 A 
HETATM   16  C   UNK N   1      27.797  19.770   4.511  0.00  0.00     0.011 A 
HETATM   17  C   UNK N   1      27.039  20.706   5.223  0.00  0.00     0.024 A 
HETATM   18  C   UNK N   1      26.951  20.622   6.614  0.00  0.00     0.034 A 
HETATM   19 Cl   UNK N   1      26.009  21.797   7.506  0.00  0.00    -0.084 Cl
HETATM   20  C   UNK N   1      27.618  19.602   7.294  0.00  0.00     0.024 A 
HETATM   21  C   UNK N   1      28.367  18.662   6.582  0.00  0.00     0.011 A 
ENDBRANCH  14  15
BRANCH  14  22
HETATM   22  C   UNK N   1      28.647  16.403   4.090  0.00  0.00    -0.021 A 
HETATM   23  C   UNK N   1      27.893  15.793   5.102  0.00  0.00     0.010 A 
HETATM   24  C   UNK N   1      27.265  14.565   4.877  0.00  0.00     0.001 A 
HETATM   25  C   UNK N   1      27.383  13.939   3.634  0.00  0.00     0.000 A 
HETATM   26  C   UNK N   1      28.130  14.540   2.617  0.00  0.00     0.001 A 
HETATM   27  C   UNK N   1      28.760  15.768   2.841  0.00  0.00     0.010 A 
ENDBRANCH  14  22
ENDBRANCH  11  14
ENDBRANCH   7   8
ENDBRANCH   6   7
ENDBRANCH   5   6
ENDBRANCH   4   5
ENDBRANCH   2   4
TORSDOF 8
ENDMDL
MODEL 4
REMARK VINA RESULT:      -5.4      7.521     10.009
REMARK  8 active torsions:
REMARK  status: ('A' for Active; 'I' for Inactive)
REMARK    1  A    between atoms: O_2  and  C_14 
REMARK    2  A    between atoms: O_2  and  C_25 
REMARK    3  A    between atoms: N_4  and  C_10 
REMARK    4  A    between atoms: N_5  and  C_11 
REMARK    5  A    between atoms: C_10  and  C_12 
REMARK    6  A    between atoms: C_10  and  C_13 
REMARK    7  A    between atoms: C_11  and  C_14 
REMARK    8  A    between atoms: C_25  and  C_26 
ROOT
HETATM    1  O   UNK N   1      26.475  19.287   4.060  0.00  0.00    -0.399 OA
HETATM    2  C   UNK N   1      25.231  19.881   3.844  0.00  0.00     0.190 C 
HETATM    3  H   UNK N   1      27.352  18.881   4.138  0.00  0.00     0.209 HD
ENDROOT
BRANCH   2   4
HETATM    4  C   UNK N   1      25.213  20.559   2.485  0.00  0.00     0.193 C 
BRANCH   4   5
HETATM    5  O   UNK N   1      23.903  20.879   2.119  0.00  0.00    -0.387 OA
BRANCH   5   6
HETATM    6  C   UNK N   1      23.097  20.266   3.079  0.00  0.00     0.198 C 
BRANCH   6   7
HETATM    7  C   UNK N   1      21.630  20.438   2.694  0.00  0.00     0.298 C 
BRANCH   7   8
HETATM    8  N   UNK N   1      20.746  19.515   3.407  0.00  0.00     0.093 N 
HETATM    9  C   UNK N   1      21.433  18.927   4.567  0.00  0.00     0.302 C 
HETATM   10  C   UNK N   1      21.046  17.472   4.784  0.00  0.00     0.304 C 
HETATM   11  N   UNK N   1      21.396  16.696   3.589  0.00  0.00     0.105 N 
HETATM   12  C   UNK N   1      20.876  17.242   2.324  0.00  0.00     0.304 C 
HETATM   13  C   UNK N   1      20.096  18.558   2.493  0.00  0.00     0.302 C 
BRANCH  11  14
HETATM   14  C   UNK N   1      21.086  15.260   3.733  0.00  0.00     0.289 C 
BRANCH  14  15
HETATM   15  C   UNK N   1      21.468  14.645   5.081  0.00  0.00    -0.021 A 
HETATM   16  C   UNK N   1      20.489  13.967   5.828  0.00  0.00     0.011 A 
HETATM   17  C   UNK N   1      20.802  13.414   7.073  0.00  0.00     0.024 A 
HETATM   18  C   UNK N   1      22.091  13.547   7.594  0.00  0.00     0.034 A 
HETATM   19 Cl   UNK N   1      22.482  12.863   9.157  0.00  0.00    -0.084 Cl
HETATM   20  C   UNK N   1      23.068  14.232   6.869  0.00  0.00     0.024 A 
HETATM   21  C   UNK N   1      22.758  14.776   5.621  0.00  0.00     0.011 A 
ENDBRANCH  14  15
BRANCH  14  22
HETATM   22  C   UNK N   1      21.581  14.520   2.510  0.00  0.00    -0.021 A 
HETATM   23  C   UNK N   1      22.921  14.675   2.127  0.00  0.00     0.010 A 
HETATM   24  C   UNK N   1      23.422  14.004   1.009  0.00  0.00     0.001 A 
HETATM   25  C   UNK N   1      22.586  13.165   0.267  0.00  0.00     0.000 A 
HETATM   26  C   UNK N   1      21.250  13.000   0.641  0.00  0.00     0.001 A 
HETATM   27  C   UNK N   1      20.747  13.673   1.759  0.00  0.00     0.010 A 
ENDBRANCH  14  22
ENDBRANCH  11  14
ENDBRANCH   7   8
ENDBRANCH   6   7
ENDBRANCH   5   6
ENDBRANCH   4   5
ENDBRANCH   2   4
TORSDOF 8
ENDMDL
MODEL 5
REMARK VINA RESULT:      -5.3      4.026      6.212
REMARK  8 active torsions:
REMARK  status: ('A' for Active; 'I' for Inactive)
REMARK    1  A    between atoms: O_2  and  C_14 
REMARK    2  A    between atoms: O_2  and  C_25 
REMARK    3  A    between atoms: N_4  and  C_10 
REMARK    4  A    between atoms: N_5  and  C_11 
REMARK    5  A    between atoms: C_10  and  C_12 
REMARK    6  A    between atoms: C_10  and  C_13 
REMARK    7  A    between atoms: C_11  and  C_14 
REMARK    8  A    between atoms: C_25  and  C_26 
ROOT
HETATM    1  O   UNK N   1      38.576  10.698  10.034  0.00  0.00    -0.399 OA
HETATM    2  C   UNK N   1      37.363  10.478  10.688  0.00  0.00     0.190 C 
HETATM    3  H   UNK N   1      39.421  10.917   9.614  0.00  0.00     0.209 HD
ENDROOT
BRANCH   2   4
HETATM    4  C   UNK N   1      37.199  11.476  11.820  0.00  0.00     0.193 C 
BRANCH   4   5
HETATM    5  O   UNK N   1      37.387  12.779  11.352  0.00  0.00    -0.387 OA
BRANCH   5   6
HETATM    6  C   UNK N   1      36.109  13.338  11.307  0.00  0.00     0.198 C 
BRANCH   6   7
HETATM    7  C   UNK N   1      36.189  14.738  10.706  0.00  0.00     0.298 C 
BRANCH   7   8
HETATM    8  N   UNK N   1      34.877  15.374  10.574  0.00  0.00     0.093 N 
HETATM    9  C   UNK N   1      33.999  14.580   9.701  0.00  0.00     0.302 C 
HETATM   10  C   UNK N   1      33.108  15.458   8.836  0.00  0.00     0.304 C 
HETATM   11  N   UNK N   1      33.949  16.320   7.997  0.00  0.00     0.105 N 
HETATM   12  C   UNK N   1      34.969  17.089   8.729  0.00  0.00     0.304 C 
HETATM   13  C   UNK N   1      34.989  16.805  10.242  0.00  0.00     0.302 C 
BRANCH  11  14
HETATM   14  C   UNK N   1      33.158  17.181   7.095  0.00  0.00     0.289 C 
BRANCH  14  15
HETATM   15  C   UNK N   1      31.732  17.477   7.563  0.00  0.00    -0.021 A 
HETATM   16  C   UNK N   1      31.526  18.425   8.580  0.00  0.00     0.011 A 
HETATM   17  C   UNK N   1      30.236  18.700   9.044  0.00  0.00     0.024 A 
HETATM   18  C   UNK N   1      29.140  18.018   8.511  0.00  0.00     0.034 A 
HETATM   19 Cl   UNK N   1      27.526  18.356   9.098  0.00  0.00    -0.084 Cl
HETATM   20  C   UNK N   1      29.333  17.062   7.512  0.00  0.00     0.024 A 
HETATM   21  C   UNK N   1      30.620  16.794   7.042  0.00  0.00     0.011 A 
ENDBRANCH  14  15
BRANCH  14  22
HETATM   22  C   UNK N   1      33.290  16.668   5.678  0.00  0.00    -0.021 A 
HETATM   23  C   UNK N   1      33.990  15.474   5.457  0.00  0.00     0.010 A 
HETATM   24  C   UNK N   1      34.129  14.961   4.165  0.00  0.00     0.001 A 
HETATM   25  C   UNK N   1      33.563  15.638   3.081  0.00  0.00     0.000 A 
HETATM   26  C   UNK N   1      32.861  16.828   3.290  0.00  0.00     0.001 A 
HETATM   27  C   UNK N   1      32.723  17.343   4.583  0.00  0.00     0.010 A 
ENDBRANCH  14  22
ENDBRANCH  11  14
ENDBRANCH   7   8
ENDBRANCH   6   7
ENDBRANCH   5   6
ENDBRANCH   4   5
ENDBRANCH   2   4
TORSDOF 8
ENDMDL
MODEL 6
REMARK VINA RESULT:      -5.1      7.294     12.979
REMARK  8 active torsions:
REMARK  status: ('A' for Active; 'I' for Inactive)
REMARK    1  A    between atoms: O_2  and  C_14 
REMARK    2  A    between atoms: O_2  and  C_25 
REMARK    3  A    between atoms: N_4  and  C_10 
REMARK    4  A    between atoms: N_5  and  C_11 
REMARK    5  A    between atoms: C_10  and  C_12 
REMARK    6  A    between atoms: C_10  and  C_13 
REMARK    7  A    between atoms: C_11  and  C_14 
REMARK    8  A    between atoms: C_25  and  C_26 
ROOT
HETATM    1  O   UNK N   1      32.329  13.834   8.128  0.00  0.00    -0.399 OA
HETATM    2  C   UNK N   1      33.058  14.736   8.903  0.00  0.00     0.190 C 
HETATM    3  H   UNK N   1      31.867  13.223   7.533  0.00  0.00     0.209 HD
ENDROOT
BRANCH   2   4
HETATM    4  C   UNK N   1      34.381  15.046   8.225  0.00  0.00     0.193 C 
BRANCH   4   5
HETATM    5  O   UNK N   1      35.167  15.864   9.041  0.00  0.00    -0.387 OA
BRANCH   5   6
HETATM    6  C   UNK N   1      35.255  15.186  10.258  0.00  0.00     0.198 C 
BRANCH   6   7
HETATM    7  C   UNK N   1      36.542  14.367  10.290  0.00  0.00     0.298 C 
BRANCH   7   8
HETATM    8  N   UNK N   1      36.301  12.944  10.536  0.00  0.00     0.093 N 
HETATM    9  C   UNK N   1      34.955  12.732  11.089  0.00  0.00     0.302 C 
HETATM   10  C   UNK N   1      34.933  11.622  12.129  0.00  0.00     0.304 C 
HETATM   11  N   UNK N   1      35.842  11.971  13.227  0.00  0.00     0.105 N 
HETATM   12  C   UNK N   1      37.206  12.332  12.808  0.00  0.00     0.304 C 
HETATM   13  C   UNK N   1      37.408  12.320  11.282  0.00  0.00     0.302 C 
BRANCH  11  14
HETATM   14  C   UNK N   1      35.850  10.958  14.301  0.00  0.00     0.289 C 
BRANCH  14  15
HETATM   15  C   UNK N   1      35.647  11.508  15.714  0.00  0.00    -0.021 A 
HETATM   16  C   UNK N   1      35.494  10.610  16.784  0.00  0.00     0.011 A 
HETATM   17  C   UNK N   1      35.284  11.083  18.084  0.00  0.00     0.024 A 
HETATM   18  C   UNK N   1      35.207  12.456  18.325  0.00  0.00     0.034 A 
HETATM   19 Cl   UNK N   1      34.936  13.048  19.950  0.00  0.00    -0.084 Cl
HETATM   20  C   UNK N   1      35.340  13.358  17.268  0.00  0.00     0.024 A 
HETATM   21  C   UNK N   1      35.560  12.886  15.972  0.00  0.00     0.011 A 
ENDBRANCH  14  15
BRANCH  14  22
HETATM   22  C   UNK N   1      37.044  10.048  14.117  0.00  0.00    -0.021 A 
HETATM   23  C   UNK N   1      36.961   9.011  13.177  0.00  0.00     0.010 A 
HETATM   24  C   UNK N   1      38.043   8.152  12.970  0.00  0.00     0.001 A 
HETATM   25  C   UNK N   1      39.222   8.328  13.699  0.00  0.00     0.000 A 
HETATM   26  C   UNK N   1      39.318   9.360  14.636  0.00  0.00     0.001 A 
HETATM   27  C   UNK N   1      38.234  10.219  14.846  0.00  0.00     0.010 A 
ENDBRANCH  14  22
ENDBRANCH  11  14
ENDBRANCH   7   8
ENDBRANCH   6   7
ENDBRANCH   5   6
ENDBRANCH   4   5
ENDBRANCH   2   4
TORSDOF 8
ENDMDL
MODEL 7
REMARK VINA RESULT:      -5.1      6.535     12.073
REMARK  8 active torsions:
REMARK  status: ('A' for Active; 'I' for Inactive)
REMARK    1  A    between atoms: O_2  and  C_14 
REMARK    2  A    between atoms: O_2  and  C_25 
REMARK    3  A    between atoms: N_4  and  C_10 
REMARK    4  A    between atoms: N_5  and  C_11 
REMARK    5  A    between atoms: C_10  and  C_12 
REMARK    6  A    between atoms: C_10  and  C_13 
REMARK    7  A    between atoms: C_11  and  C_14 
REMARK    8  A    between atoms: C_25  and  C_26 
ROOT
HETATM    1  O   UNK N   1      32.311  14.624   9.917  0.00  0.00    -0.399 OA
HETATM    2  C   UNK N   1      32.724  15.395   8.830  0.00  0.00     0.190 C 
HETATM    3  H   UNK N   1      32.087  14.108  10.707  0.00  0.00     0.209 HD
ENDROOT
BRANCH   2   4
HETATM    4  C   UNK N   1      33.856  16.316   9.250  0.00  0.00     0.193 C 
BRANCH   4   5
HETATM    5  O   UNK N   1      34.987  16.087   8.462  0.00  0.00    -0.387 OA
BRANCH   5   6
HETATM    6  C   UNK N   1      35.314  14.747   8.675  0.00  0.00     0.198 C 
BRANCH   6   7
HETATM    7  C   UNK N   1      35.986  14.600  10.037  0.00  0.00     0.298 C 
BRANCH   7   8
HETATM    8  N   UNK N   1      35.533  13.413  10.765  0.00  0.00     0.093 N 
HETATM    9  C   UNK N   1      34.937  13.790  12.056  0.00  0.00     0.302 C 
HETATM   10  C   UNK N   1      35.264  12.787  13.151  0.00  0.00     0.304 C 
HETATM   11  N   UNK N   1      36.720  12.706  13.313  0.00  0.00     0.105 N 
HETATM   12  C   UNK N   1      37.467  12.455  12.069  0.00  0.00     0.304 C 
HETATM   13  C   UNK N   1      36.573  12.370  10.818  0.00  0.00     0.302 C 
BRANCH  11  14
HETATM   14  C   UNK N   1      37.121  11.778  14.388  0.00  0.00     0.289 C 
BRANCH  14  15
HETATM   15  C   UNK N   1      37.040  10.292  14.030  0.00  0.00    -0.021 A 
HETATM   16  C   UNK N   1      35.805   9.748  13.637  0.00  0.00     0.011 A 
HETATM   17  C   UNK N   1      35.695   8.389  13.326  0.00  0.00     0.024 A 
HETATM   18  C   UNK N   1      36.812   7.557  13.419  0.00  0.00     0.034 A 
HETATM   19 Cl   UNK N   1      36.673   5.854  13.037  0.00  0.00    -0.084 Cl
HETATM   20  C   UNK N   1      38.041   8.082  13.823  0.00  0.00     0.024 A 
HETATM   21  C   UNK N   1      38.153   9.441  14.125  0.00  0.00     0.011 A 
ENDBRANCH  14  15
BRANCH  14  22
HETATM   22  C   UNK N   1      36.434  12.180  15.674  0.00  0.00    -0.021 A 
HETATM   23  C   UNK N   1      36.260  13.545  15.945  0.00  0.00     0.010 A 
HETATM   24  C   UNK N   1      35.623  13.960  17.117  0.00  0.00     0.001 A 
HETATM   25  C   UNK N   1      35.149  13.012  18.027  0.00  0.00     0.000 A 
HETATM   26  C   UNK N   1      35.313  11.649  17.766  0.00  0.00     0.001 A 
HETATM   27  C   UNK N   1      35.952  11.232  16.594  0.00  0.00     0.010 A 
ENDBRANCH  14  22
ENDBRANCH  11  14
ENDBRANCH   7   8
ENDBRANCH   6   7
ENDBRANCH   5   6
ENDBRANCH   4   5
ENDBRANCH   2   4
TORSDOF 8
ENDMDL
MODEL 8
REMARK VINA RESULT:      -4.9      6.222      8.509
REMARK  8 active torsions:
REMARK  status: ('A' for Active; 'I' for Inactive)
REMARK    1  A    between atoms: O_2  and  C_14 
REMARK    2  A    between atoms: O_2  and  C_25 
REMARK    3  A    between atoms: N_4  and  C_10 
REMARK    4  A    between atoms: N_5  and  C_11 
REMARK    5  A    between atoms: C_10  and  C_12 
REMARK    6  A    between atoms: C_10  and  C_13 
REMARK    7  A    between atoms: C_11  and  C_14 
REMARK    8  A    between atoms: C_25  and  C_26 
ROOT
HETATM    1  O   UNK N   1      21.777  11.633  11.617  0.00  0.00    -0.399 OA
HETATM    2  C   UNK N   1      23.128  11.949  11.763  0.00  0.00     0.190 C 
HETATM    3  H   UNK N   1      20.837  11.457  11.456  0.00  0.00     0.209 HD
ENDROOT
BRANCH   2   4
HETATM    4  C   UNK N   1      23.655  12.565  10.479  0.00  0.00     0.193 C 
BRANCH   4   5
HETATM    5  O   UNK N   1      22.727  13.470   9.956  0.00  0.00    -0.387 OA
BRANCH   5   6
HETATM    6  C   UNK N   1      22.628  13.148   8.602  0.00  0.00     0.198 C 
BRANCH   6   7
HETATM    7  C   UNK N   1      21.162  13.182   8.179  0.00  0.00     0.298 C 
BRANCH   7   8
HETATM    8  N   UNK N   1      20.992  13.469   6.753  0.00  0.00     0.093 N 
HETATM    9  C   UNK N   1      22.045  12.818   5.960  0.00  0.00     0.302 C 
HETATM   10  C   UNK N   1      22.494  13.677   4.789  0.00  0.00     0.304 C 
HETATM   11  N   UNK N   1      23.010  14.954   5.297  0.00  0.00     0.105 N 
HETATM   12  C   UNK N   1      22.104  15.666   6.213  0.00  0.00     0.304 C 
HETATM   13  C   UNK N   1      20.795  14.908   6.501  0.00  0.00     0.302 C 
BRANCH  11  14
HETATM   14  C   UNK N   1      23.503  15.835   4.221  0.00  0.00     0.289 C 
BRANCH  14  15
HETATM   15  C   UNK N   1      24.896  16.426   4.451  0.00  0.00    -0.021 A 
HETATM   16  C   UNK N   1      25.541  17.095   3.397  0.00  0.00     0.011 A 
HETATM   17  C   UNK N   1      26.823  17.625   3.570  0.00  0.00     0.024 A 
HETATM   18  C   UNK N   1      27.481  17.479   4.793  0.00  0.00     0.034 A 
HETATM   19 Cl   UNK N   1      29.090  18.135   5.009  0.00  0.00    -0.084 Cl
HETATM   20  C   UNK N   1      26.858  16.803   5.843  0.00  0.00     0.024 A 
HETATM   21  C   UNK N   1      25.573  16.281   5.673  0.00  0.00     0.011 A 
ENDBRANCH  14  15
BRANCH  14  22
HETATM   22  C   UNK N   1      22.422  16.828   3.857  0.00  0.00    -0.021 A 
HETATM   23  C   UNK N   1      22.464  18.108   4.427  0.00  0.00     0.010 A 
HETATM   24  C   UNK N   1      21.489  19.058   4.112  0.00  0.00     0.001 A 
HETATM   25  C   UNK N   1      20.465  18.737   3.218  0.00  0.00     0.000 A 
HETATM   26  C   UNK N   1      20.414  17.465   2.640  0.00  0.00     0.001 A 
HETATM   27  C   UNK N   1      21.388  16.513   2.956  0.00  0.00     0.010 A 
ENDBRANCH  14  22
ENDBRANCH  11  14
ENDBRANCH   7   8
ENDBRANCH   6   7
ENDBRANCH   5   6
ENDBRANCH   4   5
ENDBRANCH   2   4
TORSDOF 8
ENDMDL
MODEL 9
REMARK VINA RESULT:      -4.9      5.349      8.158
REMARK  8 active torsions:
REMARK  status: ('A' for Active; 'I' for Inactive)
REMARK    1  A    between atoms: O_2  and  C_14 
REMARK    2  A    between atoms: O_2  and  C_25 
REMARK    3  A    between atoms: N_4  and  C_10 
REMARK    4  A    between atoms: N_5  and  C_11 
REMARK    5  A    between atoms: C_10  and  C_12 
REMARK    6  A    between atoms: C_10  and  C_13 
REMARK    7  A    between atoms: C_11  and  C_14 
REMARK    8  A    between atoms: C_25  and  C_26 
ROOT
HETATM    1  O   UNK N   1      33.542  10.717  13.289  0.00  0.00    -0.399 OA
HETATM    2  C   UNK N   1      33.730  10.815  14.667  0.00  0.00     0.190 C 
HETATM    3  H   UNK N   1      33.434  10.719  12.325  0.00  0.00     0.209 HD
ENDROOT
BRANCH   2   4
HETATM    4  C   UNK N   1      34.589  12.026  14.986  0.00  0.00     0.193 C 
BRANCH   4   5
HETATM    5  O   UNK N   1      35.938  11.665  15.041  0.00  0.00    -0.387 OA
BRANCH   5   6
HETATM    6  C   UNK N   1      36.620  12.713  14.421  0.00  0.00     0.198 C 
BRANCH   6   7
HETATM    7  C   UNK N   1      36.539  12.544  12.907  0.00  0.00     0.298 C 
BRANCH   7   8
HETATM    8  N   UNK N   1      36.833  13.783  12.183  0.00  0.00     0.093 N 
HETATM    9  C   UNK N   1      35.723  14.739  12.313  0.00  0.00     0.302 C 
HETATM   10  C   UNK N   1      35.498  15.531  11.035  0.00  0.00     0.304 C 
HETATM   11  N   UNK N   1      35.192  14.604   9.940  0.00  0.00     0.105 N 
HETATM   12  C   UNK N   1      36.161  13.509   9.768  0.00  0.00     0.304 C 
HETATM   13  C   UNK N   1      37.296  13.520  10.808  0.00  0.00     0.302 C 
BRANCH  11  14
HETATM   14  C   UNK N   1      34.920  15.300   8.666  0.00  0.00     0.289 C 
BRANCH  14  15
HETATM   15  C   UNK N   1      33.652  16.156   8.650  0.00  0.00    -0.021 A 
HETATM   16  C   UNK N   1      32.423  15.567   8.993  0.00  0.00     0.011 A 
HETATM   17  C   UNK N   1      31.244  16.319   8.965  0.00  0.00     0.024 A 
HETATM   18  C   UNK N   1      31.277  17.660   8.578  0.00  0.00     0.034 A 
HETATM   19 Cl   UNK N   1      29.800  18.599   8.535  0.00  0.00    -0.084 Cl
HETATM   20  C   UNK N   1      32.490  18.252   8.220  0.00  0.00     0.024 A 
HETATM   21  C   UNK N   1      33.669  17.504   8.257  0.00  0.00     0.011 A 
ENDBRANCH  14  15
BRANCH  14  22
HETATM   22  C   UNK N   1      35.064  14.318   7.524  0.00  0.00    -0.021 A 
HETATM   23  C   UNK N   1      36.126  14.483   6.625  0.00  0.00     0.010 A 
HETATM   24  C   UNK N   1      36.300  13.595   5.561  0.00  0.00     0.001 A 
HETATM   25  C   UNK N   1      35.414  12.528   5.390  0.00  0.00     0.000 A 
HETATM   26  C   UNK N   1      34.353  12.352   6.283  0.00  0.00     0.001 A 
HETATM   27  C   UNK N   1      34.177  13.242   7.347  0.00  0.00     0.010 A 
ENDBRANCH  14  22
ENDBRANCH  11  14
ENDBRANCH   7   8
ENDBRANCH   6   7
ENDBRANCH   5   6
ENDBRANCH   4   5
ENDBRANCH   2   4
TORSDOF 8
ENDMDL
