MODEL 1
REMARK VINA RESULT:      -6.5      0.000      0.000
REMARK  10 active torsions:
REMARK  status: ('A' for Active; 'I' for Inactive)
REMARK    1  A    between atoms: C_15  and  O_2 
REMARK    2  A    between atoms: C_17  and  O_3 
REMARK    3  A    between atoms: O_4  and  C_20 
REMARK    4  A    between atoms: O_6  and  C_22 
REMARK    5  A    between atoms: C_14  and  N_8 
REMARK       I    between atoms: N_8  and  C_21 
REMARK    6  A    between atoms: C_16  and  N_9 
REMARK       I    between atoms: N_11  and  C_23 
REMARK       I    between atoms: N_12  and  C_23 
REMARK    7  A    between atoms: C_13  and  C_15 
REMARK    8  A    between atoms: C_15  and  C_17 
REMARK    9  A    between atoms: C_17  and  C_20 
REMARK   10  A    between atoms: C_19  and  C_22 
ROOT
HETATM    1  O   UNK N   1      30.976  16.867   8.787  0.00  0.00    -0.335 OA
HETATM    2  C   UNK N   1      32.067  16.809   7.941  0.00  0.00     0.185 C 
HETATM    3  C   UNK N   1      31.645  16.293   6.538  0.00  0.00     0.143 C 
HETATM    4  C   UNK N   1      30.316  16.948   6.031  0.00  0.00     0.150 C 
HETATM    5  C   UNK N   1      29.503  17.598   7.132  0.00  0.00     0.044 C 
HETATM    6  C   UNK N   1      29.846  17.523   8.419  0.00  0.00     0.141 C 
ENDROOT
BRANCH   2   7
HETATM    7  C   UNK N   1      33.226  16.054   8.637  0.00  0.00     0.180 C 
BRANCH   7   8
HETATM    8  O   UNK N   1      32.824  15.550   9.876  0.00  0.00    -0.390 OA
HETATM    9  H   UNK N   1      32.149  15.130  10.433  0.00  0.00     0.210 HD
ENDBRANCH   7   8
BRANCH   7  10
HETATM   10  C   UNK N   1      34.420  16.998   8.876  0.00  0.00     0.173 C 
BRANCH  10  11
HETATM   11  O   UNK N   1      34.641  17.223  10.236  0.00  0.00    -0.391 OA
HETATM   12  H   UNK N   1      34.252  17.165  11.123  0.00  0.00     0.210 HD
ENDBRANCH  10  11
BRANCH  10  13
HETATM   13  C   UNK N   1      34.282  18.325   8.142  0.00  0.00     0.198 C 
BRANCH  13  14
HETATM   14  O   UNK N   1      35.294  19.205   8.525  0.00  0.00    -0.398 OA
HETATM   15  H   UNK N   1      36.109  19.277   9.047  0.00  0.00     0.209 HD
ENDBRANCH  13  14
ENDBRANCH  10  13
ENDBRANCH   7  10
ENDBRANCH   2   7
BRANCH   3  16
HETATM   16  N   UNK N   1      31.614  14.848   6.438  0.00  0.00    -0.352 N 
HETATM   17  C   UNK N   1      32.447  14.184   5.596  0.00  0.00     0.214 C 
HETATM   18  O   UNK N   1      33.227  14.795   4.878  0.00  0.00    -0.274 OA
HETATM   19  C   UNK N   1      32.406  12.698   5.531  0.00  0.00     0.117 C 
HETATM   20  H   UNK N   1      30.977  14.337   6.989  0.00  0.00     0.163 HD
ENDBRANCH   3  16
BRANCH   6  21
HETATM   21  C   UNK N   1      29.017  18.170   9.455  0.00  0.00     0.200 C 
HETATM   22  O   UNK N   1      29.537  18.821  10.337  0.00  0.00    -0.645 OA
BRANCH  21  23
HETATM   23  O   UNK N   1      27.669  18.079   9.396  0.00  0.00    -0.771 OA
HETATM   24  H   UNK N   1      27.160  17.960  10.174  0.00  0.00     0.167 HD
ENDBRANCH  21  23
ENDBRANCH   6  21
BRANCH   4  25
HETATM   25  N   UNK N   1      29.500  15.961   5.339  0.00  0.00    -0.217 N 
HETATM   26  C   UNK N   1      29.099  16.055   4.116  0.00  0.00     0.665 C 
HETATM   27  N   UNK N   1      28.284  15.038   3.576  0.00  0.00    -0.235 N 
HETATM   28  N   UNK N   1      29.442  17.169   3.315  0.00  0.00    -0.235 N 
HETATM   29  H   UNK N   1      27.493  15.063   2.990  0.00  0.00     0.174 HD
HETATM   30  H   UNK N   1      28.557  14.128   3.835  0.00  0.00     0.174 HD
HETATM   31  H   UNK N   1      29.897  18.010   3.553  0.00  0.00     0.174 HD
HETATM   32  H   UNK N   1      29.186  17.092   2.368  0.00  0.00     0.174 HD
ATOM     33  HN  UNK N   1      29.222  15.131   5.863  1.00  0.00     0.178 HD
ENDBRANCH   4  25
TORSDOF 10
ENDMDL
MODEL 2
REMARK VINA RESULT:      -6.1      8.520     11.817
REMARK  10 active torsions:
REMARK  status: ('A' for Active; 'I' for Inactive)
REMARK    1  A    between atoms: C_15  and  O_2 
REMARK    2  A    between atoms: C_17  and  O_3 
REMARK    3  A    between atoms: O_4  and  C_20 
REMARK    4  A    between atoms: O_6  and  C_22 
REMARK    5  A    between atoms: C_14  and  N_8 
REMARK       I    between atoms: N_8  and  C_21 
REMARK    6  A    between atoms: C_16  and  N_9 
REMARK       I    between atoms: N_11  and  C_23 
REMARK       I    between atoms: N_12  and  C_23 
REMARK    7  A    between atoms: C_13  and  C_15 
REMARK    8  A    between atoms: C_15  and  C_17 
REMARK    9  A    between atoms: C_17  and  C_20 
REMARK   10  A    between atoms: C_19  and  C_22 
ROOT
HETATM    1  O   UNK N   1      21.317  16.114   2.717  0.00  0.00    -0.335 OA
HETATM    2  C   UNK N   1      21.388  17.285   3.447  0.00  0.00     0.185 C 
HETATM    3  C   UNK N   1      22.143  17.051   4.785  0.00  0.00     0.143 C 
HETATM    4  C   UNK N   1      23.432  16.181   4.604  0.00  0.00     0.150 C 
HETATM    5  C   UNK N   1      23.461  15.406   3.302  0.00  0.00     0.044 C 
HETATM    6  C   UNK N   1      22.436  15.393   2.449  0.00  0.00     0.141 C 
ENDROOT
BRANCH   2   7
HETATM    7  C   UNK N   1      19.981  17.923   3.548  0.00  0.00     0.180 C 
BRANCH   7   8
HETATM    8  O   UNK N   1      19.016  16.961   3.859  0.00  0.00    -0.390 OA
HETATM    9  H   UNK N   1      18.758  16.030   3.954  0.00  0.00     0.210 HD
ENDBRANCH   7   8
BRANCH   7  10
HETATM   10  C   UNK N   1      19.584  18.574   2.209  0.00  0.00     0.173 C 
BRANCH  10  11
HETATM   11  O   UNK N   1      19.213  17.622   1.258  0.00  0.00    -0.391 OA
HETATM   12  H   UNK N   1      18.477  17.098   0.906  0.00  0.00     0.210 HD
ENDBRANCH  10  11
BRANCH  10  13
HETATM   13  C   UNK N   1      20.671  19.480   1.647  0.00  0.00     0.198 C 
BRANCH  13  14
HETATM   14  O   UNK N   1      20.546  19.593   0.262  0.00  0.00    -0.398 OA
HETATM   15  H   UNK N   1      20.331  19.098  -0.545  0.00  0.00     0.209 HD
ENDBRANCH  13  14
ENDBRANCH  10  13
ENDBRANCH   7  10
ENDBRANCH   2   7
BRANCH   3  16
HETATM   16  N   UNK N   1      21.293  16.555   5.849  0.00  0.00    -0.352 N 
HETATM   17  C   UNK N   1      20.907  17.359   6.873  0.00  0.00     0.214 C 
HETATM   18  O   UNK N   1      21.292  18.518   6.936  0.00  0.00    -0.274 OA
HETATM   19  C   UNK N   1      20.018  16.825   7.939  0.00  0.00     0.117 C 
HETATM   20  H   UNK N   1      20.992  15.617   5.831  0.00  0.00     0.163 HD
ENDBRANCH   3  16
BRANCH   6  21
HETATM   21  C   UNK N   1      22.512  14.618   1.196  0.00  0.00     0.200 C 
HETATM   22  O   UNK N   1      21.508  14.393   0.553  0.00  0.00    -0.645 OA
BRANCH  21  23
HETATM   23  O   UNK N   1      23.711  14.193   0.736  0.00  0.00    -0.771 OA
HETATM   24  H   UNK N   1      23.828  13.967  -0.166  0.00  0.00     0.167 HD
ENDBRANCH  21  23
ENDBRANCH   6  21
BRANCH   4  25
HETATM   25  N   UNK N   1      23.581  15.263   5.723  0.00  0.00    -0.217 N 
HETATM   26  C   UNK N   1      24.587  15.232   6.530  0.00  0.00     0.665 C 
HETATM   27  N   UNK N   1      24.620  14.266   7.558  0.00  0.00    -0.235 N 
HETATM   28  N   UNK N   1      25.668  16.133   6.388  0.00  0.00    -0.235 N 
HETATM   29  H   UNK N   1      25.345  13.705   7.918  0.00  0.00     0.174 HD
HETATM   30  H   UNK N   1      23.753  14.127   8.001  0.00  0.00     0.174 HD
HETATM   31  H   UNK N   1      25.867  16.784   5.676  0.00  0.00     0.174 HD
HETATM   32  H   UNK N   1      26.329  16.105   7.118  0.00  0.00     0.174 HD
ATOM     33  HN  UNK N   1      22.831  14.589   5.881  1.00  0.00     0.178 HD
ENDBRANCH   4  25
TORSDOF 10
ENDMDL
MODEL 3
REMARK VINA RESULT:      -6.1      1.711      1.930
REMARK  10 active torsions:
REMARK  status: ('A' for Active; 'I' for Inactive)
REMARK    1  A    between atoms: C_15  and  O_2 
REMARK    2  A    between atoms: C_17  and  O_3 
REMARK    3  A    between atoms: O_4  and  C_20 
REMARK    4  A    between atoms: O_6  and  C_22 
REMARK    5  A    between atoms: C_14  and  N_8 
REMARK       I    between atoms: N_8  and  C_21 
REMARK    6  A    between atoms: C_16  and  N_9 
REMARK       I    between atoms: N_11  and  C_23 
REMARK       I    between atoms: N_12  and  C_23 
REMARK    7  A    between atoms: C_13  and  C_15 
REMARK    8  A    between atoms: C_15  and  C_17 
REMARK    9  A    between atoms: C_17  and  C_20 
REMARK   10  A    between atoms: C_19  and  C_22 
ROOT
HETATM    1  O   UNK N   1      30.364  17.016   7.891  0.00  0.00    -0.335 OA
HETATM    2  C   UNK N   1      31.266  17.129   6.851  0.00  0.00     0.185 C 
HETATM    3  C   UNK N   1      30.534  17.069   5.482  0.00  0.00     0.143 C 
HETATM    4  C   UNK N   1      29.227  17.932   5.461  0.00  0.00     0.150 C 
HETATM    5  C   UNK N   1      28.717  18.291   6.842  0.00  0.00     0.044 C 
HETATM    6  C   UNK N   1      29.277  17.826   7.960  0.00  0.00     0.141 C 
ENDROOT
BRANCH   2   7
HETATM    7  C   UNK N   1      32.430  16.128   7.059  0.00  0.00     0.180 C 
BRANCH   7   8
HETATM    8  O   UNK N   1      31.948  14.868   7.421  0.00  0.00    -0.390 OA
HETATM    9  H   UNK N   1      32.102  13.985   7.793  0.00  0.00     0.210 HD
ENDBRANCH   7   8
BRANCH   7  10
HETATM   10  C   UNK N   1      33.368  16.614   8.181  0.00  0.00     0.173 C 
BRANCH  10  11
HETATM   11  O   UNK N   1      32.733  16.621   9.424  0.00  0.00    -0.391 OA
HETATM   12  H   UNK N   1      32.644  16.158  10.271  0.00  0.00     0.210 HD
ENDBRANCH  10  11
BRANCH  10  13
HETATM   13  C   UNK N   1      33.973  17.982   7.895  0.00  0.00     0.198 C 
BRANCH  13  14
HETATM   14  O   UNK N   1      34.555  18.005   6.627  0.00  0.00    -0.398 OA
HETATM   15  H   UNK N   1      34.499  18.418   5.750  0.00  0.00     0.209 HD
ENDBRANCH  13  14
ENDBRANCH  10  13
ENDBRANCH   7  10
ENDBRANCH   2   7
BRANCH   3  16
HETATM   16  N   UNK N   1      30.305  15.719   5.008  0.00  0.00    -0.352 N 
HETATM   17  C   UNK N   1      30.903  15.261   3.878  0.00  0.00     0.214 C 
HETATM   18  O   UNK N   1      31.628  15.989   3.216  0.00  0.00    -0.274 OA
HETATM   19  C   UNK N   1      30.663  13.863   3.428  0.00  0.00     0.117 C 
HETATM   20  H   UNK N   1      29.705  15.123   5.512  0.00  0.00     0.163 HD
ENDBRANCH   3  16
BRANCH   6  21
HETATM   21  C   UNK N   1      28.739  18.203   9.281  0.00  0.00     0.200 C 
HETATM   22  O   UNK N   1      29.479  18.620  10.148  0.00  0.00    -0.645 OA
BRANCH  21  23
HETATM   23  O   UNK N   1      27.408  18.130   9.515  0.00  0.00    -0.771 OA
HETATM   24  H   UNK N   1      27.065  18.235  10.381  0.00  0.00     0.167 HD
ENDBRANCH  21  23
ENDBRANCH   6  21
BRANCH   4  25
HETATM   25  N   UNK N   1      28.182  17.244   4.718  0.00  0.00    -0.217 N 
HETATM   26  C   UNK N   1      27.368  17.805   3.889  0.00  0.00     0.665 C 
HETATM   27  N   UNK N   1      26.377  17.024   3.257  0.00  0.00    -0.235 N 
HETATM   28  N   UNK N   1      27.436  19.192   3.620  0.00  0.00    -0.235 N 
HETATM   29  H   UNK N   1      25.429  17.194   3.052  0.00  0.00     0.174 HD
HETATM   30  H   UNK N   1      26.694  16.139   2.964  0.00  0.00     0.174 HD
HETATM   31  H   UNK N   1      27.975  19.898   4.045  0.00  0.00     0.174 HD
HETATM   32  H   UNK N   1      26.851  19.501   2.891  0.00  0.00     0.174 HD
ATOM     33  HN  UNK N   1      28.084  16.239   4.865  1.00  0.00     0.178 HD
ENDBRANCH   4  25
TORSDOF 10
ENDMDL
MODEL 4
REMARK VINA RESULT:      -5.8     13.565     15.951
REMARK  10 active torsions:
REMARK  status: ('A' for Active; 'I' for Inactive)
REMARK    1  A    between atoms: C_15  and  O_2 
REMARK    2  A    between atoms: C_17  and  O_3 
REMARK    3  A    between atoms: O_4  and  C_20 
REMARK    4  A    between atoms: O_6  and  C_22 
REMARK    5  A    between atoms: C_14  and  N_8 
REMARK       I    between atoms: N_8  and  C_21 
REMARK    6  A    between atoms: C_16  and  N_9 
REMARK       I    between atoms: N_11  and  C_23 
REMARK       I    between atoms: N_12  and  C_23 
REMARK    7  A    between atoms: C_13  and  C_15 
REMARK    8  A    between atoms: C_15  and  C_17 
REMARK    9  A    between atoms: C_17  and  C_20 
REMARK   10  A    between atoms: C_19  and  C_22 
ROOT
HETATM    1  O   UNK N   1      25.930  23.554  -5.839  0.00  0.00    -0.335 OA
HETATM    2  C   UNK N   1      26.928  24.502  -5.725  0.00  0.00     0.185 C 
HETATM    3  C   UNK N   1      28.327  23.825  -5.717  0.00  0.00     0.143 C 
HETATM    4  C   UNK N   1      28.457  22.701  -6.799  0.00  0.00     0.150 C 
HETATM    5  C   UNK N   1      27.124  22.211  -7.327  0.00  0.00     0.044 C 
HETATM    6  C   UNK N   1      25.957  22.632  -6.835  0.00  0.00     0.141 C 
ENDROOT
BRANCH   2   7
HETATM    7  C   UNK N   1      26.612  25.453  -4.545  0.00  0.00     0.180 C 
BRANCH   7   8
HETATM    8  O   UNK N   1      26.244  24.732  -3.405  0.00  0.00    -0.390 OA
HETATM    9  H   UNK N   1      25.844  23.945  -3.002  0.00  0.00     0.210 HD
ENDBRANCH   7   8
BRANCH   7  10
HETATM   10  C   UNK N   1      25.446  26.393  -4.904  0.00  0.00     0.173 C 
BRANCH  10  11
HETATM   11  O   UNK N   1      25.259  26.485  -6.285  0.00  0.00    -0.391 OA
HETATM   12  H   UNK N   1      24.739  26.164  -7.038  0.00  0.00     0.210 HD
ENDBRANCH  10  11
BRANCH  10  13
HETATM   13  C   UNK N   1      25.600  27.784  -4.303  0.00  0.00     0.198 C 
BRANCH  13  14
HETATM   14  O   UNK N   1      25.497  27.731  -2.913  0.00  0.00    -0.398 OA
HETATM   15  H   UNK N   1      26.015  27.692  -2.093  0.00  0.00     0.209 HD
ENDBRANCH  13  14
ENDBRANCH  10  13
ENDBRANCH   7  10
ENDBRANCH   2   7
BRANCH   3  16
HETATM   16  N   UNK N   1      28.742  23.372  -4.405  0.00  0.00    -0.352 N 
HETATM   17  C   UNK N   1      29.908  23.795  -3.851  0.00  0.00     0.214 C 
HETATM   18  O   UNK N   1      30.651  24.551  -4.462  0.00  0.00    -0.274 OA
HETATM   19  C   UNK N   1      30.296  23.328  -2.494  0.00  0.00     0.117 C 
HETATM   20  H   UNK N   1      28.171  22.744  -3.906  0.00  0.00     0.163 HD
ENDBRANCH   3  16
BRANCH   6  21
HETATM   21  C   UNK N   1      24.685  22.120  -7.381  0.00  0.00     0.200 C 
HETATM   22  O   UNK N   1      24.326  22.437  -8.497  0.00  0.00    -0.645 OA
BRANCH  21  23
HETATM   23  O   UNK N   1      23.937  21.257  -6.657  0.00  0.00    -0.771 OA
HETATM   24  H   UNK N   1      23.003  21.252  -6.727  0.00  0.00     0.167 HD
ENDBRANCH  21  23
ENDBRANCH   6  21
BRANCH   4  25
HETATM   25  N   UNK N   1      29.215  21.577  -6.268  0.00  0.00    -0.217 N 
HETATM   26  C   UNK N   1      30.433  21.288  -6.583  0.00  0.00     0.665 C 
HETATM   27  N   UNK N   1      31.040  20.148  -6.016  0.00  0.00    -0.235 N 
HETATM   28  N   UNK N   1      31.160  22.079  -7.502  0.00  0.00    -0.235 N 
HETATM   29  H   UNK N   1      31.630  19.455  -6.393  0.00  0.00     0.174 HD
HETATM   30  H   UNK N   1      30.837  20.020  -5.062  0.00  0.00     0.174 HD
HETATM   31  H   UNK N   1      30.867  22.828  -8.071  0.00  0.00     0.174 HD
HETATM   32  H   UNK N   1      32.112  21.844  -7.587  0.00  0.00     0.174 HD
ATOM     33  HN  UNK N   1      28.746  20.969  -5.596  1.00  0.00     0.178 HD
ENDBRANCH   4  25
TORSDOF 10
ENDMDL
MODEL 5
REMARK VINA RESULT:      -5.8      8.313     11.547
REMARK  10 active torsions:
REMARK  status: ('A' for Active; 'I' for Inactive)
REMARK    1  A    between atoms: C_15  and  O_2 
REMARK    2  A    between atoms: C_17  and  O_3 
REMARK    3  A    between atoms: O_4  and  C_20 
REMARK    4  A    between atoms: O_6  and  C_22 
REMARK    5  A    between atoms: C_14  and  N_8 
REMARK       I    between atoms: N_8  and  C_21 
REMARK    6  A    between atoms: C_16  and  N_9 
REMARK       I    between atoms: N_11  and  C_23 
REMARK       I    between atoms: N_12  and  C_23 
REMARK    7  A    between atoms: C_13  and  C_15 
REMARK    8  A    between atoms: C_15  and  C_17 
REMARK    9  A    between atoms: C_17  and  C_20 
REMARK   10  A    between atoms: C_19  and  C_22 
ROOT
HETATM    1  O   UNK N   1      20.865  18.755   2.390  0.00  0.00    -0.335 OA
HETATM    2  C   UNK N   1      20.830  18.168   3.641  0.00  0.00     0.185 C 
HETATM    3  C   UNK N   1      22.269  17.970   4.193  0.00  0.00     0.143 C 
HETATM    4  C   UNK N   1      23.180  19.222   3.958  0.00  0.00     0.150 C 
HETATM    5  C   UNK N   1      22.646  20.170   2.903  0.00  0.00     0.044 C 
HETATM    6  C   UNK N   1      21.558  19.903   2.180  0.00  0.00     0.141 C 
ENDROOT
BRANCH   2   7
HETATM    7  C   UNK N   1      19.924  16.913   3.603  0.00  0.00     0.180 C 
BRANCH   7   8
HETATM    8  O   UNK N   1      20.191  16.070   4.684  0.00  0.00    -0.390 OA
HETATM    9  H   UNK N   1      20.304  15.938   5.639  0.00  0.00     0.210 HD
ENDBRANCH   7   8
BRANCH   7  10
HETATM   10  C   UNK N   1      20.162  16.112   2.309  0.00  0.00     0.173 C 
BRANCH  10  11
HETATM   11  O   UNK N   1      19.290  16.499   1.290  0.00  0.00    -0.391 OA
HETATM   12  H   UNK N   1      18.480  16.269   0.809  0.00  0.00     0.210 HD
ENDBRANCH  10  11
BRANCH  10  13
HETATM   13  C   UNK N   1      20.082  14.606   2.522  0.00  0.00     0.198 C 
BRANCH  13  14
HETATM   14  O   UNK N   1      18.784  14.228   2.867  0.00  0.00    -0.398 OA
HETATM   15  H   UNK N   1      18.017  13.712   2.571  0.00  0.00     0.209 HD
ENDBRANCH  13  14
ENDBRANCH  10  13
ENDBRANCH   7  10
ENDBRANCH   2   7
BRANCH   3  16
HETATM   16  N   UNK N   1      22.897  16.745   3.743  0.00  0.00    -0.352 N 
HETATM   17  C   UNK N   1      23.279  15.786   4.626  0.00  0.00     0.214 C 
HETATM   18  O   UNK N   1      23.126  15.948   5.829  0.00  0.00    -0.274 OA
HETATM   19  C   UNK N   1      23.903  14.529   4.131  0.00  0.00     0.117 C 
HETATM   20  H   UNK N   1      23.052  16.604   2.781  0.00  0.00     0.163 HD
ENDBRANCH   3  16
BRANCH   6  21
HETATM   21  C   UNK N   1      21.081  20.858   1.161  0.00  0.00     0.200 C 
HETATM   22  O   UNK N   1      21.058  20.543  -0.011  0.00  0.00    -0.645 OA
BRANCH  21  23
HETATM   23  O   UNK N   1      20.624  22.075   1.537  0.00  0.00    -0.771 OA
HETATM   24  H   UNK N   1      20.938  22.855   1.125  0.00  0.00     0.167 HD
ENDBRANCH  21  23
ENDBRANCH   6  21
BRANCH   4  25
HETATM   25  N   UNK N   1      24.528  18.803   3.601  0.00  0.00    -0.217 N 
HETATM   26  C   UNK N   1      25.569  18.935   4.351  0.00  0.00     0.665 C 
HETATM   27  N   UNK N   1      26.827  18.514   3.868  0.00  0.00    -0.235 N 
HETATM   28  N   UNK N   1      25.478  19.516   5.637  0.00  0.00    -0.235 N 
HETATM   29  H   UNK N   1      27.727  18.908   3.930  0.00  0.00     0.174 HD
HETATM   30  H   UNK N   1      26.799  17.663   3.374  0.00  0.00     0.174 HD
HETATM   31  H   UNK N   1      24.722  19.961   6.084  0.00  0.00     0.174 HD
HETATM   32  H   UNK N   1      26.303  19.466   6.173  0.00  0.00     0.174 HD
ATOM     33  HN  UNK N   1      24.659  18.373   2.685  1.00  0.00     0.178 HD
ENDBRANCH   4  25
TORSDOF 10
ENDMDL
MODEL 6
REMARK VINA RESULT:      -5.7     11.782     13.668
REMARK  10 active torsions:
REMARK  status: ('A' for Active; 'I' for Inactive)
REMARK    1  A    between atoms: C_15  and  O_2 
REMARK    2  A    between atoms: C_17  and  O_3 
REMARK    3  A    between atoms: O_4  and  C_20 
REMARK    4  A    between atoms: O_6  and  C_22 
REMARK    5  A    between atoms: C_14  and  N_8 
REMARK       I    between atoms: N_8  and  C_21 
REMARK    6  A    between atoms: C_16  and  N_9 
REMARK       I    between atoms: N_11  and  C_23 
REMARK       I    between atoms: N_12  and  C_23 
REMARK    7  A    between atoms: C_13  and  C_15 
REMARK    8  A    between atoms: C_15  and  C_17 
REMARK    9  A    between atoms: C_17  and  C_20 
REMARK   10  A    between atoms: C_19  and  C_22 
ROOT
HETATM    1  O   UNK N   1      30.614  21.675  -3.875  0.00  0.00    -0.335 OA
HETATM    2  C   UNK N   1      31.313  21.717  -5.066  0.00  0.00     0.185 C 
HETATM    3  C   UNK N   1      30.337  21.808  -6.271  0.00  0.00     0.143 C 
HETATM    4  C   UNK N   1      29.175  22.829  -6.028  0.00  0.00     0.150 C 
HETATM    5  C   UNK N   1      28.983  23.192  -4.569  0.00  0.00     0.044 C 
HETATM    6  C   UNK N   1      29.675  22.612  -3.587  0.00  0.00     0.141 C 
ENDROOT
BRANCH   2   7
HETATM    7  C   UNK N   1      32.352  20.569  -5.101  0.00  0.00     0.180 C 
BRANCH   7   8
HETATM    8  O   UNK N   1      31.872  19.437  -4.437  0.00  0.00    -0.390 OA
HETATM    9  H   UNK N   1      31.159  18.983  -3.961  0.00  0.00     0.210 HD
ENDBRANCH   7   8
BRANCH   7  10
HETATM   10  C   UNK N   1      33.660  21.001  -4.411  0.00  0.00     0.173 C 
BRANCH  10  11
HETATM   11  O   UNK N   1      34.786  20.546  -5.099  0.00  0.00    -0.391 OA
HETATM   12  H   UNK N   1      35.429  20.754  -5.794  0.00  0.00     0.210 HD
ENDBRANCH  10  11
BRANCH  10  13
HETATM   13  C   UNK N   1      33.729  20.571  -2.951  0.00  0.00     0.198 C 
BRANCH  13  14
HETATM   14  O   UNK N   1      32.803  21.282  -2.187  0.00  0.00    -0.398 OA
HETATM   15  H   UNK N   1      32.541  22.174  -1.910  0.00  0.00     0.209 HD
ENDBRANCH  13  14
ENDBRANCH  10  13
ENDBRANCH   7  10
ENDBRANCH   2   7
BRANCH   3  16
HETATM   16  N   UNK N   1      29.847  20.519  -6.717  0.00  0.00    -0.352 N 
HETATM   17  C   UNK N   1      30.225  20.000  -7.914  0.00  0.00     0.214 C 
HETATM   18  O   UNK N   1      30.968  20.624  -8.659  0.00  0.00    -0.274 OA
HETATM   19  C   UNK N   1      29.721  18.665  -8.335  0.00  0.00     0.117 C 
HETATM   20  H   UNK N   1      29.229  20.011  -6.144  0.00  0.00     0.163 HD
ENDBRANCH   3  16
BRANCH   6  21
HETATM   21  C   UNK N   1      29.448  22.998  -2.181  0.00  0.00     0.200 C 
HETATM   22  O   UNK N   1      30.388  23.187  -1.437  0.00  0.00    -0.645 OA
BRANCH  21  23
HETATM   23  O   UNK N   1      28.187  23.187  -1.727  0.00  0.00    -0.771 OA
HETATM   24  H   UNK N   1      27.862  24.049  -1.556  0.00  0.00     0.167 HD
ENDBRANCH  21  23
ENDBRANCH   6  21
BRANCH   4  25
HETATM   25  N   UNK N   1      27.928  22.311  -6.570  0.00  0.00    -0.217 N 
HETATM   26  C   UNK N   1      27.057  23.005  -7.223  0.00  0.00     0.665 C 
HETATM   27  N   UNK N   1      25.871  22.383  -7.668  0.00  0.00    -0.235 N 
HETATM   28  N   UNK N   1      27.260  24.380  -7.480  0.00  0.00    -0.235 N 
HETATM   29  H   UNK N   1      24.933  22.682  -7.688  0.00  0.00     0.174 HD
HETATM   30  H   UNK N   1      26.007  21.477  -8.028  0.00  0.00     0.174 HD
HETATM   31  H   UNK N   1      27.957  24.995  -7.154  0.00  0.00     0.174 HD
HETATM   32  H   UNK N   1      26.596  24.791  -8.081  0.00  0.00     0.174 HD
ATOM     33  HN  UNK N   1      27.725  21.322  -6.422  1.00  0.00     0.178 HD
ENDBRANCH   4  25
TORSDOF 10
ENDMDL
MODEL 7
REMARK VINA RESULT:      -5.4      7.467     10.645
REMARK  10 active torsions:
REMARK  status: ('A' for Active; 'I' for Inactive)
REMARK    1  A    between atoms: C_15  and  O_2 
REMARK    2  A    between atoms: C_17  and  O_3 
REMARK    3  A    between atoms: O_4  and  C_20 
REMARK    4  A    between atoms: O_6  and  C_22 
REMARK    5  A    between atoms: C_14  and  N_8 
REMARK       I    between atoms: N_8  and  C_21 
REMARK    6  A    between atoms: C_16  and  N_9 
REMARK       I    between atoms: N_11  and  C_23 
REMARK       I    between atoms: N_12  and  C_23 
REMARK    7  A    between atoms: C_13  and  C_15 
REMARK    8  A    between atoms: C_15  and  C_17 
REMARK    9  A    between atoms: C_17  and  C_20 
REMARK   10  A    between atoms: C_19  and  C_22 
ROOT
HETATM    1  O   UNK N   1      21.699  17.909   3.149  0.00  0.00    -0.335 OA
HETATM    2  C   UNK N   1      21.971  16.745   3.841  0.00  0.00     0.185 C 
HETATM    3  C   UNK N   1      23.500  16.590   4.071  0.00  0.00     0.143 C 
HETATM    4  C   UNK N   1      24.178  17.927   4.524  0.00  0.00     0.150 C 
HETATM    5  C   UNK N   1      23.339  19.157   4.242  0.00  0.00     0.044 C 
HETATM    6  C   UNK N   1      22.183  19.103   3.579  0.00  0.00     0.141 C 
ENDROOT
BRANCH   2   7
HETATM    7  C   UNK N   1      21.249  15.554   3.163  0.00  0.00     0.180 C 
BRANCH   7   8
HETATM    8  O   UNK N   1      21.323  15.650   1.771  0.00  0.00    -0.390 OA
HETATM    9  H   UNK N   1      21.025  15.364   0.893  0.00  0.00     0.210 HD
ENDBRANCH   7   8
BRANCH   7  10
HETATM   10  C   UNK N   1      19.759  15.531   3.556  0.00  0.00     0.173 C 
BRANCH  10  11
HETATM   11  O   UNK N   1      19.229  16.818   3.666  0.00  0.00    -0.391 OA
HETATM   12  H   UNK N   1      19.104  17.576   4.257  0.00  0.00     0.210 HD
ENDBRANCH  10  11
BRANCH  10  13
HETATM   13  C   UNK N   1      19.497  14.746   4.835  0.00  0.00     0.198 C 
BRANCH  13  14
HETATM   14  O   UNK N   1      18.127  14.568   5.028  0.00  0.00    -0.398 OA
HETATM   15  H   UNK N   1      17.301  15.034   5.232  0.00  0.00     0.209 HD
ENDBRANCH  13  14
ENDBRANCH  10  13
ENDBRANCH   7  10
ENDBRANCH   2   7
BRANCH   3  16
HETATM   16  N   UNK N   1      24.193  15.975   2.957  0.00  0.00    -0.352 N 
HETATM   17  C   UNK N   1      24.775  14.754   3.079  0.00  0.00     0.214 C 
HETATM   18  O   UNK N   1      24.752  14.155   4.145  0.00  0.00    -0.274 OA
HETATM   19  C   UNK N   1      25.462  14.140   1.911  0.00  0.00     0.117 C 
HETATM   20  H   UNK N   1      24.245  16.451   2.097  0.00  0.00     0.163 HD
ENDBRANCH   3  16
BRANCH   6  21
HETATM   21  C   UNK N   1      21.405  20.331   3.327  0.00  0.00     0.200 C 
HETATM   22  O   UNK N   1      20.280  20.445   3.768  0.00  0.00    -0.645 OA
BRANCH  21  23
HETATM   23  O   UNK N   1      21.963  21.355   2.641  0.00  0.00    -0.771 OA
HETATM   24  H   UNK N   1      22.870  21.340   2.406  0.00  0.00     0.167 HD
ENDBRANCH  21  23
ENDBRANCH   6  21
BRANCH   4  25
HETATM   25  N   UNK N   1      25.482  18.069   3.891  0.00  0.00    -0.217 N 
HETATM   26  C   UNK N   1      26.588  18.299   4.514  0.00  0.00     0.665 C 
HETATM   27  N   UNK N   1      27.780  18.446   3.773  0.00  0.00    -0.235 N 
HETATM   28  N   UNK N   1      26.623  18.429   5.921  0.00  0.00    -0.235 N 
HETATM   29  H   UNK N   1      28.541  19.066   3.858  0.00  0.00     0.174 HD
HETATM   30  H   UNK N   1      27.869  17.807   3.030  0.00  0.00     0.174 HD
HETATM   31  H   UNK N   1      25.890  18.470   6.577  0.00  0.00     0.174 HD
HETATM   32  H   UNK N   1      27.527  18.488   6.309  0.00  0.00     0.174 HD
ATOM     33  HN  UNK N   1      25.523  17.981   2.875  1.00  0.00     0.178 HD
ENDBRANCH   4  25
TORSDOF 10
ENDMDL
MODEL 8
REMARK VINA RESULT:      -5.4     13.643     16.129
REMARK  10 active torsions:
REMARK  status: ('A' for Active; 'I' for Inactive)
REMARK    1  A    between atoms: C_15  and  O_2 
REMARK    2  A    between atoms: C_17  and  O_3 
REMARK    3  A    between atoms: O_4  and  C_20 
REMARK    4  A    between atoms: O_6  and  C_22 
REMARK    5  A    between atoms: C_14  and  N_8 
REMARK       I    between atoms: N_8  and  C_21 
REMARK    6  A    between atoms: C_16  and  N_9 
REMARK       I    between atoms: N_11  and  C_23 
REMARK       I    between atoms: N_12  and  C_23 
REMARK    7  A    between atoms: C_13  and  C_15 
REMARK    8  A    between atoms: C_15  and  C_17 
REMARK    9  A    between atoms: C_17  and  C_20 
REMARK   10  A    between atoms: C_19  and  C_22 
ROOT
HETATM    1  O   UNK N   1      28.537  24.233  -3.649  0.00  0.00    -0.335 OA
HETATM    2  C   UNK N   1      28.177  24.983  -4.751  0.00  0.00     0.185 C 
HETATM    3  C   UNK N   1      28.720  26.434  -4.626  0.00  0.00     0.143 C 
HETATM    4  C   UNK N   1      30.199  26.481  -4.116  0.00  0.00     0.150 C 
HETATM    5  C   UNK N   1      30.654  25.194  -3.457  0.00  0.00     0.044 C 
HETATM    6  C   UNK N   1      29.832  24.165  -3.246  0.00  0.00     0.141 C 
ENDROOT
BRANCH   2   7
HETATM    7  C   UNK N   1      26.659  24.832  -5.013  0.00  0.00     0.180 C 
BRANCH   7   8
HETATM    8  O   UNK N   1      25.974  24.535  -3.832  0.00  0.00    -0.390 OA
HETATM    9  H   UNK N   1      25.360  23.970  -3.336  0.00  0.00     0.210 HD
ENDBRANCH   7   8
BRANCH   7  10
HETATM   10  C   UNK N   1      26.393  23.689  -6.012  0.00  0.00     0.173 C 
BRANCH  10  11
HETATM   11  O   UNK N   1      27.525  22.897  -6.209  0.00  0.00    -0.391 OA
HETATM   12  H   UNK N   1      27.869  21.990  -6.207  0.00  0.00     0.210 HD
ENDBRANCH  10  11
BRANCH  10  13
HETATM   13  C   UNK N   1      25.861  24.184  -7.350  0.00  0.00     0.198 C 
BRANCH  13  14
HETATM   14  O   UNK N   1      24.927  23.287  -7.869  0.00  0.00    -0.398 OA
HETATM   15  H   UNK N   1      24.521  22.973  -8.692  0.00  0.00     0.209 HD
ENDBRANCH  13  14
ENDBRANCH  10  13
ENDBRANCH   7  10
ENDBRANCH   2   7
BRANCH   3  16
HETATM   16  N   UNK N   1      27.852  27.312  -3.868  0.00  0.00    -0.352 N 
HETATM   17  C   UNK N   1      27.160  28.311  -4.473  0.00  0.00     0.214 C 
HETATM   18  O   UNK N   1      27.276  28.512  -5.674  0.00  0.00    -0.274 OA
HETATM   19  C   UNK N   1      26.262  29.183  -3.670  0.00  0.00     0.117 C 
HETATM   20  H   UNK N   1      27.763  27.184  -2.895  0.00  0.00     0.163 HD
ENDBRANCH   3  16
BRANCH   6  21
HETATM   21  C   UNK N   1      30.322  22.934  -2.596  0.00  0.00     0.200 C 
HETATM   22  O   UNK N   1      30.564  22.925  -1.406  0.00  0.00    -0.645 OA
BRANCH  21  23
HETATM   23  O   UNK N   1      30.460  21.798  -3.316  0.00  0.00    -0.771 OA
HETATM   24  H   UNK N   1      30.618  21.829  -4.239  0.00  0.00     0.167 HD
ENDBRANCH  21  23
ENDBRANCH   6  21
BRANCH   4  25
HETATM   25  N   UNK N   1      30.379  27.592  -3.193  0.00  0.00    -0.217 N 
HETATM   26  C   UNK N   1      31.387  28.397  -3.187  0.00  0.00     0.665 C 
HETATM   27  N   UNK N   1      31.452  29.416  -2.214  0.00  0.00    -0.235 N 
HETATM   28  N   UNK N   1      32.440  28.260  -4.122  0.00  0.00    -0.235 N 
HETATM   29  H   UNK N   1      32.194  29.770  -1.672  0.00  0.00     0.174 HD
HETATM   30  H   UNK N   1      30.590  29.860  -2.044  0.00  0.00     0.174 HD
HETATM   31  H   UNK N   1      32.617  27.554  -4.784  0.00  0.00     0.174 HD
HETATM   32  H   UNK N   1      33.102  28.989  -4.108  0.00  0.00     0.174 HD
ATOM     33  HN  UNK N   1      29.650  27.746  -2.496  1.00  0.00     0.178 HD
ENDBRANCH   4  25
TORSDOF 10
ENDMDL
MODEL 9
REMARK VINA RESULT:      -5.4      6.854      8.964
REMARK  10 active torsions:
REMARK  status: ('A' for Active; 'I' for Inactive)
REMARK    1  A    between atoms: C_15  and  O_2 
REMARK    2  A    between atoms: C_17  and  O_3 
REMARK    3  A    between atoms: O_4  and  C_20 
REMARK    4  A    between atoms: O_6  and  C_22 
REMARK    5  A    between atoms: C_14  and  N_8 
REMARK       I    between atoms: N_8  and  C_21 
REMARK    6  A    between atoms: C_16  and  N_9 
REMARK       I    between atoms: N_11  and  C_23 
REMARK       I    between atoms: N_12  and  C_23 
REMARK    7  A    between atoms: C_13  and  C_15 
REMARK    8  A    between atoms: C_15  and  C_17 
REMARK    9  A    between atoms: C_17  and  C_20 
REMARK   10  A    between atoms: C_19  and  C_22 
ROOT
HETATM    1  O   UNK N   1      36.370  12.144  14.008  0.00  0.00    -0.335 OA
HETATM    2  C   UNK N   1      36.705  11.592  12.786  0.00  0.00     0.185 C 
HETATM    3  C   UNK N   1      35.807  12.173  11.659  0.00  0.00     0.143 C 
HETATM    4  C   UNK N   1      35.624  13.724  11.776  0.00  0.00     0.150 C 
HETATM    5  C   UNK N   1      35.976  14.274  13.143  0.00  0.00     0.044 C 
HETATM    6  C   UNK N   1      36.310  13.491  14.170  0.00  0.00     0.141 C 
ENDROOT
BRANCH   2   7
HETATM    7  C   UNK N   1      36.754  10.049  12.906  0.00  0.00     0.180 C 
BRANCH   7   8
HETATM    8  O   UNK N   1      35.616   9.560  13.553  0.00  0.00    -0.390 OA
HETATM    9  H   UNK N   1      35.205   8.939  14.175  0.00  0.00     0.210 HD
ENDBRANCH   7   8
BRANCH   7  10
HETATM   10  C   UNK N   1      37.985   9.608  13.722  0.00  0.00     0.173 C 
BRANCH  10  11
HETATM   11  O   UNK N   1      38.749   8.660  13.039  0.00  0.00    -0.391 OA
HETATM   12  H   UNK N   1      39.618   8.234  12.981  0.00  0.00     0.210 HD
ENDBRANCH  10  11
BRANCH  10  13
HETATM   13  C   UNK N   1      37.622   9.090  15.107  0.00  0.00     0.198 C 
BRANCH  13  14
HETATM   14  O   UNK N   1      37.252  10.143  15.943  0.00  0.00    -0.398 OA
HETATM   15  H   UNK N   1      37.287  11.108  16.045  0.00  0.00     0.209 HD
ENDBRANCH  13  14
ENDBRANCH  10  13
ENDBRANCH   7  10
ENDBRANCH   2   7
BRANCH   3  16
HETATM   16  N   UNK N   1      34.542  11.483  11.513  0.00  0.00    -0.352 N 
HETATM   17  C   UNK N   1      34.273  10.732  10.414  0.00  0.00     0.214 C 
HETATM   18  O   UNK N   1      35.085  10.645   9.504  0.00  0.00    -0.274 OA
HETATM   19  C   UNK N   1      32.972  10.019  10.304  0.00  0.00     0.117 C 
HETATM   20  H   UNK N   1      33.864  11.559  12.224  0.00  0.00     0.163 HD
ENDBRANCH   3  16
BRANCH   6  21
HETATM   21  C   UNK N   1      36.640  14.076  15.484  0.00  0.00     0.200 C 
HETATM   22  O   UNK N   1      35.985  13.788  16.464  0.00  0.00    -0.645 OA
BRANCH  21  23
HETATM   23  O   UNK N   1      37.705  14.900  15.608  0.00  0.00    -0.771 OA
HETATM   24  H   UNK N   1      38.490  14.749  15.119  0.00  0.00     0.167 HD
ENDBRANCH  21  23
ENDBRANCH   6  21
BRANCH   4  25
HETATM   25  N   UNK N   1      34.258  14.096  11.436  0.00  0.00    -0.217 N 
HETATM   26  C   UNK N   1      33.923  14.903  10.487  0.00  0.00     0.665 C 
HETATM   27  N   UNK N   1      32.559  15.203  10.285  0.00  0.00    -0.235 N 
HETATM   28  N   UNK N   1      34.898  15.509   9.661  0.00  0.00    -0.235 N 
HETATM   29  H   UNK N   1      32.089  16.042  10.072  0.00  0.00     0.174 HD
HETATM   30  H   UNK N   1      31.962  14.425  10.373  0.00  0.00     0.174 HD
HETATM   31  H   UNK N   1      35.880  15.507   9.727  0.00  0.00     0.174 HD
HETATM   32  H   UNK N   1      34.537  16.015   8.897  0.00  0.00     0.174 HD
ATOM     33  HN  UNK N   1      33.507  13.688  11.994  1.00  0.00     0.178 HD
ENDBRANCH   4  25
TORSDOF 10
ENDMDL
