MODEL 1
REMARK VINA RESULT:      -7.5      0.000      0.000
REMARK  12 active torsions:
REMARK  status: ('A' for Active; 'I' for Inactive)
REMARK    1  A    between atoms: S_1  and  N_8 
REMARK    2  A    between atoms: S_1  and  C_24 
REMARK    3  A    between atoms: O_4  and  C_28 
REMARK    4  A    between atoms: O_4  and  C_31 
REMARK    5  A    between atoms: O_5  and  C_29 
REMARK    6  A    between atoms: O_5  and  C_33 
REMARK    7  A    between atoms: O_6  and  C_34 
REMARK    8  A    between atoms: O_7  and  C_37 
REMARK    9  A    between atoms: N_8  and  C_27 
REMARK   10  A    between atoms: C_17  and  C_18 
REMARK   11  A    between atoms: C_30  and  C_32 
REMARK   12  A    between atoms: C_33  and  C_37 
ROOT
HETATM    1  N   UNK N   1      22.601  13.721   6.913  0.00  0.00    -0.323 N 
ATOM      2  HN  UNK N   1      23.295  12.986   6.776  1.00  0.00     0.169 HD
HETATM    3  N   UNK N   1      21.275  15.012   8.356  0.00  0.00    -0.318 N 
ATOM      4  HN  UNK N   1      20.991  15.249   9.306  1.00  0.00     0.169 HD
HETATM    5  C   UNK N   1      22.087  14.371   5.836  0.00  0.00     0.155 A 
HETATM    6  C   UNK N   1      21.113  15.361   5.991  0.00  0.00     0.171 A 
HETATM    7  C   UNK N   1      20.713  15.683   7.312  0.00  0.00     0.182 A 
HETATM    8  C   UNK N   1      22.200  14.037   8.172  0.00  0.00     0.154 A 
ENDROOT
BRANCH   5   9
HETATM    9  N   UNK N   1      22.498  14.025   4.530  0.00  0.00    -0.263 N 
HETATM   10  H   UNK N   1      21.831  13.721   3.874  0.00  0.00     0.180 HD
BRANCH   9  11
HETATM   11  S   UNK N   1      24.180  14.132   4.067  0.00  0.00     0.264 S 
HETATM   12  O   UNK N   1      24.892  13.062   4.908  0.00  0.00    -0.200 OA
HETATM   13  O   UNK N   1      24.220  13.526   2.655  0.00  0.00    -0.200 OA
BRANCH  11  14
HETATM   14  C   UNK N   1      24.931  15.739   4.169  0.00  0.00     0.079 A 
HETATM   15  C   UNK N   1      24.218  16.859   3.745  0.00  0.00     0.026 A 
HETATM   16  C   UNK N   1      24.793  18.126   3.831  0.00  0.00     0.009 A 
HETATM   17  C   UNK N   1      26.092  18.285   4.346  0.00  0.00    -0.051 A 
HETATM   18  C   UNK N   1      26.802  17.146   4.769  0.00  0.00     0.009 A 
HETATM   19  C   UNK N   1      26.222  15.879   4.682  0.00  0.00     0.026 A 
BRANCH  17  20
HETATM   20  C   UNK N   1      26.694  19.672   4.438  0.00  0.00    -0.024 C 
HETATM   21  C   UNK N   1      26.170  20.378   5.676  0.00  0.00     0.019 C 
HETATM   22  C   UNK N   1      26.365  20.538   3.230  0.00  0.00     0.019 C 
HETATM   23  C   UNK N   1      28.205  19.567   4.537  0.00  0.00     0.019 C 
ENDBRANCH  17  20
ENDBRANCH  11  14
ENDBRANCH   9  11
ENDBRANCH   5   9
BRANCH   6  24
HETATM   24  O   UNK N   1      20.620  15.890   4.831  0.00  0.00    -0.300 OA
BRANCH  24  25
HETATM   25  C   UNK N   1      20.709  17.052   4.133  0.00  0.00     0.109 A 
HETATM   26  C   UNK N   1      20.419  17.005   2.756  0.00  0.00     0.102 A 
HETATM   27  C   UNK N   1      20.472  18.183   1.990  0.00  0.00     0.039 A 
HETATM   28  C   UNK N   1      20.809  19.397   2.588  0.00  0.00     0.003 A 
HETATM   29  C   UNK N   1      21.089  19.445   3.952  0.00  0.00     0.003 A 
HETATM   30  C   UNK N   1      21.035  18.280   4.718  0.00  0.00     0.040 A 
BRANCH  26  31
HETATM   31  O   UNK N   1      20.075  15.818   2.196  0.00  0.00    -0.353 OA
HETATM   32  C   UNK N   1      20.822  15.193   1.224  0.00  0.00     0.210 C 
ENDBRANCH  26  31
ENDBRANCH  24  25
ENDBRANCH   6  24
BRANCH   8  33
HETATM   33  C   UNK N   1      22.743  13.320   9.336  0.00  0.00     0.150 A 
HETATM   34  N   UNK N   1      24.077  13.059   9.424  0.00  0.00    -0.349 N 
HETATM   35  C   UNK N   1      24.585  12.381  10.487  0.00  0.00     0.091 A 
ATOM     36  HN  UNK N   1      24.702  13.377   8.684  1.00  0.00     0.167 HD
HETATM   37  C   UNK N   1      23.738  11.943  11.504  0.00  0.00     0.034 A 
HETATM   38  C   UNK N   1      22.377  12.220  11.400  0.00  0.00     0.091 A 
HETATM   39  N   UNK N   1      21.904  12.898  10.322  0.00  0.00    -0.349 N 
ATOM     40  HN  UNK N   1      20.906  13.094  10.251  1.00  0.00     0.167 HD
ENDBRANCH   8  33
BRANCH   7  41
HETATM   41  O   UNK N   1      19.792  16.634   7.564  0.00  0.00    -0.331 OA
BRANCH  41  42
HETATM   42  C   UNK N   1      19.311  16.875   8.832  0.00  0.00     0.203 C 
BRANCH  42  43
HETATM   43  C   UNK N   1      19.528  18.328   9.195  0.00  0.00     0.191 C 
BRANCH  43  44
HETATM   44  O   UNK N   1      20.346  18.922   8.237  0.00  0.00    -0.399 OA
HETATM   45  H   UNK N   1      20.773  19.779   8.392  0.00  0.00     0.209 HD
ENDBRANCH  43  44
ENDBRANCH  42  43
ENDBRANCH  41  42
ENDBRANCH   7  41
TORSDOF 12
ENDMDL
MODEL 2
REMARK VINA RESULT:      -7.5      6.592      9.126
REMARK  12 active torsions:
REMARK  status: ('A' for Active; 'I' for Inactive)
REMARK    1  A    between atoms: S_1  and  N_8 
REMARK    2  A    between atoms: S_1  and  C_24 
REMARK    3  A    between atoms: O_4  and  C_28 
REMARK    4  A    between atoms: O_4  and  C_31 
REMARK    5  A    between atoms: O_5  and  C_29 
REMARK    6  A    between atoms: O_5  and  C_33 
REMARK    7  A    between atoms: O_6  and  C_34 
REMARK    8  A    between atoms: O_7  and  C_37 
REMARK    9  A    between atoms: N_8  and  C_27 
REMARK   10  A    between atoms: C_17  and  C_18 
REMARK   11  A    between atoms: C_30  and  C_32 
REMARK   12  A    between atoms: C_33  and  C_37 
ROOT
HETATM    1  N   UNK N   1      33.163  16.721   7.030  0.00  0.00    -0.323 N 
ATOM      2  HN  UNK N   1      34.054  16.594   6.551  1.00  0.00     0.169 HD
HETATM    3  N   UNK N   1      31.904  16.688   9.011  0.00  0.00    -0.318 N 
ATOM      4  HN  UNK N   1      31.864  16.547  10.020  1.00  0.00     0.169 HD
HETATM    5  C   UNK N   1      32.063  17.088   6.321  0.00  0.00     0.155 A 
HETATM    6  C   UNK N   1      30.822  17.240   6.945  0.00  0.00     0.171 A 
HETATM    7  C   UNK N   1      30.766  17.035   8.346  0.00  0.00     0.182 A 
HETATM    8  C   UNK N   1      33.089  16.522   8.372  0.00  0.00     0.154 A 
ENDROOT
BRANCH   5   9
HETATM    9  N   UNK N   1      32.146  17.278   4.924  0.00  0.00    -0.263 N 
HETATM   10  H   UNK N   1      32.167  18.191   4.557  0.00  0.00     0.180 HD
BRANCH   9  11
HETATM   11  S   UNK N   1      32.211  15.909   3.841  0.00  0.00     0.264 S 
HETATM   12  O   UNK N   1      32.935  16.427   2.589  0.00  0.00    -0.200 OA
HETATM   13  O   UNK N   1      33.262  14.981   4.470  0.00  0.00    -0.200 OA
BRANCH  11  14
HETATM   14  C   UNK N   1      30.670  15.098   3.492  0.00  0.00     0.079 A 
HETATM   15  C   UNK N   1      29.703  15.755   2.731  0.00  0.00     0.026 A 
HETATM   16  C   UNK N   1      28.495  15.123   2.442  0.00  0.00     0.009 A 
HETATM   17  C   UNK N   1      28.241  13.822   2.912  0.00  0.00    -0.051 A 
HETATM   18  C   UNK N   1      29.223  13.171   3.680  0.00  0.00     0.009 A 
HETATM   19  C   UNK N   1      30.433  13.807   3.967  0.00  0.00     0.026 A 
BRANCH  17  20
HETATM   20  C   UNK N   1      26.924  13.153   2.578  0.00  0.00    -0.024 C 
HETATM   21  C   UNK N   1      25.953  14.180   2.023  0.00  0.00     0.019 C 
HETATM   22  C   UNK N   1      26.272  12.499   3.789  0.00  0.00     0.019 C 
HETATM   23  C   UNK N   1      27.149  12.076   1.532  0.00  0.00     0.019 C 
ENDBRANCH  17  20
ENDBRANCH  11  14
ENDBRANCH   9  11
ENDBRANCH   5   9
BRANCH   6  24
HETATM   24  O   UNK N   1      29.778  17.538   6.116  0.00  0.00    -0.300 OA
BRANCH  24  25
HETATM   25  C   UNK N   1      28.531  17.068   5.852  0.00  0.00     0.109 A 
HETATM   26  C   UNK N   1      27.635  17.935   5.198  0.00  0.00     0.102 A 
HETATM   27  C   UNK N   1      26.340  17.490   4.879  0.00  0.00     0.039 A 
HETATM   28  C   UNK N   1      25.938  16.196   5.208  0.00  0.00     0.003 A 
HETATM   29  C   UNK N   1      26.827  15.335   5.850  0.00  0.00     0.003 A 
HETATM   30  C   UNK N   1      28.115  15.770   6.165  0.00  0.00     0.040 A 
BRANCH  26  31
HETATM   31  O   UNK N   1      28.050  19.184   4.870  0.00  0.00    -0.353 OA
HETATM   32  C   UNK N   1      27.223  20.137   4.319  0.00  0.00     0.210 C 
ENDBRANCH  26  31
ENDBRANCH  24  25
ENDBRANCH   6  24
BRANCH   8  33
HETATM   33  C   UNK N   1      34.276  16.108   9.136  0.00  0.00     0.150 A 
HETATM   34  N   UNK N   1      34.647  16.789  10.255  0.00  0.00    -0.349 N 
HETATM   35  C   UNK N   1      35.754  16.426  10.957  0.00  0.00     0.091 A 
ATOM     36  HN  UNK N   1      34.089  17.582  10.570  1.00  0.00     0.167 HD
HETATM   37  C   UNK N   1      36.523  15.344  10.533  0.00  0.00     0.034 A 
HETATM   38  C   UNK N   1      36.129  14.656   9.389  0.00  0.00     0.091 A 
HETATM   39  N   UNK N   1      35.019  15.049   8.711  0.00  0.00    -0.349 N 
ATOM     40  HN  UNK N   1      34.738  14.542   7.871  1.00  0.00     0.167 HD
ENDBRANCH   8  33
BRANCH   7  41
HETATM   41  O   UNK N   1      29.620  17.175   9.040  0.00  0.00    -0.331 OA
BRANCH  41  42
HETATM   42  C   UNK N   1      29.113  18.408   9.385  0.00  0.00     0.203 C 
BRANCH  42  43
HETATM   43  C   UNK N   1      27.656  18.494   8.987  0.00  0.00     0.191 C 
BRANCH  43  44
HETATM   44  O   UNK N   1      27.484  19.556   8.102  0.00  0.00    -0.399 OA
HETATM   45  H   UNK N   1      27.251  20.445   8.411  0.00  0.00     0.209 HD
ENDBRANCH  43  44
ENDBRANCH  42  43
ENDBRANCH  41  42
ENDBRANCH   7  41
TORSDOF 12
ENDMDL
MODEL 3
REMARK VINA RESULT:      -7.4      8.665     11.706
REMARK  12 active torsions:
REMARK  status: ('A' for Active; 'I' for Inactive)
REMARK    1  A    between atoms: S_1  and  N_8 
REMARK    2  A    between atoms: S_1  and  C_24 
REMARK    3  A    between atoms: O_4  and  C_28 
REMARK    4  A    between atoms: O_4  and  C_31 
REMARK    5  A    between atoms: O_5  and  C_29 
REMARK    6  A    between atoms: O_5  and  C_33 
REMARK    7  A    between atoms: O_6  and  C_34 
REMARK    8  A    between atoms: O_7  and  C_37 
REMARK    9  A    between atoms: N_8  and  C_27 
REMARK   10  A    between atoms: C_17  and  C_18 
REMARK   11  A    between atoms: C_30  and  C_32 
REMARK   12  A    between atoms: C_33  and  C_37 
ROOT
HETATM    1  N   UNK N   1      35.035  14.675   9.690  0.00  0.00    -0.323 N 
ATOM      2  HN  UNK N   1      35.408  15.486  10.184  1.00  0.00     0.169 HD
HETATM    3  N   UNK N   1      34.307  12.445   9.716  0.00  0.00    -0.318 N 
ATOM      4  HN  UNK N   1      34.124  11.590  10.241  1.00  0.00     0.169 HD
HETATM    5  C   UNK N   1      34.778  14.759   8.358  0.00  0.00     0.155 A 
HETATM    6  C   UNK N   1      34.295  13.656   7.648  0.00  0.00     0.171 A 
HETATM    7  C   UNK N   1      34.050  12.466   8.378  0.00  0.00     0.182 A 
HETATM    8  C   UNK N   1      34.801  13.525  10.372  0.00  0.00     0.154 A 
ENDROOT
BRANCH   5   9
HETATM    9  N   UNK N   1      35.039  15.955   7.654  0.00  0.00    -0.263 N 
HETATM   10  H   UNK N   1      35.840  16.021   7.086  0.00  0.00     0.180 HD
BRANCH   9  11
HETATM   11  S   UNK N   1      33.955  17.319   7.781  0.00  0.00     0.264 S 
HETATM   12  O   UNK N   1      33.710  17.492   9.288  0.00  0.00    -0.200 OA
HETATM   13  O   UNK N   1      34.837  18.533   7.447  0.00  0.00    -0.200 OA
BRANCH  11  14
HETATM   14  C   UNK N   1      32.464  17.241   6.818  0.00  0.00     0.079 A 
HETATM   15  C   UNK N   1      31.247  17.002   7.453  0.00  0.00     0.026 A 
HETATM   16  C   UNK N   1      30.070  16.950   6.708  0.00  0.00     0.009 A 
HETATM   17  C   UNK N   1      30.099  17.139   5.315  0.00  0.00    -0.051 A 
HETATM   18  C   UNK N   1      31.335  17.378   4.686  0.00  0.00     0.009 A 
HETATM   19  C   UNK N   1      32.512  17.429   5.435  0.00  0.00     0.026 A 
BRANCH  17  20
HETATM   20  C   UNK N   1      28.807  17.087   4.528  0.00  0.00    -0.024 C 
HETATM   21  C   UNK N   1      29.095  16.674   3.095  0.00  0.00     0.019 C 
HETATM   22  C   UNK N   1      28.084  18.426   4.493  0.00  0.00     0.019 C 
HETATM   23  C   UNK N   1      27.870  16.068   5.152  0.00  0.00     0.019 C 
ENDBRANCH  17  20
ENDBRANCH  11  14
ENDBRANCH   9  11
ENDBRANCH   5   9
BRANCH   6  24
HETATM   24  O   UNK N   1      34.147  13.840   6.302  0.00  0.00    -0.300 OA
BRANCH  24  25
HETATM   25  C   UNK N   1      33.142  13.847   5.388  0.00  0.00     0.109 A 
HETATM   26  C   UNK N   1      33.495  14.029   4.038  0.00  0.00     0.102 A 
HETATM   27  C   UNK N   1      32.497  14.020   3.047  0.00  0.00     0.039 A 
HETATM   28  C   UNK N   1      31.159  13.834   3.396  0.00  0.00     0.003 A 
HETATM   29  C   UNK N   1      30.810  13.647   4.733  0.00  0.00     0.003 A 
HETATM   30  C   UNK N   1      31.798  13.651   5.719  0.00  0.00     0.040 A 
BRANCH  26  31
HETATM   31  O   UNK N   1      34.802  14.190   3.715  0.00  0.00    -0.353 OA
HETATM   32  C   UNK N   1      35.476  13.367   2.841  0.00  0.00     0.210 C 
ENDBRANCH  26  31
ENDBRANCH  24  25
ENDBRANCH   6  24
BRANCH   8  33
HETATM   33  C   UNK N   1      35.095  13.430  11.810  0.00  0.00     0.150 A 
HETATM   34  N   UNK N   1      35.906  14.345  12.410  0.00  0.00    -0.349 N 
HETATM   35  C   UNK N   1      36.199  14.254  13.734  0.00  0.00     0.091 A 
ATOM     36  HN  UNK N   1      36.298  15.108  11.859  1.00  0.00     0.167 HD
HETATM   37  C   UNK N   1      35.667  13.214  14.495  0.00  0.00     0.034 A 
HETATM   38  C   UNK N   1      34.838  12.288  13.868  0.00  0.00     0.091 A 
HETATM   39  N   UNK N   1      34.569  12.408  12.542  0.00  0.00    -0.349 N 
ATOM     40  HN  UNK N   1      33.964  11.724  12.088  1.00  0.00     0.167 HD
ENDBRANCH   8  33
BRANCH   7  41
HETATM   41  O   UNK N   1      33.568  11.356   7.786  0.00  0.00    -0.331 OA
BRANCH  41  42
HETATM   42  C   UNK N   1      33.898  10.090   8.216  0.00  0.00     0.203 C 
BRANCH  42  43
HETATM   43  C   UNK N   1      32.650   9.359   8.662  0.00  0.00     0.191 C 
BRANCH  43  44
HETATM   44  O   UNK N   1      31.841  10.233   9.384  0.00  0.00    -0.399 OA
HETATM   45  H   UNK N   1      31.393  10.982   8.961  0.00  0.00     0.209 HD
ENDBRANCH  43  44
ENDBRANCH  42  43
ENDBRANCH  41  42
ENDBRANCH   7  41
TORSDOF 12
ENDMDL
MODEL 4
REMARK VINA RESULT:      -7.3      2.685      6.382
REMARK  12 active torsions:
REMARK  status: ('A' for Active; 'I' for Inactive)
REMARK    1  A    between atoms: S_1  and  N_8 
REMARK    2  A    between atoms: S_1  and  C_24 
REMARK    3  A    between atoms: O_4  and  C_28 
REMARK    4  A    between atoms: O_4  and  C_31 
REMARK    5  A    between atoms: O_5  and  C_29 
REMARK    6  A    between atoms: O_5  and  C_33 
REMARK    7  A    between atoms: O_6  and  C_34 
REMARK    8  A    between atoms: O_7  and  C_37 
REMARK    9  A    between atoms: N_8  and  C_27 
REMARK   10  A    between atoms: C_17  and  C_18 
REMARK   11  A    between atoms: C_30  and  C_32 
REMARK   12  A    between atoms: C_33  and  C_37 
ROOT
HETATM    1  N   UNK N   1      20.758  17.979   7.328  0.00  0.00    -0.323 N 
ATOM      2  HN  UNK N   1      20.470  18.952   7.220  1.00  0.00     0.169 HD
HETATM    3  N   UNK N   1      20.552  15.914   8.423  0.00  0.00    -0.318 N 
ATOM      4  HN  UNK N   1      20.094  15.340   9.130  1.00  0.00     0.169 HD
HETATM    5  C   UNK N   1      21.726  17.471   6.521  0.00  0.00     0.155 A 
HETATM    6  C   UNK N   1      22.163  16.151   6.665  0.00  0.00     0.171 A 
HETATM    7  C   UNK N   1      21.530  15.358   7.655  0.00  0.00     0.182 A 
HETATM    8  C   UNK N   1      20.169  17.207   8.277  0.00  0.00     0.154 A 
ENDROOT
BRANCH   5   9
HETATM    9  N   UNK N   1      22.344  18.286   5.547  0.00  0.00    -0.263 N 
HETATM   10  H   UNK N   1      23.211  18.710   5.745  0.00  0.00     0.180 HD
BRANCH   9  11
HETATM   11  S   UNK N   1      21.588  18.550   3.995  0.00  0.00     0.264 S 
HETATM   12  O   UNK N   1      20.574  19.679   4.234  0.00  0.00    -0.200 OA
HETATM   13  O   UNK N   1      22.673  19.251   3.162  0.00  0.00    -0.200 OA
BRANCH  11  14
HETATM   14  C   UNK N   1      20.894  17.123   3.196  0.00  0.00     0.079 A 
HETATM   15  C   UNK N   1      21.281  16.808   1.894  0.00  0.00     0.026 A 
HETATM   16  C   UNK N   1      20.751  15.684   1.262  0.00  0.00     0.009 A 
HETATM   17  C   UNK N   1      19.828  14.860   1.929  0.00  0.00    -0.051 A 
HETATM   18  C   UNK N   1      19.445  15.190   3.242  0.00  0.00     0.009 A 
HETATM   19  C   UNK N   1      19.977  16.316   3.873  0.00  0.00     0.026 A 
BRANCH  17  20
HETATM   20  C   UNK N   1      19.272  13.640   1.226  0.00  0.00    -0.024 C 
HETATM   21  C   UNK N   1      18.235  14.065   0.202  0.00  0.00     0.019 C 
HETATM   22  C   UNK N   1      18.611  12.658   2.183  0.00  0.00     0.019 C 
HETATM   23  C   UNK N   1      20.395  12.908   0.511  0.00  0.00     0.019 C 
ENDBRANCH  17  20
ENDBRANCH  11  14
ENDBRANCH   9  11
ENDBRANCH   5   9
BRANCH   6  24
HETATM   24  O   UNK N   1      23.192  15.778   5.846  0.00  0.00    -0.300 OA
BRANCH  24  25
HETATM   25  C   UNK N   1      23.361  15.111   4.675  0.00  0.00     0.109 A 
HETATM   26  C   UNK N   1      24.257  15.661   3.740  0.00  0.00     0.102 A 
HETATM   27  C   UNK N   1      24.489  14.998   2.521  0.00  0.00     0.039 A 
HETATM   28  C   UNK N   1      23.833  13.801   2.234  0.00  0.00     0.003 A 
HETATM   29  C   UNK N   1      22.951  13.253   3.164  0.00  0.00     0.003 A 
HETATM   30  C   UNK N   1      22.721  13.905   4.376  0.00  0.00     0.040 A 
BRANCH  26  31
HETATM   31  O   UNK N   1      24.899  16.816   4.043  0.00  0.00    -0.353 OA
HETATM   32  C   UNK N   1      25.802  17.427   3.201  0.00  0.00     0.210 C 
ENDBRANCH  26  31
ENDBRANCH  24  25
ENDBRANCH   6  24
BRANCH   8  33
HETATM   33  C   UNK N   1      19.133  17.763   9.161  0.00  0.00     0.150 A 
HETATM   34  N   UNK N   1      19.396  18.854   9.931  0.00  0.00    -0.349 N 
HETATM   35  C   UNK N   1      18.451  19.363  10.765  0.00  0.00     0.091 A 
ATOM     36  HN  UNK N   1      20.314  19.296   9.881  1.00  0.00     0.167 HD
HETATM   37  C   UNK N   1      17.193  18.766  10.840  0.00  0.00     0.034 A 
HETATM   38  C   UNK N   1      16.939  17.652  10.045  0.00  0.00     0.091 A 
HETATM   39  N   UNK N   1      17.908  17.169   9.225  0.00  0.00    -0.349 N 
ATOM     40  HN  UNK N   1      17.715  16.351   8.647  1.00  0.00     0.167 HD
ENDBRANCH   8  33
BRANCH   7  41
HETATM   41  O   UNK N   1      21.870  14.070   7.857  0.00  0.00    -0.331 OA
BRANCH  41  42
HETATM   42  C   UNK N   1      23.027  13.708   8.510  0.00  0.00     0.203 C 
BRANCH  42  43
HETATM   43  C   UNK N   1      22.687  13.057   9.833  0.00  0.00     0.191 C 
BRANCH  43  44
HETATM   44  O   UNK N   1      21.470  13.557  10.290  0.00  0.00    -0.399 OA
HETATM   45  H   UNK N   1      20.624  13.248   9.931  0.00  0.00     0.209 HD
ENDBRANCH  43  44
ENDBRANCH  42  43
ENDBRANCH  41  42
ENDBRANCH   7  41
TORSDOF 12
ENDMDL
MODEL 5
REMARK VINA RESULT:      -7.2      2.132      5.993
REMARK  12 active torsions:
REMARK  status: ('A' for Active; 'I' for Inactive)
REMARK    1  A    between atoms: S_1  and  N_8 
REMARK    2  A    between atoms: S_1  and  C_24 
REMARK    3  A    between atoms: O_4  and  C_28 
REMARK    4  A    between atoms: O_4  and  C_31 
REMARK    5  A    between atoms: O_5  and  C_29 
REMARK    6  A    between atoms: O_5  and  C_33 
REMARK    7  A    between atoms: O_6  and  C_34 
REMARK    8  A    between atoms: O_7  and  C_37 
REMARK    9  A    between atoms: N_8  and  C_27 
REMARK   10  A    between atoms: C_17  and  C_18 
REMARK   11  A    between atoms: C_30  and  C_32 
REMARK   12  A    between atoms: C_33  and  C_37 
ROOT
HETATM    1  N   UNK N   1      22.173  16.214   4.326  0.00  0.00    -0.323 N 
ATOM      2  HN  UNK N   1      22.472  16.161   3.352  1.00  0.00     0.169 HD
HETATM    3  N   UNK N   1      21.282  17.455   6.107  0.00  0.00    -0.318 N 
ATOM      4  HN  UNK N   1      20.901  18.333   6.458  1.00  0.00     0.169 HD
HETATM    5  C   UNK N   1      22.273  15.117   5.121  0.00  0.00     0.155 A 
HETATM    6  C   UNK N   1      21.899  15.167   6.467  0.00  0.00     0.171 A 
HETATM    7  C   UNK N   1      21.378  16.392   6.954  0.00  0.00     0.182 A 
HETATM    8  C   UNK N   1      21.678  17.381   4.812  0.00  0.00     0.154 A 
ENDROOT
BRANCH   5   9
HETATM    9  N   UNK N   1      22.803  13.911   4.611  0.00  0.00    -0.263 N 
HETATM   10  H   UNK N   1      22.339  13.061   4.789  0.00  0.00     0.180 HD
BRANCH   9  11
HETATM   11  S   UNK N   1      24.273  13.913   3.668  0.00  0.00     0.264 S 
HETATM   12  O   UNK N   1      24.763  12.457   3.693  0.00  0.00    -0.200 OA
HETATM   13  O   UNK N   1      23.790  14.075   2.218  0.00  0.00    -0.200 OA
BRANCH  11  14
HETATM   14  C   UNK N   1      25.516  15.094   4.135  0.00  0.00     0.079 A 
HETATM   15  C   UNK N   1      26.354  14.820   5.215  0.00  0.00     0.026 A 
HETATM   16  C   UNK N   1      27.340  15.734   5.583  0.00  0.00     0.009 A 
HETATM   17  C   UNK N   1      27.497  16.937   4.871  0.00  0.00    -0.051 A 
HETATM   18  C   UNK N   1      26.643  17.202   3.785  0.00  0.00     0.009 A 
HETATM   19  C   UNK N   1      25.658  16.284   3.418  0.00  0.00     0.026 A 
BRANCH  17  20
HETATM   20  C   UNK N   1      28.580  17.912   5.284  0.00  0.00    -0.024 C 
HETATM   21  C   UNK N   1      28.227  19.306   4.798  0.00  0.00     0.019 C 
HETATM   22  C   UNK N   1      29.946  17.550   4.717  0.00  0.00     0.019 C 
HETATM   23  C   UNK N   1      28.695  17.935   6.797  0.00  0.00     0.019 C 
ENDBRANCH  17  20
ENDBRANCH  11  14
ENDBRANCH   9  11
ENDBRANCH   5   9
BRANCH   6  24
HETATM   24  O   UNK N   1      22.115  14.024   7.183  0.00  0.00    -0.300 OA
BRANCH  24  25
HETATM   25  C   UNK N   1      22.928  13.597   8.184  0.00  0.00     0.109 A 
HETATM   26  C   UNK N   1      22.318  13.010   9.309  0.00  0.00     0.102 A 
HETATM   27  C   UNK N   1      23.114  12.528  10.364  0.00  0.00     0.039 A 
HETATM   28  C   UNK N   1      24.504  12.630  10.300  0.00  0.00     0.003 A 
HETATM   29  C   UNK N   1      25.108  13.205   9.184  0.00  0.00     0.003 A 
HETATM   30  C   UNK N   1      24.323  13.681   8.133  0.00  0.00     0.040 A 
BRANCH  26  31
HETATM   31  O   UNK N   1      20.967  12.903   9.344  0.00  0.00    -0.353 OA
HETATM   32  C   UNK N   1      20.211  13.197  10.457  0.00  0.00     0.210 C 
ENDBRANCH  26  31
ENDBRANCH  24  25
ENDBRANCH   6  24
BRANCH   8  33
HETATM   33  C   UNK N   1      21.586  18.573   3.955  0.00  0.00     0.150 A 
HETATM   34  N   UNK N   1      22.705  19.278   3.630  0.00  0.00    -0.349 N 
HETATM   35  C   UNK N   1      22.626  20.391   2.854  0.00  0.00     0.091 A 
ATOM     36  HN  UNK N   1      23.613  18.966   3.973  1.00  0.00     0.167 HD
HETATM   37  C   UNK N   1      21.389  20.825   2.381  0.00  0.00     0.034 A 
HETATM   38  C   UNK N   1      20.254  20.093   2.720  0.00  0.00     0.091 A 
HETATM   39  N   UNK N   1      20.370  18.986   3.499  0.00  0.00    -0.349 N 
ATOM     40  HN  UNK N   1      19.534  18.457   3.746  1.00  0.00     0.167 HD
ENDBRANCH   8  33
BRANCH   7  41
HETATM   41  O   UNK N   1      20.975  16.535   8.232  0.00  0.00    -0.331 OA
BRANCH  41  42
HETATM   42  C   UNK N   1      19.658  16.395   8.609  0.00  0.00     0.203 C 
BRANCH  42  43
HETATM   43  C   UNK N   1      19.108  17.732   9.055  0.00  0.00     0.191 C 
BRANCH  43  44
HETATM   44  O   UNK N   1      20.082  18.711   8.875  0.00  0.00    -0.399 OA
HETATM   45  H   UNK N   1      20.879  18.547   8.348  0.00  0.00     0.209 HD
ENDBRANCH  43  44
ENDBRANCH  42  43
ENDBRANCH  41  42
ENDBRANCH   7  41
TORSDOF 12
ENDMDL
MODEL 6
REMARK VINA RESULT:      -7.2      1.933      5.997
REMARK  12 active torsions:
REMARK  status: ('A' for Active; 'I' for Inactive)
REMARK    1  A    between atoms: S_1  and  N_8 
REMARK    2  A    between atoms: S_1  and  C_24 
REMARK    3  A    between atoms: O_4  and  C_28 
REMARK    4  A    between atoms: O_4  and  C_31 
REMARK    5  A    between atoms: O_5  and  C_29 
REMARK    6  A    between atoms: O_5  and  C_33 
REMARK    7  A    between atoms: O_6  and  C_34 
REMARK    8  A    between atoms: O_7  and  C_37 
REMARK    9  A    between atoms: N_8  and  C_27 
REMARK   10  A    between atoms: C_17  and  C_18 
REMARK   11  A    between atoms: C_30  and  C_32 
REMARK   12  A    between atoms: C_33  and  C_37 
ROOT
HETATM    1  N   UNK N   1      21.894  14.630   4.836  0.00  0.00    -0.323 N 
ATOM      2  HN  UNK N   1      22.550  14.372   4.099  1.00  0.00     0.169 HD
HETATM    3  N   UNK N   1      19.816  15.508   5.484  0.00  0.00    -0.318 N 
ATOM      4  HN  UNK N   1      18.909  15.895   5.223  1.00  0.00     0.169 HD
HETATM    5  C   UNK N   1      22.234  14.437   6.137  0.00  0.00     0.155 A 
HETATM    6  C   UNK N   1      21.368  14.807   7.170  0.00  0.00     0.171 A 
HETATM    7  C   UNK N   1      20.112  15.354   6.805  0.00  0.00     0.182 A 
HETATM    8  C   UNK N   1      20.689  15.162   4.505  0.00  0.00     0.154 A 
ENDROOT
BRANCH   5   9
HETATM    9  N   UNK N   1      23.495  13.897   6.473  0.00  0.00    -0.263 N 
HETATM   10  H   UNK N   1      23.600  13.384   7.306  0.00  0.00     0.180 HD
BRANCH   9  11
HETATM   11  S   UNK N   1      24.872  14.131   5.423  0.00  0.00     0.264 S 
HETATM   12  O   UNK N   1      25.964  13.210   5.990  0.00  0.00    -0.200 OA
HETATM   13  O   UNK N   1      24.478  13.416   4.121  0.00  0.00    -0.200 OA
BRANCH  11  14
HETATM   14  C   UNK N   1      25.407  15.807   5.176  0.00  0.00     0.079 A 
HETATM   15  C   UNK N   1      26.495  16.296   5.900  0.00  0.00     0.026 A 
HETATM   16  C   UNK N   1      26.930  17.606   5.705  0.00  0.00     0.009 A 
HETATM   17  C   UNK N   1      26.280  18.442   4.781  0.00  0.00    -0.051 A 
HETATM   18  C   UNK N   1      25.182  17.938   4.059  0.00  0.00     0.009 A 
HETATM   19  C   UNK N   1      24.749  16.625   4.256  0.00  0.00     0.026 A 
BRANCH  17  20
HETATM   20  C   UNK N   1      26.775  19.859   4.580  0.00  0.00    -0.024 C 
HETATM   21  C   UNK N   1      28.292  19.870   4.528  0.00  0.00     0.019 C 
HETATM   22  C   UNK N   1      26.339  20.799   5.695  0.00  0.00     0.019 C 
HETATM   23  C   UNK N   1      26.235  20.408   3.271  0.00  0.00     0.019 C 
ENDBRANCH  17  20
ENDBRANCH  11  14
ENDBRANCH   9  11
ENDBRANCH   5   9
BRANCH   6  24
HETATM   24  O   UNK N   1      21.851  14.633   8.436  0.00  0.00    -0.300 OA
BRANCH  24  25
HETATM   25  C   UNK N   1      21.694  13.763   9.467  0.00  0.00     0.109 A 
HETATM   26  C   UNK N   1      22.852  13.152   9.982  0.00  0.00     0.102 A 
HETATM   27  C   UNK N   1      22.750  12.261  11.066  0.00  0.00     0.039 A 
HETATM   28  C   UNK N   1      21.506  11.980  11.631  0.00  0.00     0.003 A 
HETATM   29  C   UNK N   1      20.360  12.590  11.125  0.00  0.00     0.003 A 
HETATM   30  C   UNK N   1      20.457  13.478  10.053  0.00  0.00     0.040 A 
BRANCH  26  31
HETATM   31  O   UNK N   1      24.055  13.451   9.432  0.00  0.00    -0.353 OA
HETATM   32  C   UNK N   1      25.258  13.061   9.977  0.00  0.00     0.210 C 
ENDBRANCH  26  31
ENDBRANCH  24  25
ENDBRANCH   6  24
BRANCH   8  33
HETATM   33  C   UNK N   1      20.328  15.386   3.096  0.00  0.00     0.150 A 
HETATM   34  N   UNK N   1      20.593  16.581   2.498  0.00  0.00    -0.349 N 
HETATM   35  C   UNK N   1      20.245  16.803   1.203  0.00  0.00     0.091 A 
ATOM     36  HN  UNK N   1      21.057  17.317   3.029  1.00  0.00     0.167 HD
HETATM   37  C   UNK N   1      19.611  15.802   0.470  0.00  0.00     0.034 A 
HETATM   38  C   UNK N   1      19.349  14.586   1.095  0.00  0.00     0.091 A 
HETATM   39  N   UNK N   1      19.708  14.399   2.391  0.00  0.00    -0.349 N 
ATOM     40  HN  UNK N   1      19.511  13.506   2.843  1.00  0.00     0.167 HD
ENDBRANCH   8  33
BRANCH   7  41
HETATM   41  O   UNK N   1      19.204  15.726   7.727  0.00  0.00    -0.331 OA
BRANCH  41  42
HETATM   42  C   UNK N   1      19.300  16.913   8.419  0.00  0.00     0.203 C 
BRANCH  42  43
HETATM   43  C   UNK N   1      20.311  17.816   7.748  0.00  0.00     0.191 C 
BRANCH  43  44
HETATM   44  O   UNK N   1      20.349  19.038   8.417  0.00  0.00    -0.399 OA
HETATM   45  H   UNK N   1      19.625  19.327   8.993  0.00  0.00     0.209 HD
ENDBRANCH  43  44
ENDBRANCH  42  43
ENDBRANCH  41  42
ENDBRANCH   7  41
TORSDOF 12
ENDMDL
MODEL 7
REMARK VINA RESULT:      -7.1      3.848      6.550
REMARK  12 active torsions:
REMARK  status: ('A' for Active; 'I' for Inactive)
REMARK    1  A    between atoms: S_1  and  N_8 
REMARK    2  A    between atoms: S_1  and  C_24 
REMARK    3  A    between atoms: O_4  and  C_28 
REMARK    4  A    between atoms: O_4  and  C_31 
REMARK    5  A    between atoms: O_5  and  C_29 
REMARK    6  A    between atoms: O_5  and  C_33 
REMARK    7  A    between atoms: O_6  and  C_34 
REMARK    8  A    between atoms: O_7  and  C_37 
REMARK    9  A    between atoms: N_8  and  C_27 
REMARK   10  A    between atoms: C_17  and  C_18 
REMARK   11  A    between atoms: C_30  and  C_32 
REMARK   12  A    between atoms: C_33  and  C_37 
ROOT
HETATM    1  N   UNK N   1      22.509  16.190   4.352  0.00  0.00    -0.323 N 
ATOM      2  HN  UNK N   1      22.565  15.212   4.637  1.00  0.00     0.169 HD
HETATM    3  N   UNK N   1      21.499  17.871   3.063  0.00  0.00    -0.318 N 
ATOM      4  HN  UNK N   1      20.784  18.147   2.390  1.00  0.00     0.169 HD
HETATM    5  C   UNK N   1      23.371  17.096   4.883  0.00  0.00     0.155 A 
HETATM    6  C   UNK N   1      23.339  18.437   4.490  0.00  0.00     0.171 A 
HETATM    7  C   UNK N   1      22.350  18.817   3.548  0.00  0.00     0.182 A 
HETATM    8  C   UNK N   1      21.573  16.571   3.445  0.00  0.00     0.154 A 
ENDROOT
BRANCH   5   9
HETATM    9  N   UNK N   1      24.352  16.688   5.814  0.00  0.00    -0.263 N 
HETATM   10  H   UNK N   1      24.367  17.088   6.713  0.00  0.00     0.180 HD
BRANCH   9  11
HETATM   11  S   UNK N   1      25.538  15.478   5.386  0.00  0.00     0.264 S 
HETATM   12  O   UNK N   1      25.002  14.168   5.983  0.00  0.00    -0.200 OA
HETATM   13  O   UNK N   1      25.330  15.265   3.878  0.00  0.00    -0.200 OA
BRANCH  11  14
HETATM   14  C   UNK N   1      27.224  15.829   5.826  0.00  0.00     0.079 A 
HETATM   15  C   UNK N   1      28.258  15.173   5.159  0.00  0.00     0.026 A 
HETATM   16  C   UNK N   1      29.584  15.449   5.488  0.00  0.00     0.009 A 
HETATM   17  C   UNK N   1      29.890  16.388   6.490  0.00  0.00    -0.051 A 
HETATM   18  C   UNK N   1      28.836  17.041   7.156  0.00  0.00     0.009 A 
HETATM   19  C   UNK N   1      27.509  16.762   6.823  0.00  0.00     0.026 A 
BRANCH  17  20
HETATM   20  C   UNK N   1      31.338  16.677   6.824  0.00  0.00    -0.024 C 
HETATM   21  C   UNK N   1      31.412  17.637   7.999  0.00  0.00     0.019 C 
HETATM   22  C   UNK N   1      32.098  17.301   5.662  0.00  0.00     0.019 C 
HETATM   23  C   UNK N   1      32.042  15.386   7.202  0.00  0.00     0.019 C 
ENDBRANCH  17  20
ENDBRANCH  11  14
ENDBRANCH   9  11
ENDBRANCH   5   9
BRANCH   6  24
HETATM   24  O   UNK N   1      24.302  19.236   5.038  0.00  0.00    -0.300 OA
BRANCH  24  25
HETATM   25  C   UNK N   1      25.638  19.444   4.905  0.00  0.00     0.109 A 
HETATM   26  C   UNK N   1      26.258  20.296   5.838  0.00  0.00     0.102 A 
HETATM   27  C   UNK N   1      27.643  20.527   5.761  0.00  0.00     0.039 A 
HETATM   28  C   UNK N   1      28.405  19.917   4.765  0.00  0.00     0.003 A 
HETATM   29  C   UNK N   1      27.792  19.068   3.845  0.00  0.00     0.003 A 
HETATM   30  C   UNK N   1      26.419  18.832   3.919  0.00  0.00     0.040 A 
BRANCH  26  31
HETATM   31  O   UNK N   1      25.504  20.866   6.811  0.00  0.00    -0.353 OA
HETATM   32  C   UNK N   1      26.030  21.629   7.829  0.00  0.00     0.210 C 
ENDBRANCH  26  31
ENDBRANCH  24  25
ENDBRANCH   6  24
BRANCH   8  33
HETATM   33  C   UNK N   1      20.651  15.586   2.857  0.00  0.00     0.150 A 
HETATM   34  N   UNK N   1      20.108  14.605   3.628  0.00  0.00    -0.349 N 
HETATM   35  C   UNK N   1      19.270  13.679   3.089  0.00  0.00     0.091 A 
ATOM     36  HN  UNK N   1      20.332  14.563   4.622  1.00  0.00     0.167 HD
HETATM   37  C   UNK N   1      18.958  13.729   1.731  0.00  0.00     0.034 A 
HETATM   38  C   UNK N   1      19.520  14.740   0.957  0.00  0.00     0.091 A 
HETATM   39  N   UNK N   1      20.355  15.646   1.528  0.00  0.00    -0.349 N 
ATOM     40  HN  UNK N   1      20.766  16.383   0.954  1.00  0.00     0.167 HD
ENDBRANCH   8  33
BRANCH   7  41
HETATM   41  O   UNK N   1      22.228  20.089   3.120  0.00  0.00    -0.331 OA
BRANCH  41  42
HETATM   42  C   UNK N   1      21.024  20.615   2.709  0.00  0.00     0.203 C 
BRANCH  42  43
HETATM   43  C   UNK N   1      21.006  20.735   1.201  0.00  0.00     0.191 C 
BRANCH  43  44
HETATM   44  O   UNK N   1      20.594  19.524   0.650  0.00  0.00    -0.399 OA
HETATM   45  H   UNK N   1      19.715  19.155   0.827  0.00  0.00     0.209 HD
ENDBRANCH  43  44
ENDBRANCH  42  43
ENDBRANCH  41  42
ENDBRANCH   7  41
TORSDOF 12
ENDMDL
MODEL 8
REMARK VINA RESULT:      -7.0      2.292      5.979
REMARK  12 active torsions:
REMARK  status: ('A' for Active; 'I' for Inactive)
REMARK    1  A    between atoms: S_1  and  N_8 
REMARK    2  A    between atoms: S_1  and  C_24 
REMARK    3  A    between atoms: O_4  and  C_28 
REMARK    4  A    between atoms: O_4  and  C_31 
REMARK    5  A    between atoms: O_5  and  C_29 
REMARK    6  A    between atoms: O_5  and  C_33 
REMARK    7  A    between atoms: O_6  and  C_34 
REMARK    8  A    between atoms: O_7  and  C_37 
REMARK    9  A    between atoms: N_8  and  C_27 
REMARK   10  A    between atoms: C_17  and  C_18 
REMARK   11  A    between atoms: C_30  and  C_32 
REMARK   12  A    between atoms: C_33  and  C_37 
ROOT
HETATM    1  N   UNK N   1      21.699  15.690   4.473  0.00  0.00    -0.323 N 
ATOM      2  HN  UNK N   1      22.304  15.737   3.653  1.00  0.00     0.169 HD
HETATM    3  N   UNK N   1      20.132  16.703   5.896  0.00  0.00    -0.318 N 
ATOM      4  HN  UNK N   1      19.554  17.511   6.128  1.00  0.00     0.169 HD
HETATM    5  C   UNK N   1      21.665  14.556   5.220  0.00  0.00     0.155 A 
HETATM    6  C   UNK N   1      20.868  14.472   6.365  0.00  0.00     0.171 A 
HETATM    7  C   UNK N   1      20.073  15.599   6.691  0.00  0.00     0.182 A 
HETATM    8  C   UNK N   1      20.936  16.763   4.804  0.00  0.00     0.154 A 
ENDROOT
BRANCH   5   9
HETATM    9  N   UNK N   1      22.474  13.450   4.876  0.00  0.00    -0.263 N 
HETATM   10  H   UNK N   1      22.165  12.538   5.080  0.00  0.00     0.180 HD
BRANCH   9  11
HETATM   11  S   UNK N   1      24.017  13.685   4.091  0.00  0.00     0.264 S 
HETATM   12  O   UNK N   1      24.533  12.268   3.797  0.00  0.00    -0.200 OA
HETATM   13  O   UNK N   1      23.652  14.202   2.691  0.00  0.00    -0.200 OA
BRANCH  11  14
HETATM   14  C   UNK N   1      25.192  14.712   4.941  0.00  0.00     0.079 A 
HETATM   15  C   UNK N   1      25.957  15.626   4.216  0.00  0.00     0.026 A 
HETATM   16  C   UNK N   1      26.873  16.445   4.874  0.00  0.00     0.009 A 
HETATM   17  C   UNK N   1      27.033  16.359   6.268  0.00  0.00    -0.051 A 
HETATM   18  C   UNK N   1      26.256  15.431   6.987  0.00  0.00     0.009 A 
HETATM   19  C   UNK N   1      25.339  14.613   6.325  0.00  0.00     0.026 A 
BRANCH  17  20
HETATM   20  C   UNK N   1      28.029  17.264   6.962  0.00  0.00    -0.024 C 
HETATM   21  C   UNK N   1      27.828  18.697   6.501  0.00  0.00     0.019 C 
HETATM   22  C   UNK N   1      29.473  16.878   6.678  0.00  0.00     0.019 C 
HETATM   23  C   UNK N   1      27.817  17.198   8.465  0.00  0.00     0.019 C 
ENDBRANCH  17  20
ENDBRANCH  11  14
ENDBRANCH   9  11
ENDBRANCH   5   9
BRANCH   6  24
HETATM   24  O   UNK N   1      20.975  13.309   7.074  0.00  0.00    -0.300 OA
BRANCH  24  25
HETATM   25  C   UNK N   1      21.529  12.882   8.238  0.00  0.00     0.109 A 
HETATM   26  C   UNK N   1      22.551  11.917   8.155  0.00  0.00     0.102 A 
HETATM   27  C   UNK N   1      23.177  11.459   9.328  0.00  0.00     0.039 A 
HETATM   28  C   UNK N   1      22.790  11.955  10.573  0.00  0.00     0.003 A 
HETATM   29  C   UNK N   1      21.783  12.916  10.655  0.00  0.00     0.003 A 
HETATM   30  C   UNK N   1      21.162  13.377   9.493  0.00  0.00     0.040 A 
BRANCH  26  31
HETATM   31  O   UNK N   1      22.926  11.460   6.935  0.00  0.00    -0.353 OA
HETATM   32  C   UNK N   1      23.945  10.553   6.744  0.00  0.00     0.210 C 
ENDBRANCH  26  31
ENDBRANCH  24  25
ENDBRANCH   6  24
BRANCH   8  33
HETATM   33  C   UNK N   1      20.986  17.997   4.005  0.00  0.00     0.150 A 
HETATM   34  N   UNK N   1      19.889  18.418   3.317  0.00  0.00    -0.349 N 
HETATM   35  C   UNK N   1      19.932  19.547   2.560  0.00  0.00     0.091 A 
ATOM     36  HN  UNK N   1      19.025  17.880   3.370  1.00  0.00     0.167 HD
HETATM   37  C   UNK N   1      21.110  20.289   2.483  0.00  0.00     0.034 A 
HETATM   38  C   UNK N   1      22.222  19.847   3.193  0.00  0.00     0.091 A 
HETATM   39  N   UNK N   1      22.143  18.713   3.937  0.00  0.00    -0.349 N 
ATOM     40  HN  UNK N   1      22.963  18.393   4.453  1.00  0.00     0.167 HD
ENDBRANCH   8  33
BRANCH   7  41
HETATM   41  O   UNK N   1      19.260  15.608   7.766  0.00  0.00    -0.331 OA
BRANCH  41  42
HETATM   42  C   UNK N   1      19.312  16.600   8.720  0.00  0.00     0.203 C 
BRANCH  42  43
HETATM   43  C   UNK N   1      17.909  17.031   9.088  0.00  0.00     0.191 C 
BRANCH  43  44
HETATM   44  O   UNK N   1      17.037  16.679   8.060  0.00  0.00    -0.399 OA
HETATM   45  H   UNK N   1      16.229  16.169   8.229  0.00  0.00     0.209 HD
ENDBRANCH  43  44
ENDBRANCH  42  43
ENDBRANCH  41  42
ENDBRANCH   7  41
TORSDOF 12
ENDMDL
MODEL 9
REMARK VINA RESULT:      -7.0      2.745      3.986
REMARK  12 active torsions:
REMARK  status: ('A' for Active; 'I' for Inactive)
REMARK    1  A    between atoms: S_1  and  N_8 
REMARK    2  A    between atoms: S_1  and  C_24 
REMARK    3  A    between atoms: O_4  and  C_28 
REMARK    4  A    between atoms: O_4  and  C_31 
REMARK    5  A    between atoms: O_5  and  C_29 
REMARK    6  A    between atoms: O_5  and  C_33 
REMARK    7  A    between atoms: O_6  and  C_34 
REMARK    8  A    between atoms: O_7  and  C_37 
REMARK    9  A    between atoms: N_8  and  C_27 
REMARK   10  A    between atoms: C_17  and  C_18 
REMARK   11  A    between atoms: C_30  and  C_32 
REMARK   12  A    between atoms: C_33  and  C_37 
ROOT
HETATM    1  N   UNK N   1      23.709  15.030   7.177  0.00  0.00    -0.323 N 
ATOM      2  HN  UNK N   1      24.578  15.057   7.711  1.00  0.00     0.169 HD
HETATM    3  N   UNK N   1      21.541  14.183   6.875  0.00  0.00    -0.318 N 
ATOM      4  HN  UNK N   1      20.783  13.582   7.198  1.00  0.00     0.169 HD
HETATM    5  C   UNK N   1      23.577  15.804   6.068  0.00  0.00     0.155 A 
HETATM    6  C   UNK N   1      22.410  15.766   5.300  0.00  0.00     0.171 A 
HETATM    7  C   UNK N   1      21.361  14.923   5.745  0.00  0.00     0.182 A 
HETATM    8  C   UNK N   1      22.697  14.222   7.585  0.00  0.00     0.154 A 
ENDROOT
BRANCH   5   9
HETATM    9  N   UNK N   1      24.640  16.630   5.643  0.00  0.00    -0.263 N 
HETATM   10  H   UNK N   1      24.592  17.602   5.791  0.00  0.00     0.180 HD
BRANCH   9  11
HETATM   11  S   UNK N   1      26.042  15.944   4.857  0.00  0.00     0.264 S 
HETATM   12  O   UNK N   1      25.703  14.458   4.666  0.00  0.00    -0.200 OA
HETATM   13  O   UNK N   1      25.971  16.487   3.421  0.00  0.00    -0.200 OA
BRANCH  11  14
HETATM   14  C   UNK N   1      27.610  16.225   5.643  0.00  0.00     0.079 A 
HETATM   15  C   UNK N   1      28.739  15.544   5.189  0.00  0.00     0.026 A 
HETATM   16  C   UNK N   1      29.977  15.765   5.791  0.00  0.00     0.009 A 
HETATM   17  C   UNK N   1      30.098  16.674   6.857  0.00  0.00    -0.051 A 
HETATM   18  C   UNK N   1      28.951  17.353   7.307  0.00  0.00     0.009 A 
HETATM   19  C   UNK N   1      27.713  17.130   6.701  0.00  0.00     0.026 A 
BRANCH  17  20
HETATM   20  C   UNK N   1      31.454  16.905   7.490  0.00  0.00    -0.024 C 
HETATM   21  C   UNK N   1      31.930  15.629   8.162  0.00  0.00     0.019 C 
HETATM   22  C   UNK N   1      31.435  18.007   8.539  0.00  0.00     0.019 C 
HETATM   23  C   UNK N   1      32.457  17.298   6.419  0.00  0.00     0.019 C 
ENDBRANCH  17  20
ENDBRANCH  11  14
ENDBRANCH   9  11
ENDBRANCH   5   9
BRANCH   6  24
HETATM   24  O   UNK N   1      22.424  16.531   4.168  0.00  0.00    -0.300 OA
BRANCH  24  25
HETATM   25  C   UNK N   1      21.758  17.602   3.663  0.00  0.00     0.109 A 
HETATM   26  C   UNK N   1      22.434  18.836   3.643  0.00  0.00     0.102 A 
HETATM   27  C   UNK N   1      21.800  19.972   3.108  0.00  0.00     0.039 A 
HETATM   28  C   UNK N   1      20.505  19.882   2.599  0.00  0.00     0.003 A 
HETATM   29  C   UNK N   1      19.837  18.658   2.613  0.00  0.00     0.003 A 
HETATM   30  C   UNK N   1      20.464  17.527   3.138  0.00  0.00     0.040 A 
BRANCH  26  31
HETATM   31  O   UNK N   1      23.700  18.901   4.126  0.00  0.00    -0.353 OA
HETATM   32  C   UNK N   1      24.644  19.789   3.662  0.00  0.00     0.210 C 
ENDBRANCH  26  31
ENDBRANCH  24  25
ENDBRANCH   6  24
BRANCH   8  33
HETATM   33  C   UNK N   1      22.847  13.372   8.777  0.00  0.00     0.150 A 
HETATM   34  N   UNK N   1      21.750  12.882   9.417  0.00  0.00    -0.349 N 
HETATM   35  C   UNK N   1      21.879  12.112  10.530  0.00  0.00     0.091 A 
ATOM     36  HN  UNK N   1      20.820  13.095   9.056  1.00  0.00     0.167 HD
HETATM   37  C   UNK N   1      23.146  11.815  11.029  0.00  0.00     0.034 A 
HETATM   38  C   UNK N   1      24.258  12.322  10.362  0.00  0.00     0.091 A 
HETATM   39  N   UNK N   1      24.091  13.091   9.254  0.00  0.00    -0.349 N 
ATOM     40  HN  UNK N   1      24.910  13.461   8.772  1.00  0.00     0.167 HD
ENDBRANCH   8  33
BRANCH   7  41
HETATM   41  O   UNK N   1      20.192  14.831   5.082  0.00  0.00    -0.331 OA
BRANCH  41  42
HETATM   42  C   UNK N   1      20.005  13.953   4.038  0.00  0.00     0.203 C 
BRANCH  42  43
HETATM   43  C   UNK N   1      19.065  12.846   4.463  0.00  0.00     0.191 C 
BRANCH  43  44
HETATM   44  O   UNK N   1      17.781  13.366   4.609  0.00  0.00    -0.399 OA
HETATM   45  H   UNK N   1      17.574  14.032   5.283  0.00  0.00     0.209 HD
ENDBRANCH  43  44
ENDBRANCH  42  43
ENDBRANCH  41  42
ENDBRANCH   7  41
TORSDOF 12
ENDMDL
