MODEL 1
REMARK VINA RESULT:      -6.6      0.000      0.000
REMARK  6 active torsions:
REMARK  status: ('A' for Active; 'I' for Inactive)
REMARK    1  A    between atoms: N_3  and  C_13 
REMARK    2  A    between atoms: N_4  and  C_12 
REMARK    3  A    between atoms: C_5  and  C_8 
REMARK    4  A    between atoms: C_6  and  C_10 
REMARK    5  A    between atoms: C_6  and  C_11 
REMARK    6  A    between atoms: C_8  and  C_12 
ROOT
HETATM    1  O   UNK N   1      27.153  16.416   2.809  0.00  0.00    -0.272 OA
HETATM    2  N   UNK N   1      28.507  15.057   3.984  0.00  0.00    -0.351 N 
HETATM    3  C   UNK N   1      28.586  16.173   6.039  0.00  0.00     0.032 C 
HETATM    4  C   UNK N   1      27.416  16.793   5.181  0.00  0.00     0.100 C 
HETATM    5  C   UNK N   1      28.928  14.845   5.344  0.00  0.00     0.132 C 
HETATM    6  C   UNK N   1      27.699  16.123   3.865  0.00  0.00     0.238 C 
ENDROOT
BRANCH   4   7
HETATM    7  C   UNK N   1      25.990  16.440   5.581  0.00  0.00    -0.035 A 
HETATM    8  C   UNK N   1      24.876  16.997   4.937  0.00  0.00     0.009 A 
HETATM    9  C   UNK N   1      23.591  16.519   5.227  0.00  0.00     0.001 A 
HETATM   10  C   UNK N   1      23.411  15.486   6.154  0.00  0.00     0.000 A 
HETATM   11  C   UNK N   1      24.512  14.935   6.807  0.00  0.00     0.001 A 
HETATM   12  C   UNK N   1      25.790  15.401   6.515  0.00  0.00     0.009 A 
ENDBRANCH   4   7
BRANCH   4  13
HETATM   13  C   UNK N   1      27.440  18.309   5.313  0.00  0.00    -0.035 A 
HETATM   14  C   UNK N   1      27.348  18.855   6.611  0.00  0.00     0.009 A 
HETATM   15  C   UNK N   1      27.307  20.231   6.807  0.00  0.00     0.001 A 
HETATM   16  C   UNK N   1      27.346  21.084   5.707  0.00  0.00     0.000 A 
HETATM   17  C   UNK N   1      27.438  20.557   4.412  0.00  0.00     0.001 A 
HETATM   18  C   UNK N   1      27.489  19.171   4.211  0.00  0.00     0.009 A 
ENDBRANCH   4  13
BRANCH   3  19
HETATM   19  C   UNK N   1      29.849  17.049   5.867  0.00  0.00     0.038 C 
BRANCH  19  20
HETATM   20  C   UNK N   1      30.515  17.468   7.165  0.00  0.00     0.273 C 
BRANCH  20  21
HETATM   21  N   UNK N   1      31.910  17.042   7.134  0.00  0.00     0.092 N 
HETATM   22  C   UNK N   1      32.374  17.161   5.748  0.00  0.00     0.298 C 
HETATM   23  C   UNK N   1      33.889  16.952   5.689  0.00  0.00     0.198 C 
HETATM   24  O   UNK N   1      34.524  17.937   6.464  0.00  0.00    -0.388 OA
HETATM   25  C   UNK N   1      34.180  17.673   7.802  0.00  0.00     0.198 C 
HETATM   26  C   UNK N   1      32.683  17.936   8.000  0.00  0.00     0.298 C 
ENDBRANCH  20  21
ENDBRANCH  19  20
ENDBRANCH   3  19
BRANCH   2  27
HETATM   27  C   UNK N   1      28.819  14.164   2.882  0.00  0.00     0.121 C 
HETATM   28  C   UNK N   1      30.316  13.921   2.722  0.00  0.00     0.026 C 
ENDBRANCH   2  27
TORSDOF 6
ENDMDL
MODEL 2
REMARK VINA RESULT:      -6.6      2.150      4.490
REMARK  6 active torsions:
REMARK  status: ('A' for Active; 'I' for Inactive)
REMARK    1  A    between atoms: N_3  and  C_13 
REMARK    2  A    between atoms: N_4  and  C_12 
REMARK    3  A    between atoms: C_5  and  C_8 
REMARK    4  A    between atoms: C_6  and  C_10 
REMARK    5  A    between atoms: C_6  and  C_11 
REMARK    6  A    between atoms: C_8  and  C_12 
ROOT
HETATM    1  O   UNK N   1      26.730  16.219   6.995  0.00  0.00    -0.272 OA
HETATM    2  N   UNK N   1      28.561  17.349   7.651  0.00  0.00    -0.351 N 
HETATM    3  C   UNK N   1      29.843  17.295   5.695  0.00  0.00     0.032 C 
HETATM    4  C   UNK N   1      28.375  16.842   5.339  0.00  0.00     0.100 C 
HETATM    5  C   UNK N   1      29.731  17.960   7.077  0.00  0.00     0.132 C 
HETATM    6  C   UNK N   1      27.815  16.718   6.729  0.00  0.00     0.238 C 
ENDROOT
BRANCH   4   7
HETATM    7  C   UNK N   1      27.501  17.830   4.577  0.00  0.00    -0.035 A 
HETATM    8  C   UNK N   1      26.211  17.500   4.139  0.00  0.00     0.009 A 
HETATM    9  C   UNK N   1      25.386  18.491   3.590  0.00  0.00     0.001 A 
HETATM   10  C   UNK N   1      25.840  19.810   3.479  0.00  0.00     0.000 A 
HETATM   11  C   UNK N   1      27.125  20.144   3.902  0.00  0.00     0.001 A 
HETATM   12  C   UNK N   1      27.944  19.165   4.456  0.00  0.00     0.009 A 
ENDBRANCH   4   7
BRANCH   4  13
HETATM   13  C   UNK N   1      28.428  15.643   4.402  0.00  0.00    -0.035 A 
HETATM   14  C   UNK N   1      28.872  15.864   3.082  0.00  0.00     0.009 A 
HETATM   15  C   UNK N   1      28.895  14.830   2.153  0.00  0.00     0.001 A 
HETATM   16  C   UNK N   1      28.462  13.560   2.526  0.00  0.00     0.000 A 
HETATM   17  C   UNK N   1      28.018  13.325   3.834  0.00  0.00     0.001 A 
HETATM   18  C   UNK N   1      28.003  14.364   4.775  0.00  0.00     0.009 A 
ENDBRANCH   4  13
BRANCH   3  19
HETATM   19  C   UNK N   1      30.711  16.036   5.929  0.00  0.00     0.038 C 
BRANCH  19  20
HETATM   20  C   UNK N   1      32.090  16.086   5.297  0.00  0.00     0.273 C 
BRANCH  20  21
HETATM   21  N   UNK N   1      33.088  16.158   6.359  0.00  0.00     0.092 N 
HETATM   22  C   UNK N   1      33.463  17.567   6.514  0.00  0.00     0.298 C 
HETATM   23  C   UNK N   1      34.331  17.738   7.763  0.00  0.00     0.198 C 
HETATM   24  O   UNK N   1      33.599  17.339   8.895  0.00  0.00    -0.388 OA
HETATM   25  C   UNK N   1      33.413  15.950   8.777  0.00  0.00     0.198 C 
HETATM   26  C   UNK N   1      32.479  15.662   7.596  0.00  0.00     0.298 C 
ENDBRANCH  20  21
ENDBRANCH  19  20
ENDBRANCH   3  19
BRANCH   2  27
HETATM   27  C   UNK N   1      28.162  17.491   9.040  0.00  0.00     0.121 C 
HETATM   28  C   UNK N   1      29.221  18.178   9.894  0.00  0.00     0.026 C 
ENDBRANCH   2  27
TORSDOF 6
ENDMDL
MODEL 3
REMARK VINA RESULT:      -6.6     12.773     15.375
REMARK  6 active torsions:
REMARK  status: ('A' for Active; 'I' for Inactive)
REMARK    1  A    between atoms: N_3  and  C_13 
REMARK    2  A    between atoms: N_4  and  C_12 
REMARK    3  A    between atoms: C_5  and  C_8 
REMARK    4  A    between atoms: C_6  and  C_10 
REMARK    5  A    between atoms: C_6  and  C_11 
REMARK    6  A    between atoms: C_8  and  C_12 
ROOT
HETATM    1  O   UNK N   1      28.894  24.302  -6.443  0.00  0.00    -0.272 OA
HETATM    2  N   UNK N   1      27.537  24.828  -4.727  0.00  0.00    -0.351 N 
HETATM    3  C   UNK N   1      25.543  25.286  -5.860  0.00  0.00     0.032 C 
HETATM    4  C   UNK N   1      26.530  24.573  -6.862  0.00  0.00     0.100 C 
HETATM    5  C   UNK N   1      26.136  25.030  -4.465  0.00  0.00     0.132 C 
HETATM    6  C   UNK N   1      27.781  24.596  -6.027  0.00  0.00     0.238 C 
ENDROOT
BRANCH   4   7
HETATM    7  C   UNK N   1      26.241  23.121  -7.219  0.00  0.00    -0.035 A 
HETATM    8  C   UNK N   1      25.127  22.437  -6.712  0.00  0.00     0.009 A 
HETATM    9  C   UNK N   1      24.812  21.160  -7.196  0.00  0.00     0.001 A 
HETATM   10  C   UNK N   1      25.601  20.563  -8.186  0.00  0.00     0.000 A 
HETATM   11  C   UNK N   1      26.717  21.233  -8.687  0.00  0.00     0.001 A 
HETATM   12  C   UNK N   1      27.027  22.504  -8.215  0.00  0.00     0.009 A 
ENDBRANCH   4   7
BRANCH   4  13
HETATM   13  C   UNK N   1      26.474  25.273  -8.213  0.00  0.00    -0.035 A 
HETATM   14  C   UNK N   1      25.304  25.110  -8.985  0.00  0.00     0.009 A 
HETATM   15  C   UNK N   1      25.201  25.672 -10.253  0.00  0.00     0.001 A 
HETATM   16  C   UNK N   1      26.270  26.396 -10.774  0.00  0.00     0.000 A 
HETATM   17  C   UNK N   1      27.438  26.567 -10.019  0.00  0.00     0.001 A 
HETATM   18  C   UNK N   1      27.542  26.010  -8.736  0.00  0.00     0.009 A 
ENDBRANCH   4  13
BRANCH   3  19
HETATM   19  C   UNK N   1      25.646  26.816  -6.061  0.00  0.00     0.038 C 
BRANCH  19  20
HETATM   20  C   UNK N   1      25.188  27.647  -4.877  0.00  0.00     0.273 C 
BRANCH  20  21
HETATM   21  N   UNK N   1      26.214  28.639  -4.576  0.00  0.00     0.092 N 
HETATM   22  C   UNK N   1      26.700  28.369  -3.218  0.00  0.00     0.298 C 
HETATM   23  C   UNK N   1      27.936  29.225  -2.930  0.00  0.00     0.198 C 
HETATM   24  O   UNK N   1      28.951  28.898  -3.846  0.00  0.00    -0.388 OA
HETATM   25  C   UNK N   1      28.503  29.331  -5.106  0.00  0.00     0.198 C 
HETATM   26  C   UNK N   1      27.306  28.477  -5.539  0.00  0.00     0.298 C 
ENDBRANCH  20  21
ENDBRANCH  19  20
ENDBRANCH   3  19
BRANCH   2  27
HETATM   27  C   UNK N   1      28.561  24.763  -3.699  0.00  0.00     0.121 C 
HETATM   28  C   UNK N   1      28.405  23.555  -2.782  0.00  0.00     0.026 C 
ENDBRANCH   2  27
TORSDOF 6
ENDMDL
MODEL 4
REMARK VINA RESULT:      -6.5     12.047     14.630
REMARK  6 active torsions:
REMARK  status: ('A' for Active; 'I' for Inactive)
REMARK    1  A    between atoms: N_3  and  C_13 
REMARK    2  A    between atoms: N_4  and  C_12 
REMARK    3  A    between atoms: C_5  and  C_8 
REMARK    4  A    between atoms: C_6  and  C_10 
REMARK    5  A    between atoms: C_6  and  C_11 
REMARK    6  A    between atoms: C_8  and  C_12 
ROOT
HETATM    1  O   UNK N   1      24.827  25.608  -5.712  0.00  0.00    -0.272 OA
HETATM    2  N   UNK N   1      26.779  26.102  -4.708  0.00  0.00    -0.351 N 
HETATM    3  C   UNK N   1      28.248  24.710  -5.881  0.00  0.00     0.032 C 
HETATM    4  C   UNK N   1      26.879  24.756  -6.662  0.00  0.00     0.100 C 
HETATM    5  C   UNK N   1      28.190  25.895  -4.902  0.00  0.00     0.132 C 
HETATM    6  C   UNK N   1      26.042  25.477  -5.641  0.00  0.00     0.238 C 
ENDROOT
BRANCH   4   7
HETATM    7  C   UNK N   1      26.833  25.567  -7.950  0.00  0.00    -0.035 A 
HETATM    8  C   UNK N   1      27.945  26.279  -8.422  0.00  0.00     0.009 A 
HETATM    9  C   UNK N   1      27.906  26.873  -9.691  0.00  0.00     0.001 A 
HETATM   10  C   UNK N   1      26.764  26.757 -10.493  0.00  0.00     0.000 A 
HETATM   11  C   UNK N   1      25.651  26.060 -10.026  0.00  0.00     0.001 A 
HETATM   12  C   UNK N   1      25.690  25.462  -8.770  0.00  0.00     0.009 A 
ENDBRANCH   4   7
BRANCH   4  13
HETATM   13  C   UNK N   1      26.515  23.354  -7.129  0.00  0.00    -0.035 A 
HETATM   14  C   UNK N   1      27.396  22.714  -8.026  0.00  0.00     0.009 A 
HETATM   15  C   UNK N   1      27.104  21.456  -8.541  0.00  0.00     0.001 A 
HETATM   16  C   UNK N   1      25.918  20.822  -8.176  0.00  0.00     0.000 A 
HETATM   17  C   UNK N   1      25.033  21.445  -7.287  0.00  0.00     0.001 A 
HETATM   18  C   UNK N   1      25.330  22.709  -6.758  0.00  0.00     0.009 A 
ENDBRANCH   4  13
BRANCH   3  19
HETATM   19  C   UNK N   1      28.267  23.452  -4.981  0.00  0.00     0.038 C 
BRANCH  19  20
HETATM   20  C   UNK N   1      29.050  23.603  -3.689  0.00  0.00     0.273 C 
BRANCH  20  21
HETATM   21  N   UNK N   1      29.865  22.410  -3.493  0.00  0.00     0.092 N 
HETATM   22  C   UNK N   1      30.102  21.818  -4.814  0.00  0.00     0.298 C 
HETATM   23  C   UNK N   1      31.140  20.699  -4.703  0.00  0.00     0.198 C 
HETATM   24  O   UNK N   1      32.349  21.234  -4.224  0.00  0.00    -0.388 OA
HETATM   25  C   UNK N   1      32.109  21.631  -2.897  0.00  0.00     0.198 C 
HETATM   26  C   UNK N   1      31.138  22.817  -2.891  0.00  0.00     0.298 C 
ENDBRANCH  20  21
ENDBRANCH  19  20
ENDBRANCH   3  19
BRANCH   2  27
HETATM   27  C   UNK N   1      26.212  26.975  -3.696  0.00  0.00     0.121 C 
HETATM   28  C   UNK N   1      26.066  28.416  -4.171  0.00  0.00     0.026 C 
ENDBRANCH   2  27
TORSDOF 6
ENDMDL
MODEL 5
REMARK VINA RESULT:      -6.5     11.923     14.932
REMARK  6 active torsions:
REMARK  status: ('A' for Active; 'I' for Inactive)
REMARK    1  A    between atoms: N_3  and  C_13 
REMARK    2  A    between atoms: N_4  and  C_12 
REMARK    3  A    between atoms: C_5  and  C_8 
REMARK    4  A    between atoms: C_6  and  C_10 
REMARK    5  A    between atoms: C_6  and  C_11 
REMARK    6  A    between atoms: C_8  and  C_12 
ROOT
HETATM    1  O   UNK N   1      28.970  26.087  -6.882  0.00  0.00    -0.272 OA
HETATM    2  N   UNK N   1      26.897  25.604  -7.611  0.00  0.00    -0.351 N 
HETATM    3  C   UNK N   1      25.988  24.571  -5.720  0.00  0.00     0.032 C 
HETATM    4  C   UNK N   1      27.331  25.284  -5.299  0.00  0.00     0.100 C 
HETATM    5  C   UNK N   1      25.627  25.175  -7.087  0.00  0.00     0.132 C 
HETATM    6  C   UNK N   1      27.847  25.653  -6.662  0.00  0.00     0.238 C 
ENDROOT
BRANCH   4   7
HETATM    7  C   UNK N   1      27.220  26.566  -4.485  0.00  0.00    -0.035 A 
HETATM    8  C   UNK N   1      28.350  27.276  -4.055  0.00  0.00     0.009 A 
HETATM    9  C   UNK N   1      28.198  28.532  -3.454  0.00  0.00     0.001 A 
HETATM   10  C   UNK N   1      26.924  29.087  -3.283  0.00  0.00     0.000 A 
HETATM   11  C   UNK N   1      25.795  28.383  -3.698  0.00  0.00     0.001 A 
HETATM   12  C   UNK N   1      25.943  27.138  -4.303  0.00  0.00     0.009 A 
ENDBRANCH   4   7
BRANCH   4  13
HETATM   13  C   UNK N   1      28.125  24.366  -4.380  0.00  0.00    -0.035 A 
HETATM   14  C   UNK N   1      27.567  24.059  -3.121  0.00  0.00     0.009 A 
HETATM   15  C   UNK N   1      28.257  23.273  -2.205  0.00  0.00     0.001 A 
HETATM   16  C   UNK N   1      29.523  22.791  -2.528  0.00  0.00     0.000 A 
HETATM   17  C   UNK N   1      30.091  23.088  -3.775  0.00  0.00     0.001 A 
HETATM   18  C   UNK N   1      29.393  23.871  -4.704  0.00  0.00     0.009 A 
ENDBRANCH   4  13
BRANCH   3  19
HETATM   19  C   UNK N   1      26.283  23.081  -6.009  0.00  0.00     0.038 C 
BRANCH  19  20
HETATM   20  C   UNK N   1      25.501  22.489  -7.167  0.00  0.00     0.273 C 
BRANCH  20  21
HETATM   21  N   UNK N   1      26.400  21.663  -7.966  0.00  0.00     0.092 N 
HETATM   22  C   UNK N   1      26.174  22.003  -9.374  0.00  0.00     0.298 C 
HETATM   23  C   UNK N   1      27.245  21.343 -10.246  0.00  0.00     0.198 C 
HETATM   24  O   UNK N   1      28.511  21.819  -9.865  0.00  0.00    -0.388 OA
HETATM   25  C   UNK N   1      28.749  21.323  -8.571  0.00  0.00     0.198 C 
HETATM   26  C   UNK N   1      27.779  21.988  -7.588  0.00  0.00     0.298 C 
ENDBRANCH  20  21
ENDBRANCH  19  20
ENDBRANCH   3  19
BRANCH   2  27
HETATM   27  C   UNK N   1      27.111  26.045  -8.978  0.00  0.00     0.121 C 
HETATM   28  C   UNK N   1      25.927  25.744  -9.890  0.00  0.00     0.026 C 
ENDBRANCH   2  27
TORSDOF 6
ENDMDL
MODEL 6
REMARK VINA RESULT:      -6.4      2.532      6.314
REMARK  6 active torsions:
REMARK  status: ('A' for Active; 'I' for Inactive)
REMARK    1  A    between atoms: N_3  and  C_13 
REMARK    2  A    between atoms: N_4  and  C_12 
REMARK    3  A    between atoms: C_5  and  C_8 
REMARK    4  A    between atoms: C_6  and  C_10 
REMARK    5  A    between atoms: C_6  and  C_11 
REMARK    6  A    between atoms: C_8  and  C_12 
ROOT
HETATM    1  O   UNK N   1      28.906  14.663   5.693  0.00  0.00    -0.272 OA
HETATM    2  N   UNK N   1      28.628  16.006   3.909  0.00  0.00    -0.351 N 
HETATM    3  C   UNK N   1      29.427  18.037   4.752  0.00  0.00     0.032 C 
HETATM    4  C   UNK N   1      29.848  16.887   5.746  0.00  0.00     0.100 C 
HETATM    5  C   UNK N   1      29.020  17.315   3.456  0.00  0.00     0.132 C 
HETATM    6  C   UNK N   1      29.050  15.755   5.160  0.00  0.00     0.238 C 
ENDROOT
BRANCH   4   7
HETATM    7  C   UNK N   1      31.311  16.465   5.751  0.00  0.00    -0.035 A 
HETATM    8  C   UNK N   1      32.298  17.188   5.067  0.00  0.00     0.009 A 
HETATM    9  C   UNK N   1      33.649  16.857   5.236  0.00  0.00     0.001 A 
HETATM   10  C   UNK N   1      34.022  15.810   6.086  0.00  0.00     0.000 A 
HETATM   11  C   UNK N   1      33.046  15.078   6.761  0.00  0.00     0.001 A 
HETATM   12  C   UNK N   1      31.704  15.410   6.603  0.00  0.00     0.009 A 
ENDBRANCH   4   7
BRANCH   4  13
HETATM   13  C   UNK N   1      29.623  17.349   7.179  0.00  0.00    -0.035 A 
HETATM   14  C   UNK N   1      28.374  17.062   7.769  0.00  0.00     0.009 A 
HETATM   15  C   UNK N   1      28.073  17.499   9.054  0.00  0.00     0.001 A 
HETATM   16  C   UNK N   1      29.012  18.241   9.766  0.00  0.00     0.000 A 
HETATM   17  C   UNK N   1      30.257  18.533   9.193  0.00  0.00     0.001 A 
HETATM   18  C   UNK N   1      30.567  18.086   7.902  0.00  0.00     0.009 A 
ENDBRANCH   4  13
BRANCH   3  19
HETATM   19  C   UNK N   1      28.124  18.691   5.268  0.00  0.00     0.038 C 
BRANCH  19  20
HETATM   20  C   UNK N   1      27.701  19.943   4.522  0.00  0.00     0.273 C 
BRANCH  20  21
HETATM   21  N   UNK N   1      26.247  20.052   4.579  0.00  0.00     0.092 N 
HETATM   22  C   UNK N   1      25.782  20.427   3.239  0.00  0.00     0.298 C 
HETATM   23  C   UNK N   1      24.256  20.330   3.174  0.00  0.00     0.198 C 
HETATM   24  O   UNK N   1      23.864  19.006   3.435  0.00  0.00    -0.388 OA
HETATM   25  C   UNK N   1      24.179  18.756   4.782  0.00  0.00     0.198 C 
HETATM   26  C   UNK N   1      25.703  18.743   4.951  0.00  0.00     0.298 C 
ENDBRANCH  20  21
ENDBRANCH  19  20
ENDBRANCH   3  19
BRANCH   2  27
HETATM   27  C   UNK N   1      27.957  15.020   3.080  0.00  0.00     0.121 C 
HETATM   28  C   UNK N   1      26.731  15.580   2.369  0.00  0.00     0.026 C 
ENDBRANCH   2  27
TORSDOF 6
ENDMDL
MODEL 7
REMARK VINA RESULT:      -6.3      6.624      8.886
REMARK  6 active torsions:
REMARK  status: ('A' for Active; 'I' for Inactive)
REMARK    1  A    between atoms: N_3  and  C_13 
REMARK    2  A    between atoms: N_4  and  C_12 
REMARK    3  A    between atoms: C_5  and  C_8 
REMARK    4  A    between atoms: C_6  and  C_10 
REMARK    5  A    between atoms: C_6  and  C_11 
REMARK    6  A    between atoms: C_8  and  C_12 
ROOT
HETATM    1  O   UNK N   1      18.579  16.222   5.120  0.00  0.00    -0.272 OA
HETATM    2  N   UNK N   1      20.232  16.299   6.644  0.00  0.00    -0.351 N 
HETATM    3  C   UNK N   1      22.100  15.887   5.297  0.00  0.00     0.032 C 
HETATM    4  C   UNK N   1      20.873  16.205   4.360  0.00  0.00     0.100 C 
HETATM    5  C   UNK N   1      21.669  16.364   6.694  0.00  0.00     0.132 C 
HETATM    6  C   UNK N   1      19.774  16.193   5.386  0.00  0.00     0.238 C 
ENDROOT
BRANCH   4   7
HETATM    7  C   UNK N   1      20.847  17.565   3.674  0.00  0.00    -0.035 A 
HETATM    8  C   UNK N   1      19.705  18.049   3.021  0.00  0.00     0.009 A 
HETATM    9  C   UNK N   1      19.677  19.368   2.550  0.00  0.00     0.001 A 
HETATM   10  C   UNK N   1      20.781  20.209   2.729  0.00  0.00     0.000 A 
HETATM   11  C   UNK N   1      21.925  19.732   3.367  0.00  0.00     0.001 A 
HETATM   12  C   UNK N   1      21.953  18.425   3.845  0.00  0.00     0.009 A 
ENDBRANCH   4   7
BRANCH   4  13
HETATM   13  C   UNK N   1      20.865  15.233   3.188  0.00  0.00    -0.035 A 
HETATM   14  C   UNK N   1      21.939  15.302   2.275  0.00  0.00     0.009 A 
HETATM   15  C   UNK N   1      21.974  14.485   1.150  0.00  0.00     0.001 A 
HETATM   16  C   UNK N   1      20.929  13.595   0.913  0.00  0.00     0.000 A 
HETATM   17  C   UNK N   1      19.856  13.516   1.810  0.00  0.00     0.001 A 
HETATM   18  C   UNK N   1      19.823  14.331   2.951  0.00  0.00     0.009 A 
ENDBRANCH   4  13
BRANCH   3  19
HETATM   19  C   UNK N   1      22.244  14.352   5.429  0.00  0.00     0.038 C 
BRANCH  19  20
HETATM   20  C   UNK N   1      23.595  13.879   5.931  0.00  0.00     0.273 C 
BRANCH  20  21
HETATM   21  N   UNK N   1      23.498  13.625   7.365  0.00  0.00     0.092 N 
HETATM   22  C   UNK N   1      22.819  12.337   7.537  0.00  0.00     0.298 C 
HETATM   23  C   UNK N   1      22.893  11.903   9.003  0.00  0.00     0.198 C 
HETATM   24  O   UNK N   1      24.240  11.757   9.376  0.00  0.00    -0.388 OA
HETATM   25  C   UNK N   1      24.800  13.046   9.357  0.00  0.00     0.198 C 
HETATM   26  C   UNK N   1      24.856  13.552   7.911  0.00  0.00     0.298 C 
ENDBRANCH  20  21
ENDBRANCH  19  20
ENDBRANCH   3  19
BRANCH   2  27
HETATM   27  C   UNK N   1      19.366  16.447   7.800  0.00  0.00     0.121 C 
HETATM   28  C   UNK N   1      19.722  17.656   8.657  0.00  0.00     0.026 C 
ENDBRANCH   2  27
TORSDOF 6
ENDMDL
MODEL 8
REMARK VINA RESULT:      -6.3     11.016     14.046
REMARK  6 active torsions:
REMARK  status: ('A' for Active; 'I' for Inactive)
REMARK    1  A    between atoms: N_3  and  C_13 
REMARK    2  A    between atoms: N_4  and  C_12 
REMARK    3  A    between atoms: C_5  and  C_8 
REMARK    4  A    between atoms: C_6  and  C_10 
REMARK    5  A    between atoms: C_6  and  C_11 
REMARK    6  A    between atoms: C_8  and  C_12 
ROOT
HETATM    1  O   UNK N   1      30.788  23.462  -2.042  0.00  0.00    -0.272 OA
HETATM    2  N   UNK N   1      31.715  22.255  -3.699  0.00  0.00    -0.351 N 
HETATM    3  C   UNK N   1      30.711  23.227  -5.575  0.00  0.00     0.032 C 
HETATM    4  C   UNK N   1      30.443  24.158  -4.330  0.00  0.00     0.100 C 
HETATM    5  C   UNK N   1      31.843  22.285  -5.132  0.00  0.00     0.132 C 
HETATM    6  C   UNK N   1      30.942  23.253  -3.238  0.00  0.00     0.238 C 
ENDROOT
BRANCH   4   7
HETATM    7  C   UNK N   1      31.230  25.459  -4.245  0.00  0.00    -0.035 A 
HETATM    8  C   UNK N   1      32.274  25.758  -5.131  0.00  0.00     0.009 A 
HETATM    9  C   UNK N   1      32.857  27.032  -5.118  0.00  0.00     0.001 A 
HETATM   10  C   UNK N   1      32.401  28.012  -4.229  0.00  0.00     0.000 A 
HETATM   11  C   UNK N   1      31.370  27.719  -3.337  0.00  0.00     0.001 A 
HETATM   12  C   UNK N   1      30.783  26.458  -3.353  0.00  0.00     0.009 A 
ENDBRANCH   4   7
BRANCH   4  13
HETATM   13  C   UNK N   1      28.998  24.636  -4.356  0.00  0.00    -0.035 A 
HETATM   14  C   UNK N   1      28.101  24.056  -3.434  0.00  0.00     0.009 A 
HETATM   15  C   UNK N   1      26.754  24.400  -3.433  0.00  0.00     0.001 A 
HETATM   16  C   UNK N   1      26.279  25.321  -4.364  0.00  0.00     0.000 A 
HETATM   17  C   UNK N   1      27.158  25.906  -5.285  0.00  0.00     0.001 A 
HETATM   18  C   UNK N   1      28.518  25.569  -5.282  0.00  0.00     0.009 A 
ENDBRANCH   4  13
BRANCH   3  19
HETATM   19  C   UNK N   1      29.485  22.306  -5.782  0.00  0.00     0.038 C 
BRANCH  19  20
HETATM   20  C   UNK N   1      29.436  21.604  -7.126  0.00  0.00     0.273 C 
BRANCH  20  21
HETATM   21  N   UNK N   1      28.233  22.031  -7.833  0.00  0.00     0.092 N 
HETATM   22  C   UNK N   1      27.676  20.852  -8.503  0.00  0.00     0.298 C 
HETATM   23  C   UNK N   1      26.292  21.181  -9.068  0.00  0.00     0.198 C 
HETATM   24  O   UNK N   1      25.437  21.548  -8.015  0.00  0.00    -0.388 OA
HETATM   25  C   UNK N   1      25.920  22.772  -7.519  0.00  0.00     0.198 C 
HETATM   26  C   UNK N   1      27.279  22.544  -6.847  0.00  0.00     0.298 C 
ENDBRANCH  20  21
ENDBRANCH  19  20
ENDBRANCH   3  19
BRANCH   2  27
HETATM   27  C   UNK N   1      32.426  21.331  -2.833  0.00  0.00     0.121 C 
HETATM   28  C   UNK N   1      33.761  20.882  -3.416  0.00  0.00     0.026 C 
ENDBRANCH   2  27
TORSDOF 6
ENDMDL
MODEL 9
REMARK VINA RESULT:      -6.2      2.185      6.170
REMARK  6 active torsions:
REMARK  status: ('A' for Active; 'I' for Inactive)
REMARK    1  A    between atoms: N_3  and  C_13 
REMARK    2  A    between atoms: N_4  and  C_12 
REMARK    3  A    between atoms: C_5  and  C_8 
REMARK    4  A    between atoms: C_6  and  C_10 
REMARK    5  A    between atoms: C_6  and  C_11 
REMARK    6  A    between atoms: C_8  and  C_12 
ROOT
HETATM    1  O   UNK N   1      29.678  16.625   6.654  0.00  0.00    -0.272 OA
HETATM    2  N   UNK N   1      30.292  16.520   4.492  0.00  0.00    -0.351 N 
HETATM    3  C   UNK N   1      28.214  16.685   3.429  0.00  0.00     0.032 C 
HETATM    4  C   UNK N   1      28.029  17.076   4.946  0.00  0.00     0.100 C 
HETATM    5  C   UNK N   1      29.731  16.744   3.185  0.00  0.00     0.132 C 
HETATM    6  C   UNK N   1      29.381  16.675   5.467  0.00  0.00     0.238 C 
ENDROOT
BRANCH   4   7
HETATM    7  C   UNK N   1      27.827  18.549   5.272  0.00  0.00    -0.035 A 
HETATM    8  C   UNK N   1      27.492  19.491   4.289  0.00  0.00     0.009 A 
HETATM    9  C   UNK N   1      27.156  20.800   4.661  0.00  0.00     0.001 A 
HETATM   10  C   UNK N   1      27.150  21.174   6.010  0.00  0.00     0.000 A 
HETATM   11  C   UNK N   1      27.493  20.246   6.993  0.00  0.00     0.001 A 
HETATM   12  C   UNK N   1      27.819  18.943   6.627  0.00  0.00     0.009 A 
ENDBRANCH   4   7
BRANCH   4  13
HETATM   13  C   UNK N   1      26.758  16.432   5.483  0.00  0.00    -0.035 A 
HETATM   14  C   UNK N   1      25.532  16.824   4.905  0.00  0.00     0.009 A 
HETATM   15  C   UNK N   1      24.325  16.323   5.379  0.00  0.00     0.001 A 
HETATM   16  C   UNK N   1      24.323  15.430   6.448  0.00  0.00     0.000 A 
HETATM   17  C   UNK N   1      25.532  15.031   7.033  0.00  0.00     0.001 A 
HETATM   18  C   UNK N   1      26.752  15.527   6.550  0.00  0.00     0.009 A 
ENDBRANCH   4  13
BRANCH   3  19
HETATM   19  C   UNK N   1      27.840  15.195   3.248  0.00  0.00     0.038 C 
BRANCH  19  20
HETATM   20  C   UNK N   1      27.104  14.875   1.960  0.00  0.00     0.273 C 
BRANCH  20  21
HETATM   21  N   UNK N   1      26.142  13.811   2.223  0.00  0.00     0.092 N 
HETATM   22  C   UNK N   1      26.379  13.333   3.589  0.00  0.00     0.298 C 
HETATM   23  C   UNK N   1      25.256  12.380   4.008  0.00  0.00     0.198 C 
HETATM   24  O   UNK N   1      24.030  13.067   3.976  0.00  0.00    -0.388 OA
HETATM   25  C   UNK N   1      23.770  13.352   2.624  0.00  0.00     0.198 C 
HETATM   26  C   UNK N   1      24.793  14.375   2.117  0.00  0.00     0.298 C 
ENDBRANCH  20  21
ENDBRANCH  19  20
ENDBRANCH   3  19
BRANCH   2  27
HETATM   27  C   UNK N   1      31.699  16.269   4.746  0.00  0.00     0.121 C 
HETATM   28  C   UNK N   1      32.583  17.470   4.424  0.00  0.00     0.026 C 
ENDBRANCH   2  27
TORSDOF 6
ENDMDL
