REMARK  6 active torsions:
REMARK  status: ('A' for Active; 'I' for Inactive)
REMARK    1  A    between atoms: N_3  and  C_13 
REMARK    2  A    between atoms: N_4  and  C_12 
REMARK    3  A    between atoms: C_5  and  C_8 
REMARK    4  A    between atoms: C_6  and  C_10 
REMARK    5  A    between atoms: C_6  and  C_11 
REMARK    6  A    between atoms: C_8  and  C_12 
ROOT
HETATM    1  O   UNK N   1       3.062   1.908   1.689  0.00  0.00    -0.272 OA
HETATM    2  N   UNK N   1       4.640   2.535   0.213  0.00  0.00    -0.351 N 
HETATM    3  C   UNK N   1       5.117   0.493  -0.824  0.00  0.00     0.032 C 
HETATM    4  C   UNK N   1       3.792   0.326   0.015  0.00  0.00     0.100 C 
HETATM    5  C   UNK N   1       5.328   2.012  -0.938  0.00  0.00     0.132 C 
HETATM    6  C   UNK N   1       3.812   1.631   0.762  0.00  0.00     0.238 C 
ENDROOT
BRANCH   4   7
HETATM    7  C   UNK N   1       2.479   0.255  -0.753  0.00  0.00    -0.035 A 
HETATM    8  C   UNK N   1       2.437   0.062  -2.141  0.00  0.00     0.009 A 
HETATM    9  C   UNK N   1       1.209  -0.161  -2.778  0.00  0.00     0.001 A 
HETATM   10  C   UNK N   1       0.022  -0.196  -2.037  0.00  0.00     0.000 A 
HETATM   11  C   UNK N   1       0.054   0.006  -0.658  0.00  0.00     0.001 A 
HETATM   12  C   UNK N   1       1.273   0.219  -0.021  0.00  0.00     0.009 A 
ENDBRANCH   4   7
BRANCH   4  13
HETATM   13  C   UNK N   1       3.825  -1.004   0.755  0.00  0.00    -0.035 A 
HETATM   14  C   UNK N   1       3.924  -2.180  -0.018  0.00  0.00     0.009 A 
HETATM   15  C   UNK N   1       3.904  -3.434   0.582  0.00  0.00     0.001 A 
HETATM   16  C   UNK N   1       3.772  -3.533   1.965  0.00  0.00     0.000 A 
HETATM   17  C   UNK N   1       3.673  -2.374   2.746  0.00  0.00     0.001 A 
HETATM   18  C   UNK N   1       3.703  -1.108   2.145  0.00  0.00     0.009 A 
ENDBRANCH   4  13
BRANCH   3  19
HETATM   19  C   UNK N   1       6.310  -0.012   0.021  0.00  0.00     0.038 C 
BRANCH  19  20
HETATM   20  C   UNK N   1       7.590  -0.247  -0.760  0.00  0.00     0.273 C 
BRANCH  20  21
HETATM   21  N   UNK N   1       8.305  -1.368  -0.160  0.00  0.00     0.092 N 
HETATM   22  C   UNK N   1       7.859  -2.588  -0.841  0.00  0.00     0.298 C 
HETATM   23  C   UNK N   1       8.738  -3.768  -0.420  0.00  0.00     0.198 C 
HETATM   24  O   UNK N   1      10.070  -3.508  -0.786  0.00  0.00    -0.388 OA
HETATM   25  C   UNK N   1      10.501  -2.438   0.018  0.00  0.00     0.198 C 
HETATM   26  C   UNK N   1       9.740  -1.168  -0.380  0.00  0.00     0.298 C 
ENDBRANCH  20  21
ENDBRANCH  19  20
ENDBRANCH   3  19
BRANCH   2  27
HETATM   27  C   UNK N   1       4.734   3.911   0.667  0.00  0.00     0.121 C 
HETATM   28  C   UNK N   1       5.677   4.753  -0.185  0.00  0.00     0.026 C 
ENDBRANCH   2  27
TORSDOF 6
