MODEL 1
REMARK VINA RESULT:      -7.8      0.000      0.000
REMARK  6 active torsions:
REMARK  status: ('A' for Active; 'I' for Inactive)
REMARK    1  A    between atoms: S_3  and  N_12 
REMARK    2  A    between atoms: S_3  and  C_16 
REMARK    3  A    between atoms: S_4  and  C_20 
REMARK    4  A    between atoms: S_4  and  C_21 
REMARK    5  A    between atoms: C_17  and  C_20 
REMARK    6  A    between atoms: C_21  and  C_22 
ROOT
HETATM    1 Cl   UNK N   1      19.720  17.469   3.722  0.00  0.00    -0.083 Cl
HETATM    2  S   UNK N   1      25.883  18.033   4.926  0.00  0.00     0.266 S 
HETATM    3  O   UNK N   1      26.265  19.295   5.714  0.00  0.00    -0.200 OA
HETATM    4  O   UNK N   1      26.883  17.960   3.762  0.00  0.00    -0.200 OA
HETATM    5  N   UNK N   1      24.122  15.760   5.752  0.00  0.00    -0.344 N 
HETATM    6  N   UNK N   1      26.306  16.713   5.984  0.00  0.00    -0.269 N 
ATOM      7  HN  UNK N   1      27.242  16.678   6.388  1.00  0.00     0.180 HD
HETATM    8  C   UNK N   1      24.178  17.895   4.523  0.00  0.00     0.108 A 
HETATM    9  C   UNK N   1      23.487  16.765   4.966  0.00  0.00     0.058 A 
HETATM   10  C   UNK N   1      23.512  18.913   3.840  0.00  0.00     0.054 A 
HETATM   11  C   UNK N   1      22.143  18.805   3.582  0.00  0.00     0.102 A 
HETATM   12  C   UNK N   1      25.458  15.776   6.267  0.00  0.00     0.100 A 
HETATM   13  C   UNK N   1      22.125  16.641   4.683  0.00  0.00     0.056 A 
HETATM   14  C   UNK N   1      21.446  17.653   3.994  0.00  0.00     0.059 A 
HETATM   15  H   UNK N   1      23.582  14.964   5.964  0.00  0.00     0.167 HD
ENDROOT
BRANCH  12  16
HETATM   16  C   UNK N   1      25.848  14.702   7.229  0.00  0.00     0.151 C 
BRANCH  16  17
HETATM   17  S   UNK N   1      24.578  13.412   7.366  0.00  0.00    -0.157 SA
BRANCH  17  18
HETATM   18  C   UNK N   1      24.799  13.288   9.168  0.00  0.00     0.112 C 
BRANCH  18  19
HETATM   19  C   UNK N   1      23.502  12.994   9.839  0.00  0.00    -0.049 A 
HETATM   20  C   UNK N   1      22.306  13.522   9.339  0.00  0.00     0.008 A 
HETATM   21  C   UNK N   1      21.096  13.243   9.980  0.00  0.00     0.001 A 
HETATM   22  C   UNK N   1      21.079  12.430  11.117  0.00  0.00     0.000 A 
HETATM   23  C   UNK N   1      22.272  11.896  11.613  0.00  0.00     0.001 A 
HETATM   24  C   UNK N   1      23.482  12.177  10.974  0.00  0.00     0.008 A 
ENDBRANCH  18  19
ENDBRANCH  17  18
ENDBRANCH  16  17
ENDBRANCH  12  16
BRANCH  11  25
HETATM   25  S   UNK N   1      21.295  20.195   2.829  0.00  0.00     0.258 S 
HETATM   26  O   UNK N   1      20.215  20.751   3.769  0.00  0.00    -0.201 OA
HETATM   27  O   UNK N   1      22.204  21.421   2.648  0.00  0.00    -0.201 OA
BRANCH  25  28
HETATM   28  N   UNK N   1      20.482  19.990   1.277  0.00  0.00    -0.324 N 
HETATM   29  H   UNK N   1      19.953  19.231   0.848  0.00  0.00     0.169 HD
HETATM   30  H   UNK N   1      20.559  20.811   0.677  0.00  0.00     0.169 HD
ENDBRANCH  25  28
ENDBRANCH  11  25
TORSDOF 6
ENDMDL
MODEL 2
REMARK VINA RESULT:      -7.5     11.872     13.989
REMARK  6 active torsions:
REMARK  status: ('A' for Active; 'I' for Inactive)
REMARK    1  A    between atoms: S_3  and  N_12 
REMARK    2  A    between atoms: S_3  and  C_16 
REMARK    3  A    between atoms: S_4  and  C_20 
REMARK    4  A    between atoms: S_4  and  C_21 
REMARK    5  A    between atoms: C_17  and  C_20 
REMARK    6  A    between atoms: C_21  and  C_22 
ROOT
HETATM    1 Cl   UNK N   1      32.058  16.597   8.703  0.00  0.00    -0.083 Cl
HETATM    2  S   UNK N   1      37.363  13.541  10.214  0.00  0.00     0.266 S 
HETATM    3  O   UNK N   1      38.654  14.278   9.828  0.00  0.00    -0.200 OA
HETATM    4  O   UNK N   1      37.558  12.095   9.730  0.00  0.00    -0.200 OA
HETATM    5  N   UNK N   1      35.208  14.384  12.110  0.00  0.00    -0.344 N 
HETATM    6  N   UNK N   1      37.411  13.457  11.954  0.00  0.00    -0.269 N 
ATOM      7  HN  UNK N   1      38.245  13.092  12.414  1.00  0.00     0.180 HD
HETATM    8  C   UNK N   1      35.875  14.348   9.738  0.00  0.00     0.108 A 
HETATM    9  C   UNK N   1      34.951  14.666  10.737  0.00  0.00     0.058 A 
HETATM   10  C   UNK N   1      35.647  14.722   8.414  0.00  0.00     0.054 A 
HETATM   11  C   UNK N   1      34.482  15.413   8.071  0.00  0.00     0.102 A 
HETATM   12  C   UNK N   1      36.409  13.848  12.677  0.00  0.00     0.100 A 
HETATM   13  C   UNK N   1      33.773  15.331  10.392  0.00  0.00     0.056 A 
HETATM   14  C   UNK N   1      33.530  15.708   9.066  0.00  0.00     0.059 A 
HETATM   15  H   UNK N   1      34.477  14.579  12.740  0.00  0.00     0.167 HD
ENDROOT
BRANCH  12  16
HETATM   16  C   UNK N   1      36.524  13.816  14.166  0.00  0.00     0.151 C 
BRANCH  16  17
HETATM   17  S   UNK N   1      36.412  12.128  14.824  0.00  0.00    -0.157 SA
BRANCH  17  18
HETATM   18  C   UNK N   1      34.979  12.552  15.861  0.00  0.00     0.112 C 
BRANCH  18  19
HETATM   19  C   UNK N   1      35.226  12.176  17.281  0.00  0.00    -0.049 A 
HETATM   20  C   UNK N   1      35.076  13.120  18.304  0.00  0.00     0.008 A 
HETATM   21  C   UNK N   1      35.316  12.757  19.632  0.00  0.00     0.001 A 
HETATM   22  C   UNK N   1      35.699  11.448  19.940  0.00  0.00     0.000 A 
HETATM   23  C   UNK N   1      35.842  10.503  18.921  0.00  0.00     0.001 A 
HETATM   24  C   UNK N   1      35.604  10.866  17.592  0.00  0.00     0.008 A 
ENDBRANCH  18  19
ENDBRANCH  17  18
ENDBRANCH  16  17
ENDBRANCH  12  16
BRANCH  11  25
HETATM   25  S   UNK N   1      34.292  16.001   6.387  0.00  0.00     0.258 S 
HETATM   26  O   UNK N   1      34.392  17.533   6.328  0.00  0.00    -0.201 OA
HETATM   27  O   UNK N   1      35.456  15.584   5.475  0.00  0.00    -0.201 OA
BRANCH  25  28
HETATM   28  N   UNK N   1      32.831  15.608   5.481  0.00  0.00    -0.324 N 
HETATM   29  H   UNK N   1      32.174  14.828   5.496  0.00  0.00     0.169 HD
HETATM   30  H   UNK N   1      32.589  16.317   4.789  0.00  0.00     0.169 HD
ENDBRANCH  25  28
ENDBRANCH  11  25
TORSDOF 6
ENDMDL
MODEL 3
REMARK VINA RESULT:      -7.4     10.812     11.841
REMARK  6 active torsions:
REMARK  status: ('A' for Active; 'I' for Inactive)
REMARK    1  A    between atoms: S_3  and  N_12 
REMARK    2  A    between atoms: S_3  and  C_16 
REMARK    3  A    between atoms: S_4  and  C_20 
REMARK    4  A    between atoms: S_4  and  C_21 
REMARK    5  A    between atoms: C_17  and  C_20 
REMARK    6  A    between atoms: C_21  and  C_22 
ROOT
HETATM    1 Cl   UNK N   1      34.194  13.058   4.231  0.00  0.00    -0.083 Cl
HETATM    2  S   UNK N   1      34.047  17.830   8.350  0.00  0.00     0.266 S 
HETATM    3  O   UNK N   1      32.648  18.413   8.599  0.00  0.00    -0.200 OA
HETATM    4  O   UNK N   1      34.961  19.043   8.123  0.00  0.00    -0.200 OA
HETATM    5  N   UNK N   1      35.055  15.064   8.885  0.00  0.00    -0.344 N 
HETATM    6  N   UNK N   1      34.526  17.171   9.892  0.00  0.00    -0.269 N 
ATOM      7  HN  UNK N   1      34.466  17.757  10.725  1.00  0.00     0.180 HD
HETATM    8  C   UNK N   1      34.115  16.544   7.153  0.00  0.00     0.108 A 
HETATM    9  C   UNK N   1      34.628  15.306   7.546  0.00  0.00     0.058 A 
HETATM   10  C   UNK N   1      33.611  16.728   5.866  0.00  0.00     0.054 A 
HETATM   11  C   UNK N   1      33.624  15.673   4.950  0.00  0.00     0.102 A 
HETATM   12  C   UNK N   1      34.955  15.954  10.002  0.00  0.00     0.100 A 
HETATM   13  C   UNK N   1      34.669  14.258   6.624  0.00  0.00     0.056 A 
HETATM   14  C   UNK N   1      34.171  14.431   5.327  0.00  0.00     0.059 A 
HETATM   15  H   UNK N   1      35.466  14.187   9.061  0.00  0.00     0.167 HD
ENDROOT
BRANCH  12  16
HETATM   16  C   UNK N   1      35.293  15.417  11.354  0.00  0.00     0.151 C 
BRANCH  16  17
HETATM   17  S   UNK N   1      36.166  13.828  11.261  0.00  0.00    -0.157 SA
BRANCH  17  18
HETATM   18  C   UNK N   1      36.312  13.722  13.072  0.00  0.00     0.112 C 
BRANCH  18  19
HETATM   19  C   UNK N   1      35.388  12.687  13.615  0.00  0.00    -0.049 A 
HETATM   20  C   UNK N   1      34.964  12.740  14.948  0.00  0.00     0.008 A 
HETATM   21  C   UNK N   1      34.102  11.761  15.447  0.00  0.00     0.001 A 
HETATM   22  C   UNK N   1      33.657  10.730  14.614  0.00  0.00     0.000 A 
HETATM   23  C   UNK N   1      34.074  10.680  13.281  0.00  0.00     0.001 A 
HETATM   24  C   UNK N   1      34.938  11.658  12.781  0.00  0.00     0.008 A 
ENDBRANCH  18  19
ENDBRANCH  17  18
ENDBRANCH  16  17
ENDBRANCH  12  16
BRANCH  11  25
HETATM   25  S   UNK N   1      32.839  15.906   3.354  0.00  0.00     0.258 S 
HETATM   26  O   UNK N   1      33.849  15.706   2.214  0.00  0.00    -0.201 OA
HETATM   27  O   UNK N   1      31.800  14.819   3.036  0.00  0.00    -0.201 OA
BRANCH  25  28
HETATM   28  N   UNK N   1      32.038  17.434   2.986  0.00  0.00    -0.324 N 
HETATM   29  H   UNK N   1      31.197  17.688   2.468  0.00  0.00     0.169 HD
HETATM   30  H   UNK N   1      32.522  18.241   3.379  0.00  0.00     0.169 HD
ENDBRANCH  25  28
ENDBRANCH  11  25
TORSDOF 6
ENDMDL
MODEL 4
REMARK VINA RESULT:      -7.2      8.684     10.395
REMARK  6 active torsions:
REMARK  status: ('A' for Active; 'I' for Inactive)
REMARK    1  A    between atoms: S_3  and  N_12 
REMARK    2  A    between atoms: S_3  and  C_16 
REMARK    3  A    between atoms: S_4  and  C_20 
REMARK    4  A    between atoms: S_4  and  C_21 
REMARK    5  A    between atoms: C_17  and  C_20 
REMARK    6  A    between atoms: C_21  and  C_22 
ROOT
HETATM    1 Cl   UNK N   1      27.813  17.659   9.036  0.00  0.00    -0.083 Cl
HETATM    2  S   UNK N   1      33.502  16.713   6.488  0.00  0.00     0.266 S 
HETATM    3  O   UNK N   1      34.090  17.937   5.769  0.00  0.00    -0.200 OA
HETATM    4  O   UNK N   1      33.703  15.537   5.520  0.00  0.00    -0.200 OA
HETATM    5  N   UNK N   1      32.782  16.389   9.373  0.00  0.00    -0.344 N 
HETATM    6  N   UNK N   1      34.597  16.416   7.811  0.00  0.00    -0.269 N 
ATOM      7  HN  UNK N   1      35.597  16.343   7.624  1.00  0.00     0.180 HD
HETATM    8  C   UNK N   1      31.887  16.940   7.144  0.00  0.00     0.108 A 
HETATM    9  C   UNK N   1      31.700  16.737   8.513  0.00  0.00     0.058 A 
HETATM   10  C   UNK N   1      30.835  17.375   6.339  0.00  0.00     0.054 A 
HETATM   11  C   UNK N   1      29.574  17.603   6.897  0.00  0.00     0.102 A 
HETATM   12  C   UNK N   1      34.168  16.287   9.027  0.00  0.00     0.100 A 
HETATM   13  C   UNK N   1      30.433  16.935   9.068  0.00  0.00     0.056 A 
HETATM   14  C   UNK N   1      29.367  17.367   8.270  0.00  0.00     0.059 A 
HETATM   15  H   UNK N   1      32.552  16.199  10.311  0.00  0.00     0.167 HD
ENDROOT
BRANCH  12  16
HETATM   16  C   UNK N   1      35.152  16.097  10.134  0.00  0.00     0.151 C 
BRANCH  16  17
HETATM   17  S   UNK N   1      34.729  14.683  11.191  0.00  0.00    -0.157 SA
BRANCH  17  18
HETATM   18  C   UNK N   1      36.107  15.031  12.327  0.00  0.00     0.112 C 
BRANCH  18  19
HETATM   19  C   UNK N   1      36.007  14.187  13.551  0.00  0.00    -0.049 A 
HETATM   20  C   UNK N   1      35.167  13.068  13.577  0.00  0.00     0.008 A 
HETATM   21  C   UNK N   1      35.077  12.287  14.732  0.00  0.00     0.001 A 
HETATM   22  C   UNK N   1      35.832  12.620  15.861  0.00  0.00     0.000 A 
HETATM   23  C   UNK N   1      36.677  13.733  15.834  0.00  0.00     0.001 A 
HETATM   24  C   UNK N   1      36.765  14.516  14.679  0.00  0.00     0.008 A 
ENDBRANCH  18  19
ENDBRANCH  17  18
ENDBRANCH  16  17
ENDBRANCH  12  16
BRANCH  11  25
HETATM   25  S   UNK N   1      28.285  18.297   5.860  0.00  0.00     0.258 S 
HETATM   26  O   UNK N   1      27.041  17.396   5.858  0.00  0.00    -0.201 OA
HETATM   27  O   UNK N   1      27.711  19.608   6.419  0.00  0.00    -0.201 OA
BRANCH  25  28
HETATM   28  N   UNK N   1      28.610  18.624   4.158  0.00  0.00    -0.324 N 
HETATM   29  H   UNK N   1      29.410  18.467   3.545  0.00  0.00     0.169 HD
HETATM   30  H   UNK N   1      27.825  19.066   3.681  0.00  0.00     0.169 HD
ENDBRANCH  25  28
ENDBRANCH  11  25
TORSDOF 6
ENDMDL
MODEL 5
REMARK VINA RESULT:      -7.1      8.861     12.601
REMARK  6 active torsions:
REMARK  status: ('A' for Active; 'I' for Inactive)
REMARK    1  A    between atoms: S_3  and  N_12 
REMARK    2  A    between atoms: S_3  and  C_16 
REMARK    3  A    between atoms: S_4  and  C_20 
REMARK    4  A    between atoms: S_4  and  C_21 
REMARK    5  A    between atoms: C_17  and  C_20 
REMARK    6  A    between atoms: C_21  and  C_22 
ROOT
HETATM    1 Cl   UNK N   1      35.026  12.406  11.277  0.00  0.00    -0.083 Cl
HETATM    2  S   UNK N   1      34.259  17.646   7.855  0.00  0.00     0.266 S 
HETATM    3  O   UNK N   1      34.601  17.490   6.366  0.00  0.00    -0.200 OA
HETATM    4  O   UNK N   1      34.958  18.940   8.300  0.00  0.00    -0.200 OA
HETATM    5  N   UNK N   1      32.149  16.259   9.458  0.00  0.00    -0.344 N 
HETATM    6  N   UNK N   1      32.554  18.010   7.876  0.00  0.00    -0.269 N 
ATOM      7  HN  UNK N   1      32.198  18.765   7.290  1.00  0.00     0.180 HD
HETATM    8  C   UNK N   1      34.533  16.213   8.835  0.00  0.00     0.108 A 
HETATM    9  C   UNK N   1      33.451  15.685   9.544  0.00  0.00     0.058 A 
HETATM   10  C   UNK N   1      35.775  15.579   8.857  0.00  0.00     0.054 A 
HETATM   11  C   UNK N   1      35.951  14.408   9.599  0.00  0.00     0.102 A 
HETATM   12  C   UNK N   1      31.730  17.341   8.619  0.00  0.00     0.100 A 
HETATM   13  C   UNK N   1      33.633  14.532  10.311  0.00  0.00     0.056 A 
HETATM   14  C   UNK N   1      34.875  13.888  10.345  0.00  0.00     0.059 A 
HETATM   15  H   UNK N   1      31.459  15.866  10.041  0.00  0.00     0.167 HD
ENDROOT
BRANCH  12  16
HETATM   16  C   UNK N   1      30.271  17.649   8.553  0.00  0.00     0.151 C 
BRANCH  16  17
HETATM   17  S   UNK N   1      29.581  17.346   6.902  0.00  0.00    -0.157 SA
BRANCH  17  18
HETATM   18  C   UNK N   1      28.058  18.260   7.293  0.00  0.00     0.112 C 
BRANCH  18  19
HETATM   19  C   UNK N   1      27.602  19.053   6.117  0.00  0.00    -0.049 A 
HETATM   20  C   UNK N   1      27.142  20.366   6.278  0.00  0.00     0.008 A 
HETATM   21  C   UNK N   1      26.713  21.097   5.168  0.00  0.00     0.001 A 
HETATM   22  C   UNK N   1      26.748  20.521   3.895  0.00  0.00     0.000 A 
HETATM   23  C   UNK N   1      27.213  19.213   3.732  0.00  0.00     0.001 A 
HETATM   24  C   UNK N   1      27.641  18.479   4.842  0.00  0.00     0.008 A 
ENDBRANCH  18  19
ENDBRANCH  17  18
ENDBRANCH  16  17
ENDBRANCH  12  16
BRANCH  11  25
HETATM   25  S   UNK N   1      37.519  13.544   9.488  0.00  0.00     0.258 S 
HETATM   26  O   UNK N   1      37.322  12.123   8.939  0.00  0.00    -0.201 OA
HETATM   27  O   UNK N   1      38.460  14.150   8.435  0.00  0.00    -0.201 OA
BRANCH  25  28
HETATM   28  N   UNK N   1      38.511  13.338  10.932  0.00  0.00    -0.324 N 
HETATM   29  H   UNK N   1      39.395  12.869  11.125  0.00  0.00     0.169 HD
HETATM   30  H   UNK N   1      38.112  13.788  11.755  0.00  0.00     0.169 HD
ENDBRANCH  25  28
ENDBRANCH  11  25
TORSDOF 6
ENDMDL
MODEL 6
REMARK VINA RESULT:      -7.0      9.510     12.987
REMARK  6 active torsions:
REMARK  status: ('A' for Active; 'I' for Inactive)
REMARK    1  A    between atoms: S_3  and  N_12 
REMARK    2  A    between atoms: S_3  and  C_16 
REMARK    3  A    between atoms: S_4  and  C_20 
REMARK    4  A    between atoms: S_4  and  C_21 
REMARK    5  A    between atoms: C_17  and  C_20 
REMARK    6  A    between atoms: C_21  and  C_22 
ROOT
HETATM    1 Cl   UNK N   1      34.945  12.347  11.110  0.00  0.00    -0.083 Cl
HETATM    2  S   UNK N   1      34.187  17.666   7.809  0.00  0.00     0.266 S 
HETATM    3  O   UNK N   1      34.610  17.566   6.335  0.00  0.00    -0.200 OA
HETATM    4  O   UNK N   1      34.820  18.966   8.328  0.00  0.00    -0.200 OA
HETATM    5  N   UNK N   1      32.043  16.164   9.258  0.00  0.00    -0.344 N 
HETATM    6  N   UNK N   1      32.472  17.976   7.751  0.00  0.00    -0.269 N 
ATOM      7  HN  UNK N   1      32.122  18.738   7.170  1.00  0.00     0.180 HD
HETATM    8  C   UNK N   1      34.456  16.212   8.759  0.00  0.00     0.108 A 
HETATM    9  C   UNK N   1      33.357  15.629   9.395  0.00  0.00     0.058 A 
HETATM   10  C   UNK N   1      35.715  15.615   8.827  0.00  0.00     0.054 A 
HETATM   11  C   UNK N   1      35.890  14.428   9.543  0.00  0.00     0.102 A 
HETATM   12  C   UNK N   1      31.633  17.259   8.430  0.00  0.00     0.100 A 
HETATM   13  C   UNK N   1      33.536  14.459  10.135  0.00  0.00     0.056 A 
HETATM   14  C   UNK N   1      34.795  13.852  10.215  0.00  0.00     0.059 A 
HETATM   15  H   UNK N   1      31.337  15.733   9.792  0.00  0.00     0.167 HD
ENDROOT
BRANCH  12  16
HETATM   16  C   UNK N   1      30.170  17.524   8.297  0.00  0.00     0.151 C 
BRANCH  16  17
HETATM   17  S   UNK N   1      29.648  17.624   6.562  0.00  0.00    -0.157 SA
BRANCH  17  18
HETATM   18  C   UNK N   1      30.299  15.965   6.197  0.00  0.00     0.112 C 
BRANCH  18  19
HETATM   19  C   UNK N   1      31.316  16.026   5.109  0.00  0.00    -0.049 A 
HETATM   20  C   UNK N   1      31.429  17.165   4.303  0.00  0.00     0.008 A 
HETATM   21  C   UNK N   1      32.383  17.208   3.284  0.00  0.00     0.001 A 
HETATM   22  C   UNK N   1      33.229  16.115   3.071  0.00  0.00     0.000 A 
HETATM   23  C   UNK N   1      33.122  14.980   3.879  0.00  0.00     0.001 A 
HETATM   24  C   UNK N   1      32.166  14.935   4.899  0.00  0.00     0.008 A 
ENDBRANCH  18  19
ENDBRANCH  17  18
ENDBRANCH  16  17
ENDBRANCH  12  16
BRANCH  11  25
HETATM   25  S   UNK N   1      37.489  13.616   9.488  0.00  0.00     0.258 S 
HETATM   26  O   UNK N   1      37.389  12.260   8.774  0.00  0.00    -0.201 OA
HETATM   27  O   UNK N   1      38.503  14.354   8.600  0.00  0.00    -0.201 OA
BRANCH  25  28
HETATM   28  N   UNK N   1      38.351  13.275  10.989  0.00  0.00    -0.324 N 
HETATM   29  H   UNK N   1      38.474  12.442  11.563  0.00  0.00     0.169 HD
HETATM   30  H   UNK N   1      38.832  14.092  11.365  0.00  0.00     0.169 HD
ENDBRANCH  25  28
ENDBRANCH  11  25
TORSDOF 6
ENDMDL
MODEL 7
REMARK VINA RESULT:      -6.7      4.000      6.254
REMARK  6 active torsions:
REMARK  status: ('A' for Active; 'I' for Inactive)
REMARK    1  A    between atoms: S_3  and  N_12 
REMARK    2  A    between atoms: S_3  and  C_16 
REMARK    3  A    between atoms: S_4  and  C_20 
REMARK    4  A    between atoms: S_4  and  C_21 
REMARK    5  A    between atoms: C_17  and  C_20 
REMARK    6  A    between atoms: C_21  and  C_22 
ROOT
HETATM    1 Cl   UNK N   1      20.639  16.557   3.395  0.00  0.00    -0.083 Cl
HETATM    2  S   UNK N   1      25.991  19.670   4.589  0.00  0.00     0.266 S 
HETATM    3  O   UNK N   1      25.818  20.925   5.458  0.00  0.00    -0.200 OA
HETATM    4  O   UNK N   1      26.881  20.107   3.415  0.00  0.00    -0.200 OA
HETATM    5  N   UNK N   1      25.419  16.814   5.270  0.00  0.00    -0.344 N 
HETATM    6  N   UNK N   1      26.982  18.606   5.551  0.00  0.00    -0.269 N 
ATOM      7  HN  UNK N   1      27.855  18.958   5.945  1.00  0.00     0.180 HD
HETATM    8  C   UNK N   1      24.500  18.829   4.190  0.00  0.00     0.108 A 
HETATM    9  C   UNK N   1      24.383  17.487   4.559  0.00  0.00     0.058 A 
HETATM   10  C   UNK N   1      23.435  19.495   3.583  0.00  0.00     0.054 A 
HETATM   11  C   UNK N   1      22.239  18.819   3.329  0.00  0.00     0.102 A 
HETATM   12  C   UNK N   1      26.634  17.379   5.775  0.00  0.00     0.100 A 
HETATM   13  C   UNK N   1      23.199  16.801   4.279  0.00  0.00     0.056 A 
HETATM   14  C   UNK N   1      22.125  17.456   3.666  0.00  0.00     0.059 A 
HETATM   15  H   UNK N   1      25.284  15.852   5.432  0.00  0.00     0.167 HD
ENDROOT
BRANCH  12  16
HETATM   16  C   UNK N   1      27.485  16.527   6.658  0.00  0.00     0.151 C 
BRANCH  16  17
HETATM   17  S   UNK N   1      28.859  17.460   7.392  0.00  0.00    -0.157 SA
BRANCH  17  18
HETATM   18  C   UNK N   1      30.081  16.637   6.324  0.00  0.00     0.112 C 
BRANCH  18  19
HETATM   19  C   UNK N   1      31.463  17.063   6.680  0.00  0.00    -0.049 A 
HETATM   20  C   UNK N   1      32.483  17.044   5.721  0.00  0.00     0.008 A 
HETATM   21  C   UNK N   1      33.777  17.442   6.068  0.00  0.00     0.001 A 
HETATM   22  C   UNK N   1      34.052  17.865   7.372  0.00  0.00     0.000 A 
HETATM   23  C   UNK N   1      33.033  17.891   8.329  0.00  0.00     0.001 A 
HETATM   24  C   UNK N   1      31.739  17.491   7.983  0.00  0.00     0.008 A 
ENDBRANCH  18  19
ENDBRANCH  17  18
ENDBRANCH  16  17
ENDBRANCH  12  16
BRANCH  11  25
HETATM   25  S   UNK N   1      20.846  19.744   2.679  0.00  0.00     0.258 S 
HETATM   26  O   UNK N   1      19.520  19.053   3.029  0.00  0.00    -0.201 OA
HETATM   27  O   UNK N   1      20.668  21.110   3.359  0.00  0.00    -0.201 OA
BRANCH  25  28
HETATM   28  N   UNK N   1      20.743  20.072   0.949  0.00  0.00    -0.324 N 
HETATM   29  H   UNK N   1      20.961  20.879   0.365  0.00  0.00     0.169 HD
HETATM   30  H   UNK N   1      20.387  19.280   0.415  0.00  0.00     0.169 HD
ENDBRANCH  25  28
ENDBRANCH  11  25
TORSDOF 6
ENDMDL
MODEL 8
REMARK VINA RESULT:      -6.7     14.395     16.647
REMARK  6 active torsions:
REMARK  status: ('A' for Active; 'I' for Inactive)
REMARK    1  A    between atoms: S_3  and  N_12 
REMARK    2  A    between atoms: S_3  and  C_16 
REMARK    3  A    between atoms: S_4  and  C_20 
REMARK    4  A    between atoms: S_4  and  C_21 
REMARK    5  A    between atoms: C_17  and  C_20 
REMARK    6  A    between atoms: C_21  and  C_22 
ROOT
HETATM    1 Cl   UNK N   1      32.437  19.329  -7.234  0.00  0.00    -0.083 Cl
HETATM    2  S   UNK N   1      29.675  23.426  -3.318  0.00  0.00     0.266 S 
HETATM    3  O   UNK N   1      30.551  24.626  -2.930  0.00  0.00    -0.200 OA
HETATM    4  O   UNK N   1      29.078  22.914  -1.998  0.00  0.00    -0.200 OA
HETATM    5  N   UNK N   1      28.677  22.616  -6.019  0.00  0.00    -0.344 N 
HETATM    6  N   UNK N   1      28.337  24.125  -4.191  0.00  0.00    -0.269 N 
ATOM      7  HN  UNK N   1      27.817  24.896  -3.772  1.00  0.00     0.180 HD
HETATM    8  C   UNK N   1      30.454  22.239  -4.355  0.00  0.00     0.108 A 
HETATM    9  C   UNK N   1      29.861  21.951  -5.586  0.00  0.00     0.058 A 
HETATM   10  C   UNK N   1      31.665  21.649  -3.994  0.00  0.00     0.054 A 
HETATM   11  C   UNK N   1      32.294  20.752  -4.861  0.00  0.00     0.102 A 
HETATM   12  C   UNK N   1      27.990  23.685  -5.359  0.00  0.00     0.100 A 
HETATM   13  C   UNK N   1      30.472  21.032  -6.442  0.00  0.00     0.056 A 
HETATM   14  C   UNK N   1      31.685  20.429  -6.090  0.00  0.00     0.059 A 
HETATM   15  H   UNK N   1      28.288  22.306  -6.869  0.00  0.00     0.167 HD
ENDROOT
BRANCH  12  16
HETATM   16  C   UNK N   1      26.878  24.360  -6.093  0.00  0.00     0.151 C 
BRANCH  16  17
HETATM   17  S   UNK N   1      25.579  24.953  -4.973  0.00  0.00    -0.157 SA
BRANCH  17  18
HETATM   18  C   UNK N   1      25.258  26.415  -6.007  0.00  0.00     0.112 C 
BRANCH  18  19
HETATM   19  C   UNK N   1      25.975  27.606  -5.473  0.00  0.00    -0.049 A 
HETATM   20  C   UNK N   1      25.592  28.183  -4.256  0.00  0.00     0.008 A 
HETATM   21  C   UNK N   1      26.270  29.302  -3.768  0.00  0.00     0.001 A 
HETATM   22  C   UNK N   1      27.336  29.845  -4.492  0.00  0.00     0.000 A 
HETATM   23  C   UNK N   1      27.725  29.266  -5.704  0.00  0.00     0.001 A 
HETATM   24  C   UNK N   1      27.046  28.147  -6.194  0.00  0.00     0.008 A 
ENDBRANCH  18  19
ENDBRANCH  17  18
ENDBRANCH  16  17
ENDBRANCH  12  16
BRANCH  11  25
HETATM   25  S   UNK N   1      33.917  20.124  -4.425  0.00  0.00     0.258 S 
HETATM   26  O   UNK N   1      34.406  20.742  -3.107  0.00  0.00    -0.201 OA
HETATM   27  O   UNK N   1      33.903  18.628  -4.075  0.00  0.00    -0.201 OA
BRANCH  25  28
HETATM   28  N   UNK N   1      35.264  20.324  -5.546  0.00  0.00    -0.324 N 
HETATM   29  H   UNK N   1      36.140  20.846  -5.518  0.00  0.00     0.169 HD
HETATM   30  H   UNK N   1      35.140  19.803  -6.414  0.00  0.00     0.169 HD
ENDBRANCH  25  28
ENDBRANCH  11  25
TORSDOF 6
ENDMDL
MODEL 9
REMARK VINA RESULT:      -6.7      8.994     12.333
REMARK  6 active torsions:
REMARK  status: ('A' for Active; 'I' for Inactive)
REMARK    1  A    between atoms: S_3  and  N_12 
REMARK    2  A    between atoms: S_3  and  C_16 
REMARK    3  A    between atoms: S_4  and  C_20 
REMARK    4  A    between atoms: S_4  and  C_21 
REMARK    5  A    between atoms: C_17  and  C_20 
REMARK    6  A    between atoms: C_21  and  C_22 
ROOT
HETATM    1 Cl   UNK N   1      35.060  11.726  10.090  0.00  0.00    -0.083 Cl
HETATM    2  S   UNK N   1      33.747  17.480   7.871  0.00  0.00     0.266 S 
HETATM    3  O   UNK N   1      34.940  18.447   7.861  0.00  0.00    -0.200 OA
HETATM    4  O   UNK N   1      32.584  18.273   8.487  0.00  0.00    -0.200 OA
HETATM    5  N   UNK N   1      33.404  14.898   6.399  0.00  0.00    -0.344 N 
HETATM    6  N   UNK N   1      33.332  17.282   6.189  0.00  0.00    -0.269 N 
ATOM      7  HN  UNK N   1      33.187  18.110   5.610  1.00  0.00     0.180 HD
HETATM    8  C   UNK N   1      34.079  15.893   8.550  0.00  0.00     0.108 A 
HETATM    9  C   UNK N   1      33.855  14.774   7.746  0.00  0.00     0.058 A 
HETATM   10  C   UNK N   1      34.615  15.753   9.830  0.00  0.00     0.054 A 
HETATM   11  C   UNK N   1      34.924  14.484  10.325  0.00  0.00     0.102 A 
HETATM   12  C   UNK N   1      33.204  16.107   5.658  0.00  0.00     0.100 A 
HETATM   13  C   UNK N   1      34.136  13.502   8.250  0.00  0.00     0.056 A 
HETATM   14  C   UNK N   1      34.669  13.347   9.534  0.00  0.00     0.059 A 
HETATM   15  H   UNK N   1      33.207  14.058   5.925  0.00  0.00     0.167 HD
ENDROOT
BRANCH  12  16
HETATM   16  C   UNK N   1      32.910  15.991   4.199  0.00  0.00     0.151 C 
BRANCH  16  17
HETATM   17  S   UNK N   1      31.927  17.389   3.586  0.00  0.00    -0.157 SA
BRANCH  17  18
HETATM   18  C   UNK N   1      30.362  16.561   4.004  0.00  0.00     0.112 C 
BRANCH  18  19
HETATM   19  C   UNK N   1      29.604  17.349   5.016  0.00  0.00    -0.049 A 
HETATM   20  C   UNK N   1      28.653  18.296   4.616  0.00  0.00     0.008 A 
HETATM   21  C   UNK N   1      27.952  19.031   5.575  0.00  0.00     0.001 A 
HETATM   22  C   UNK N   1      28.196  18.817   6.936  0.00  0.00     0.000 A 
HETATM   23  C   UNK N   1      29.139  17.867   7.336  0.00  0.00     0.001 A 
HETATM   24  C   UNK N   1      29.842  17.132   6.378  0.00  0.00     0.008 A 
ENDBRANCH  18  19
ENDBRANCH  17  18
ENDBRANCH  16  17
ENDBRANCH  12  16
BRANCH  11  25
HETATM   25  S   UNK N   1      35.742  14.355  11.917  0.00  0.00     0.258 S 
HETATM   26  O   UNK N   1      35.994  15.747  12.517  0.00  0.00    -0.201 OA
HETATM   27  O   UNK N   1      34.854  13.714  12.994  0.00  0.00    -0.201 OA
BRANCH  25  28
HETATM   28  N   UNK N   1      37.292  13.522  12.041  0.00  0.00    -0.324 N 
HETATM   29  H   UNK N   1      37.567  12.550  12.176  0.00  0.00     0.169 HD
HETATM   30  H   UNK N   1      38.090  14.153  11.958  0.00  0.00     0.169 HD
ENDBRANCH  25  28
ENDBRANCH  11  25
TORSDOF 6
ENDMDL
