MODEL 1
REMARK VINA RESULT:      -8.3      0.000      0.000
REMARK  12 active torsions:
REMARK  status: ('A' for Active; 'I' for Inactive)
REMARK    1  A    between atoms: O_1  and  C_27 
REMARK    2  A    between atoms: O_4  and  C_32 
REMARK    3  A    between atoms: N_6  and  C_20 
REMARK    4  A    between atoms: N_6  and  C_22 
REMARK    5  A    between atoms: C_18  and  N_7 
REMARK       I    between atoms: N_7  and  C_24 
REMARK    6  A    between atoms: N_16  and  C_36 
REMARK       I    between atoms: N_17  and  C_37 
REMARK    7  A    between atoms: C_18  and  C_19 
REMARK    8  A    between atoms: C_18  and  C_27 
REMARK    9  A    between atoms: C_19  and  C_21 
REMARK   10  A    between atoms: C_21  and  C_32 
REMARK   11  A    between atoms: C_22  and  C_30 
REMARK   12  A    between atoms: C_23  and  C_24 
ROOT
HETATM    1  N   UNK N   1      27.798  17.648   3.964  0.00  0.00    -0.380 N 
HETATM    2  C   UNK N   1      28.089  16.389   3.319  0.00  0.00     0.150 C 
ENDROOT
BRANCH   1   3
HETATM    3  C   UNK N   1      26.555  18.324   3.787  0.00  0.00     0.030 A 
HETATM    4  C   UNK N   1      26.578  19.678   3.391  0.00  0.00     0.030 A 
HETATM    5  C   UNK N   1      25.417  20.394   3.195  0.00  0.00     0.019 A 
HETATM    6  C   UNK N   1      24.190  19.779   3.398  0.00  0.00     0.032 A 
HETATM    7  C   UNK N   1      24.140  18.429   3.798  0.00  0.00     0.019 A 
HETATM    8  C   UNK N   1      25.319  17.700   3.994  0.00  0.00     0.030 A 
BRANCH   6   9
HETATM    9  C   UNK N   1      22.963  20.518   3.108  0.00  0.00     0.252 C 
HETATM   10  O   UNK N   1      23.013  21.722   2.918  0.00  0.00    -0.268 OA
HETATM   11  N   UNK N   1      21.808  19.822   2.994  0.00  0.00    -0.343 N 
HETATM   12  H   UNK N   1      21.859  18.888   3.302  0.00  0.00     0.163 HD
BRANCH  11  13
HETATM   13  C   UNK N   1      20.505  20.225   2.494  0.00  0.00     0.183 C 
BRANCH  13  14
HETATM   14  C   UNK N   1      19.460  19.098   2.366  0.00  0.00     0.046 C 
BRANCH  14  15
HETATM   15  C   UNK N   1      20.172  17.743   2.403  0.00  0.00     0.112 C 
BRANCH  15  16
HETATM   16  C   UNK N   1      20.252  16.978   1.123  0.00  0.00     0.139 C 
HETATM   17  O   UNK N   1      20.128  15.764   1.140  0.00  0.00    -0.650 OA
BRANCH  16  18
HETATM   18  O   UNK N   1      20.313  17.626  -0.055  0.00  0.00    -0.776 OA
HETATM   19  H   UNK N   1      19.527  17.831  -0.520  0.00  0.00     0.167 HD
ENDBRANCH  16  18
ENDBRANCH  15  16
ENDBRANCH  14  15
ENDBRANCH  13  14
BRANCH  13  20
HETATM   20  C   UNK N   1      20.756  20.955   1.191  0.00  0.00     0.163 C 
HETATM   21  O   UNK N   1      21.236  20.361   0.233  0.00  0.00    -0.648 OA
BRANCH  20  22
HETATM   22  O   UNK N   1      20.490  22.267   1.080  0.00  0.00    -0.775 OA
HETATM   23  H   UNK N   1      19.611  22.578   1.177  0.00  0.00     0.167 HD
ENDBRANCH  20  22
ENDBRANCH  13  20
ENDBRANCH  11  13
ENDBRANCH   6   9
ENDBRANCH   1   3
BRANCH   1  24
HETATM   24  C   UNK N   1      28.728  18.322   4.835  0.00  0.00     0.181 C 
BRANCH  24  25
HETATM   25  C   UNK N   1      29.247  17.853   6.131  0.00  0.00     0.043 A 
HETATM   26  N   UNK N   1      30.329  17.059   6.018  0.00  0.00    -0.351 N 
HETATM   27  C   UNK N   1      30.943  16.532   7.087  0.00  0.00     0.122 A 
ATOM     28  HN  UNK N   1      30.693  16.851   5.088  1.00  0.00     0.166 HD
HETATM   29  C   UNK N   1      30.455  16.810   8.364  0.00  0.00     0.151 A 
HETATM   30  C   UNK N   1      32.055  15.718   6.933  0.00  0.00     0.145 A 
HETATM   31  N   UNK N   1      29.361  17.613   8.505  0.00  0.00    -0.348 N 
HETATM   32  N   UNK N   1      31.083  16.272   9.444  0.00  0.00    -0.174 N 
HETATM   33  C   UNK N   1      28.739  18.147   7.407  0.00  0.00     0.116 A 
ATOM     34  HN  UNK N   1      29.000  17.819   9.437  1.00  0.00     0.167 HD
HETATM   35  C   UNK N   1      32.177  15.470   9.279  0.00  0.00     0.679 A 
ATOM     36  HN  UNK N   1      30.734  16.467  10.383  1.00  0.00     0.186 HD
HETATM   37  N   UNK N   1      32.653  15.199   8.033  0.00  0.00    -0.175 N 
HETATM   38  N   UNK N   1      32.819  14.917  10.402  0.00  0.00    -0.234 N 
ATOM     39  HN  UNK N   1      33.472  14.599   7.926  1.00  0.00     0.186 HD
HETATM   40  H   UNK N   1      32.480  15.107  11.306  0.00  0.00     0.174 HD
HETATM   41  H   UNK N   1      33.607  14.339  10.283  0.00  0.00     0.174 HD
BRANCH  30  42
HETATM   42  N   UNK N   1      32.561  15.428   5.647  0.00  0.00    -0.383 N 
HETATM   43  H   UNK N   1      33.171  16.061   5.205  0.00  0.00     0.157 HD
HETATM   44  H   UNK N   1      32.302  14.595   5.192  0.00  0.00     0.157 HD
ENDBRANCH  30  42
ENDBRANCH  24  25
ENDBRANCH   1  24
TORSDOF 12
ENDMDL
MODEL 2
REMARK VINA RESULT:      -8.0      1.078      1.787
REMARK  12 active torsions:
REMARK  status: ('A' for Active; 'I' for Inactive)
REMARK    1  A    between atoms: O_1  and  C_27 
REMARK    2  A    between atoms: O_4  and  C_32 
REMARK    3  A    between atoms: N_6  and  C_20 
REMARK    4  A    between atoms: N_6  and  C_22 
REMARK    5  A    between atoms: C_18  and  N_7 
REMARK       I    between atoms: N_7  and  C_24 
REMARK    6  A    between atoms: N_16  and  C_36 
REMARK       I    between atoms: N_17  and  C_37 
REMARK    7  A    between atoms: C_18  and  C_19 
REMARK    8  A    between atoms: C_18  and  C_27 
REMARK    9  A    between atoms: C_19  and  C_21 
REMARK   10  A    between atoms: C_21  and  C_32 
REMARK   11  A    between atoms: C_22  and  C_30 
REMARK   12  A    between atoms: C_23  and  C_24 
ROOT
HETATM    1  N   UNK N   1      27.840  17.503   4.037  0.00  0.00    -0.380 N 
HETATM    2  C   UNK N   1      28.148  16.247   3.395  0.00  0.00     0.150 C 
ENDROOT
BRANCH   1   3
HETATM    3  C   UNK N   1      26.592  18.167   3.849  0.00  0.00     0.030 A 
HETATM    4  C   UNK N   1      26.606  19.527   3.476  0.00  0.00     0.030 A 
HETATM    5  C   UNK N   1      25.440  20.233   3.270  0.00  0.00     0.019 A 
HETATM    6  C   UNK N   1      24.218  19.600   3.441  0.00  0.00     0.032 A 
HETATM    7  C   UNK N   1      24.176  18.243   3.819  0.00  0.00     0.019 A 
HETATM    8  C   UNK N   1      25.361  17.525   4.024  0.00  0.00     0.030 A 
BRANCH   6   9
HETATM    9  C   UNK N   1      22.987  20.330   3.141  0.00  0.00     0.252 C 
HETATM   10  O   UNK N   1      23.034  21.527   2.916  0.00  0.00    -0.268 OA
HETATM   11  N   UNK N   1      21.832  19.629   3.057  0.00  0.00    -0.343 N 
HETATM   12  H   UNK N   1      21.886  18.705   3.391  0.00  0.00     0.163 HD
BRANCH  11  13
HETATM   13  C   UNK N   1      20.524  20.017   2.558  0.00  0.00     0.183 C 
BRANCH  13  14
HETATM   14  C   UNK N   1      19.492  18.879   2.432  0.00  0.00     0.046 C 
BRANCH  14  15
HETATM   15  C   UNK N   1      20.225  17.557   2.183  0.00  0.00     0.112 C 
BRANCH  15  16
HETATM   16  C   UNK N   1      19.917  16.834   0.913  0.00  0.00     0.139 C 
HETATM   17  O   UNK N   1      20.690  15.982   0.506  0.00  0.00    -0.650 OA
BRANCH  16  18
HETATM   18  O   UNK N   1      18.735  17.011   0.297  0.00  0.00    -0.776 OA
HETATM   19  H   UNK N   1      17.942  16.737   0.714  0.00  0.00     0.167 HD
ENDBRANCH  16  18
ENDBRANCH  15  16
ENDBRANCH  14  15
ENDBRANCH  13  14
BRANCH  13  20
HETATM   20  C   UNK N   1      20.766  20.747   1.253  0.00  0.00     0.163 C 
HETATM   21  O   UNK N   1      21.053  20.122   0.240  0.00  0.00    -0.648 OA
BRANCH  20  22
HETATM   22  O   UNK N   1      20.704  22.088   1.198  0.00  0.00    -0.775 OA
HETATM   23  H   UNK N   1      20.123  22.508   0.594  0.00  0.00     0.167 HD
ENDBRANCH  20  22
ENDBRANCH  13  20
ENDBRANCH  11  13
ENDBRANCH   6   9
ENDBRANCH   1   3
BRANCH   1  24
HETATM   24  C   UNK N   1      28.755  18.184   4.918  0.00  0.00     0.181 C 
BRANCH  24  25
HETATM   25  C   UNK N   1      30.099  17.748   5.330  0.00  0.00     0.043 A 
HETATM   26  N   UNK N   1      30.212  17.544   6.656  0.00  0.00    -0.351 N 
HETATM   27  C   UNK N   1      31.360  17.145   7.223  0.00  0.00     0.122 A 
ATOM     28  HN  UNK N   1      29.396  17.696   7.250  1.00  0.00     0.166 HD
HETATM   29  C   UNK N   1      32.482  16.932   6.422  0.00  0.00     0.151 A 
HETATM   30  C   UNK N   1      31.439  16.944   8.593  0.00  0.00     0.145 A 
HETATM   31  N   UNK N   1      32.393  17.132   5.074  0.00  0.00    -0.348 N 
HETATM   32  N   UNK N   1      33.644  16.529   7.003  0.00  0.00    -0.174 N 
HETATM   33  C   UNK N   1      31.216  17.539   4.504  0.00  0.00     0.116 A 
ATOM     34  HN  UNK N   1      33.212  16.977   4.485  1.00  0.00     0.167 HD
HETATM   35  C   UNK N   1      33.709  16.335   8.354  0.00  0.00     0.679 A 
ATOM     36  HN  UNK N   1      34.471  16.371   6.428  1.00  0.00     0.186 HD
HETATM   37  N   UNK N   1      32.615  16.543   9.136  0.00  0.00    -0.175 N 
HETATM   38  N   UNK N   1      34.915  15.919   8.947  0.00  0.00    -0.234 N 
ATOM     39  HN  UNK N   1      32.679  16.393  10.144  1.00  0.00     0.186 HD
HETATM   40  H   UNK N   1      35.712  15.767   8.389  0.00  0.00     0.174 HD
HETATM   41  H   UNK N   1      34.963  15.779   9.920  0.00  0.00     0.174 HD
BRANCH  30  42
HETATM   42  N   UNK N   1      30.312  17.156   9.416  0.00  0.00    -0.383 N 
HETATM   43  H   UNK N   1      30.375  17.763  10.188  0.00  0.00     0.157 HD
HETATM   44  H   UNK N   1      29.465  16.696   9.219  0.00  0.00     0.157 HD
ENDBRANCH  30  42
ENDBRANCH  24  25
ENDBRANCH   1  24
TORSDOF 12
ENDMDL
MODEL 3
REMARK VINA RESULT:      -7.7      5.809     11.385
REMARK  12 active torsions:
REMARK  status: ('A' for Active; 'I' for Inactive)
REMARK    1  A    between atoms: O_1  and  C_27 
REMARK    2  A    between atoms: O_4  and  C_32 
REMARK    3  A    between atoms: N_6  and  C_20 
REMARK    4  A    between atoms: N_6  and  C_22 
REMARK    5  A    between atoms: C_18  and  N_7 
REMARK       I    between atoms: N_7  and  C_24 
REMARK    6  A    between atoms: N_16  and  C_36 
REMARK       I    between atoms: N_17  and  C_37 
REMARK    7  A    between atoms: C_18  and  C_19 
REMARK    8  A    between atoms: C_18  and  C_27 
REMARK    9  A    between atoms: C_19  and  C_21 
REMARK   10  A    between atoms: C_21  and  C_32 
REMARK   11  A    between atoms: C_22  and  C_30 
REMARK   12  A    between atoms: C_23  and  C_24 
ROOT
HETATM    1  N   UNK N   1      26.762  20.323   5.609  0.00  0.00    -0.380 N 
HETATM    2  C   UNK N   1      26.326  21.246   6.630  0.00  0.00     0.150 C 
ENDROOT
BRANCH   1   3
HETATM    3  C   UNK N   1      27.796  19.368   5.837  0.00  0.00     0.030 A 
HETATM    4  C   UNK N   1      28.156  19.075   7.169  0.00  0.00     0.030 A 
HETATM    5  C   UNK N   1      29.141  18.158   7.466  0.00  0.00     0.019 A 
HETATM    6  C   UNK N   1      29.808  17.511   6.437  0.00  0.00     0.032 A 
HETATM    7  C   UNK N   1      29.471  17.790   5.097  0.00  0.00     0.019 A 
HETATM    8  C   UNK N   1      28.467  18.718   4.795  0.00  0.00     0.030 A 
BRANCH   6   9
HETATM    9  C   UNK N   1      30.794  16.480   6.760  0.00  0.00     0.252 C 
HETATM   10  O   UNK N   1      30.639  15.344   6.345  0.00  0.00    -0.268 OA
HETATM   11  N   UNK N   1      31.893  16.844   7.461  0.00  0.00    -0.343 N 
HETATM   12  H   UNK N   1      31.848  17.743   7.859  0.00  0.00     0.163 HD
BRANCH  11  13
HETATM   13  C   UNK N   1      33.127  16.126   7.725  0.00  0.00     0.183 C 
BRANCH  13  14
HETATM   14  C   UNK N   1      33.454  15.879   9.211  0.00  0.00     0.046 C 
BRANCH  14  15
HETATM   15  C   UNK N   1      34.949  15.577   9.356  0.00  0.00     0.112 C 
BRANCH  15  16
HETATM   16  C   UNK N   1      35.712  16.373  10.363  0.00  0.00     0.139 C 
HETATM   17  O   UNK N   1      35.644  17.591  10.341  0.00  0.00    -0.650 OA
BRANCH  16  18
HETATM   18  O   UNK N   1      36.350  15.758  11.375  0.00  0.00    -0.776 OA
HETATM   19  H   UNK N   1      37.177  15.344  11.227  0.00  0.00     0.167 HD
ENDBRANCH  16  18
ENDBRANCH  15  16
ENDBRANCH  14  15
ENDBRANCH  13  14
BRANCH  13  20
HETATM   20  C   UNK N   1      34.221  16.875   6.992  0.00  0.00     0.163 C 
HETATM   21  O   UNK N   1      34.781  16.364   6.030  0.00  0.00    -0.648 OA
BRANCH  20  22
HETATM   22  O   UNK N   1      34.616  18.090   7.409  0.00  0.00    -0.775 OA
HETATM   23  H   UNK N   1      35.440  18.437   7.130  0.00  0.00     0.167 HD
ENDBRANCH  20  22
ENDBRANCH  13  20
ENDBRANCH  11  13
ENDBRANCH   6   9
ENDBRANCH   1   3
BRANCH   1  24
HETATM   24  C   UNK N   1      26.193  20.286   4.285  0.00  0.00     0.181 C 
BRANCH  24  25
HETATM   25  C   UNK N   1      24.807  19.960   3.911  0.00  0.00     0.043 A 
HETATM   26  N   UNK N   1      24.323  18.875   4.544  0.00  0.00    -0.351 N 
HETATM   27  C   UNK N   1      23.079  18.421   4.334  0.00  0.00     0.122 A 
ATOM     28  HN  UNK N   1      24.922  18.382   5.207  1.00  0.00     0.166 HD
HETATM   29  C   UNK N   1      22.250  19.086   3.431  0.00  0.00     0.151 A 
HETATM   30  C   UNK N   1      22.613  17.299   5.005  0.00  0.00     0.145 A 
HETATM   31  N   UNK N   1      22.717  20.189   2.777  0.00  0.00    -0.348 N 
HETATM   32  N   UNK N   1      20.989  18.619   3.222  0.00  0.00    -0.174 N 
HETATM   33  C   UNK N   1      23.989  20.646   2.998  0.00  0.00     0.116 A 
ATOM     34  HN  UNK N   1      22.113  20.679   2.116  1.00  0.00     0.167 HD
HETATM   35  C   UNK N   1      20.543  17.513   3.888  0.00  0.00     0.679 A 
ATOM     36  HN  UNK N   1      20.374  19.097   2.563  1.00  0.00     0.186 HD
HETATM   37  N   UNK N   1      21.351  16.863   4.769  0.00  0.00    -0.175 N 
HETATM   38  N   UNK N   1      19.238  17.036   3.664  0.00  0.00    -0.234 N 
ATOM     39  HN  UNK N   1      21.004  16.039   5.260  1.00  0.00     0.186 HD
HETATM   40  H   UNK N   1      18.647  17.500   3.028  0.00  0.00     0.174 HD
HETATM   41  H   UNK N   1      18.916  16.240   4.144  0.00  0.00     0.174 HD
BRANCH  30  42
HETATM   42  N   UNK N   1      23.441  16.616   5.921  0.00  0.00    -0.383 N 
HETATM   43  H   UNK N   1      24.241  16.139   5.601  0.00  0.00     0.157 HD
HETATM   44  H   UNK N   1      23.219  16.614   6.880  0.00  0.00     0.157 HD
ENDBRANCH  30  42
ENDBRANCH  24  25
ENDBRANCH   1  24
TORSDOF 12
ENDMDL
MODEL 4
REMARK VINA RESULT:      -7.7      3.736      7.212
REMARK  12 active torsions:
REMARK  status: ('A' for Active; 'I' for Inactive)
REMARK    1  A    between atoms: O_1  and  C_27 
REMARK    2  A    between atoms: O_4  and  C_32 
REMARK    3  A    between atoms: N_6  and  C_20 
REMARK    4  A    between atoms: N_6  and  C_22 
REMARK    5  A    between atoms: C_18  and  N_7 
REMARK       I    between atoms: N_7  and  C_24 
REMARK    6  A    between atoms: N_16  and  C_36 
REMARK       I    between atoms: N_17  and  C_37 
REMARK    7  A    between atoms: C_18  and  C_19 
REMARK    8  A    between atoms: C_18  and  C_27 
REMARK    9  A    between atoms: C_19  and  C_21 
REMARK   10  A    between atoms: C_21  and  C_32 
REMARK   11  A    between atoms: C_22  and  C_30 
REMARK   12  A    between atoms: C_23  and  C_24 
ROOT
HETATM    1  N   UNK N   1      33.136  16.012   8.396  0.00  0.00    -0.380 N 
HETATM    2  C   UNK N   1      34.357  16.269   7.670  0.00  0.00     0.150 C 
ENDROOT
BRANCH   1   3
HETATM    3  C   UNK N   1      31.866  16.467   7.933  0.00  0.00     0.030 A 
HETATM    4  C   UNK N   1      31.307  15.852   6.793  0.00  0.00     0.030 A 
HETATM    5  C   UNK N   1      30.081  16.234   6.293  0.00  0.00     0.019 A 
HETATM    6  C   UNK N   1      29.376  17.254   6.914  0.00  0.00     0.032 A 
HETATM    7  C   UNK N   1      29.914  17.888   8.052  0.00  0.00     0.019 A 
HETATM    8  C   UNK N   1      31.158  17.498   8.563  0.00  0.00     0.030 A 
BRANCH   6   9
HETATM    9  C   UNK N   1      28.040  17.598   6.429  0.00  0.00     0.252 C 
HETATM   10  O   UNK N   1      27.162  16.752   6.425  0.00  0.00    -0.268 OA
HETATM   11  N   UNK N   1      27.804  18.879   6.059  0.00  0.00    -0.343 N 
HETATM   12  H   UNK N   1      28.610  19.437   5.972  0.00  0.00     0.163 HD
BRANCH  11  13
HETATM   13  C   UNK N   1      26.558  19.565   5.769  0.00  0.00     0.183 C 
BRANCH  13  14
HETATM   14  C   UNK N   1      26.328  19.938   4.291  0.00  0.00     0.046 C 
BRANCH  14  15
HETATM   15  C   UNK N   1      24.843  19.771   3.953  0.00  0.00     0.112 C 
BRANCH  15  16
HETATM   16  C   UNK N   1      24.298  20.604   2.840  0.00  0.00     0.139 C 
HETATM   17  O   UNK N   1      25.006  20.859   1.879  0.00  0.00    -0.650 OA
BRANCH  16  18
HETATM   18  O   UNK N   1      22.999  20.950   2.820  0.00  0.00    -0.776 OA
HETATM   19  H   UNK N   1      22.380  20.482   3.345  0.00  0.00     0.167 HD
ENDBRANCH  16  18
ENDBRANCH  15  16
ENDBRANCH  14  15
ENDBRANCH  13  14
BRANCH  13  20
HETATM   20  C   UNK N   1      26.501  20.759   6.699  0.00  0.00     0.163 C 
HETATM   21  O   UNK N   1      26.436  21.894   6.243  0.00  0.00    -0.648 OA
BRANCH  20  22
HETATM   22  O   UNK N   1      26.558  20.592   8.031  0.00  0.00    -0.775 OA
HETATM   23  H   UNK N   1      25.772  20.607   8.540  0.00  0.00     0.167 HD
ENDBRANCH  20  22
ENDBRANCH  13  20
ENDBRANCH  11  13
ENDBRANCH   6   9
ENDBRANCH   1   3
BRANCH   1  24
HETATM   24  C   UNK N   1      33.095  15.278   9.635  0.00  0.00     0.181 C 
BRANCH  24  25
HETATM   25  C   UNK N   1      34.221  14.949  10.524  0.00  0.00     0.043 A 
HETATM   26  N   UNK N   1      34.204  13.675  10.961  0.00  0.00    -0.351 N 
HETATM   27  C   UNK N   1      35.147  13.189  11.781  0.00  0.00     0.122 A 
ATOM     28  HN  UNK N   1      33.449  13.060  10.657  1.00  0.00     0.166 HD
HETATM   29  C   UNK N   1      36.185  14.019  12.202  0.00  0.00     0.151 A 
HETATM   30  C   UNK N   1      35.097  11.871  12.211  0.00  0.00     0.145 A 
HETATM   31  N   UNK N   1      36.225  15.314  11.772  0.00  0.00    -0.348 N 
HETATM   32  N   UNK N   1      37.137  13.519  13.035  0.00  0.00    -0.174 N 
HETATM   33  C   UNK N   1      35.258  15.804  10.934  0.00  0.00     0.116 A 
ATOM     34  HN  UNK N   1      36.983  15.926  12.078  1.00  0.00     0.167 HD
HETATM   35  C   UNK N   1      37.076  12.220  13.452  0.00  0.00     0.679 A 
ATOM     36  HN  UNK N   1      37.901  14.117  13.350  1.00  0.00     0.186 HD
HETATM   37  N   UNK N   1      36.064  11.408  13.041  0.00  0.00    -0.175 N 
HETATM   38  N   UNK N   1      38.065  11.711  14.314  0.00  0.00    -0.234 N 
ATOM     39  HN  UNK N   1      36.032  10.439  13.360  1.00  0.00     0.186 HD
HETATM   40  H   UNK N   1      38.801  12.291  14.616  0.00  0.00     0.174 HD
HETATM   41  H   UNK N   1      38.022  10.775  14.615  0.00  0.00     0.174 HD
BRANCH  30  42
HETATM   42  N   UNK N   1      34.052  11.018  11.793  0.00  0.00    -0.383 N 
HETATM   43  H   UNK N   1      34.262  10.137  11.405  0.00  0.00     0.157 HD
HETATM   44  H   UNK N   1      33.116  11.303  11.887  0.00  0.00     0.157 HD
ENDBRANCH  30  42
ENDBRANCH  24  25
ENDBRANCH   1  24
TORSDOF 12
ENDMDL
MODEL 5
REMARK VINA RESULT:      -7.7      5.543     11.394
REMARK  12 active torsions:
REMARK  status: ('A' for Active; 'I' for Inactive)
REMARK    1  A    between atoms: O_1  and  C_27 
REMARK    2  A    between atoms: O_4  and  C_32 
REMARK    3  A    between atoms: N_6  and  C_20 
REMARK    4  A    between atoms: N_6  and  C_22 
REMARK    5  A    between atoms: C_18  and  N_7 
REMARK       I    between atoms: N_7  and  C_24 
REMARK    6  A    between atoms: N_16  and  C_36 
REMARK       I    between atoms: N_17  and  C_37 
REMARK    7  A    between atoms: C_18  and  C_19 
REMARK    8  A    between atoms: C_18  and  C_27 
REMARK    9  A    between atoms: C_19  and  C_21 
REMARK   10  A    between atoms: C_21  and  C_32 
REMARK   11  A    between atoms: C_22  and  C_30 
REMARK   12  A    between atoms: C_23  and  C_24 
ROOT
HETATM    1  N   UNK N   1      26.912  19.714   5.801  0.00  0.00    -0.380 N 
HETATM    2  C   UNK N   1      26.636  21.098   6.106  0.00  0.00     0.150 C 
ENDROOT
BRANCH   1   3
HETATM    3  C   UNK N   1      27.876  18.953   6.526  0.00  0.00     0.030 A 
HETATM    4  C   UNK N   1      28.067  19.241   7.894  0.00  0.00     0.030 A 
HETATM    5  C   UNK N   1      28.976  18.543   8.659  0.00  0.00     0.019 A 
HETATM    6  C   UNK N   1      29.733  17.536   8.077  0.00  0.00     0.032 A 
HETATM    7  C   UNK N   1      29.564  17.232   6.712  0.00  0.00     0.019 A 
HETATM    8  C   UNK N   1      28.638  17.939   5.934  0.00  0.00     0.030 A 
BRANCH   6   9
HETATM    9  C   UNK N   1      30.634  16.745   8.912  0.00  0.00     0.252 C 
HETATM   10  O   UNK N   1      30.253  16.338   9.997  0.00  0.00    -0.268 OA
HETATM   11  N   UNK N   1      31.855  16.431   8.418  0.00  0.00    -0.343 N 
HETATM   12  H   UNK N   1      32.107  16.923   7.603  0.00  0.00     0.163 HD
BRANCH  11  13
HETATM   13  C   UNK N   1      32.854  15.490   8.891  0.00  0.00     0.183 C 
BRANCH  13  14
HETATM   14  C   UNK N   1      34.309  15.797   8.484  0.00  0.00     0.046 C 
BRANCH  14  15
HETATM   15  C   UNK N   1      34.749  17.111   9.136  0.00  0.00     0.112 C 
BRANCH  15  16
HETATM   16  C   UNK N   1      34.766  18.330   8.272  0.00  0.00     0.139 C 
HETATM   17  O   UNK N   1      34.052  18.374   7.284  0.00  0.00    -0.650 OA
BRANCH  16  18
HETATM   18  O   UNK N   1      35.448  19.425   8.653  0.00  0.00    -0.776 OA
HETATM   19  H   UNK N   1      35.645  20.096   8.030  0.00  0.00     0.167 HD
ENDBRANCH  16  18
ENDBRANCH  15  16
ENDBRANCH  14  15
ENDBRANCH  13  14
BRANCH  13  20
HETATM   20  C   UNK N   1      32.390  14.117   8.450  0.00  0.00     0.163 C 
HETATM   21  O   UNK N   1      32.233  13.873   7.260  0.00  0.00    -0.648 OA
BRANCH  20  22
HETATM   22  O   UNK N   1      32.112  13.165   9.356  0.00  0.00    -0.775 OA
HETATM   23  H   UNK N   1      32.750  12.929  10.000  0.00  0.00     0.167 HD
ENDBRANCH  20  22
ENDBRANCH  13  20
ENDBRANCH  11  13
ENDBRANCH   6   9
ENDBRANCH   1   3
BRANCH   1  24
HETATM   24  C   UNK N   1      26.242  18.988   4.752  0.00  0.00     0.181 C 
BRANCH  24  25
HETATM   25  C   UNK N   1      24.933  19.285   4.147  0.00  0.00     0.043 A 
HETATM   26  N   UNK N   1      24.004  18.341   4.392  0.00  0.00    -0.351 N 
HETATM   27  C   UNK N   1      22.751  18.433   3.923  0.00  0.00     0.122 A 
ATOM     28  HN  UNK N   1      24.262  17.529   4.953  1.00  0.00     0.166 HD
HETATM   29  C   UNK N   1      22.386  19.539   3.156  0.00  0.00     0.151 A 
HETATM   30  C   UNK N   1      21.820  17.441   4.195  0.00  0.00     0.145 A 
HETATM   31  N   UNK N   1      23.309  20.510   2.895  0.00  0.00    -0.348 N 
HETATM   32  N   UNK N   1      21.113  19.626   2.683  0.00  0.00    -0.174 N 
HETATM   33  C   UNK N   1      24.587  20.408   3.378  0.00  0.00     0.116 A 
ATOM     34  HN  UNK N   1      23.045  21.321   2.334  1.00  0.00     0.167 HD
HETATM   35  C   UNK N   1      20.206  18.641   2.957  0.00  0.00     0.679 A 
ATOM     36  HN  UNK N   1      20.834  20.429   2.120  1.00  0.00     0.186 HD
HETATM   37  N   UNK N   1      20.562  17.562   3.706  0.00  0.00    -0.175 N 
HETATM   38  N   UNK N   1      18.892  18.739   2.463  0.00  0.00    -0.234 N 
ATOM     39  HN  UNK N   1      19.873  16.835   3.903  1.00  0.00     0.186 HD
HETATM   40  H   UNK N   1      18.627  19.516   1.920  0.00  0.00     0.174 HD
HETATM   41  H   UNK N   1      18.238  18.030   2.660  0.00  0.00     0.174 HD
BRANCH  30  42
HETATM   42  N   UNK N   1      22.176  16.316   4.970  0.00  0.00    -0.383 N 
HETATM   43  H   UNK N   1      22.900  16.385   5.633  0.00  0.00     0.157 HD
HETATM   44  H   UNK N   1      21.700  15.463   4.848  0.00  0.00     0.157 HD
ENDBRANCH  30  42
ENDBRANCH  24  25
ENDBRANCH   1  24
TORSDOF 12
ENDMDL
MODEL 6
REMARK VINA RESULT:      -7.6      1.596      1.878
REMARK  12 active torsions:
REMARK  status: ('A' for Active; 'I' for Inactive)
REMARK    1  A    between atoms: O_1  and  C_27 
REMARK    2  A    between atoms: O_4  and  C_32 
REMARK    3  A    between atoms: N_6  and  C_20 
REMARK    4  A    between atoms: N_6  and  C_22 
REMARK    5  A    between atoms: C_18  and  N_7 
REMARK       I    between atoms: N_7  and  C_24 
REMARK    6  A    between atoms: N_16  and  C_36 
REMARK       I    between atoms: N_17  and  C_37 
REMARK    7  A    between atoms: C_18  and  C_19 
REMARK    8  A    between atoms: C_18  and  C_27 
REMARK    9  A    between atoms: C_19  and  C_21 
REMARK   10  A    between atoms: C_21  and  C_32 
REMARK   11  A    between atoms: C_22  and  C_30 
REMARK   12  A    between atoms: C_23  and  C_24 
ROOT
HETATM    1  N   UNK N   1      27.957  16.289   4.244  0.00  0.00    -0.380 N 
HETATM    2  C   UNK N   1      28.265  14.973   3.737  0.00  0.00     0.150 C 
ENDROOT
BRANCH   1   3
HETATM    3  C   UNK N   1      26.617  16.759   4.380  0.00  0.00     0.030 A 
HETATM    4  C   UNK N   1      26.200  17.839   3.575  0.00  0.00     0.030 A 
HETATM    5  C   UNK N   1      24.919  18.342   3.646  0.00  0.00     0.019 A 
HETATM    6  C   UNK N   1      24.013  17.784   4.536  0.00  0.00     0.032 A 
HETATM    7  C   UNK N   1      24.406  16.707   5.355  0.00  0.00     0.019 A 
HETATM    8  C   UNK N   1      25.706  16.193   5.280  0.00  0.00     0.030 A 
BRANCH   6   9
HETATM    9  C   UNK N   1      22.633  18.267   4.548  0.00  0.00     0.252 C 
HETATM   10  O   UNK N   1      21.996  18.251   5.588  0.00  0.00    -0.268 OA
HETATM   11  N   UNK N   1      22.126  18.783   3.404  0.00  0.00    -0.343 N 
HETATM   12  H   UNK N   1      22.671  18.620   2.602  0.00  0.00     0.163 HD
BRANCH  11  13
HETATM   13  C   UNK N   1      20.908  19.538   3.166  0.00  0.00     0.183 C 
BRANCH  13  14
HETATM   14  C   UNK N   1      19.736  18.742   2.556  0.00  0.00     0.046 C 
BRANCH  14  15
HETATM   15  C   UNK N   1      20.185  17.300   2.299  0.00  0.00     0.112 C 
BRANCH  15  16
HETATM   16  C   UNK N   1      20.431  16.905   0.880  0.00  0.00     0.139 C 
HETATM   17  O   UNK N   1      20.372  17.751   0.002  0.00  0.00    -0.650 OA
BRANCH  16  18
HETATM   18  O   UNK N   1      20.858  15.665   0.582  0.00  0.00    -0.776 OA
HETATM   19  H   UNK N   1      21.676  15.542   0.142  0.00  0.00     0.167 HD
ENDBRANCH  16  18
ENDBRANCH  15  16
ENDBRANCH  14  15
ENDBRANCH  13  14
BRANCH  13  20
HETATM   20  C   UNK N   1      21.307  20.739   2.334  0.00  0.00     0.163 C 
HETATM   21  O   UNK N   1      20.994  20.802   1.151  0.00  0.00    -0.648 OA
BRANCH  20  22
HETATM   22  O   UNK N   1      22.036  21.731   2.871  0.00  0.00    -0.775 OA
HETATM   23  H   UNK N   1      21.907  22.615   2.589  0.00  0.00     0.167 HD
ENDBRANCH  20  22
ENDBRANCH  13  20
ENDBRANCH  11  13
ENDBRANCH   6   9
ENDBRANCH   1   3
BRANCH   1  24
HETATM   24  C   UNK N   1      28.967  17.232   4.656  0.00  0.00     0.181 C 
BRANCH  24  25
HETATM   25  C   UNK N   1      29.724  17.244   5.918  0.00  0.00     0.043 A 
HETATM   26  N   UNK N   1      31.059  17.199   5.741  0.00  0.00    -0.351 N 
HETATM   27  C   UNK N   1      31.916  17.200   6.772  0.00  0.00     0.122 A 
ATOM     28  HN  UNK N   1      31.429  17.164   4.791  1.00  0.00     0.166 HD
HETATM   29  C   UNK N   1      31.422  17.249   8.075  0.00  0.00     0.151 A 
HETATM   30  C   UNK N   1      33.285  17.153   6.552  0.00  0.00     0.145 A 
HETATM   31  N   UNK N   1      30.073  17.296   8.280  0.00  0.00    -0.348 N 
HETATM   32  N   UNK N   1      32.298  17.249   9.116  0.00  0.00    -0.174 N 
HETATM   33  C   UNK N   1      29.204  17.295   7.221  0.00  0.00     0.116 A 
ATOM     34  HN  UNK N   1      29.707  17.332   9.232  1.00  0.00     0.167 HD
HETATM   35  C   UNK N   1      33.644  17.201   8.886  0.00  0.00     0.679 A 
ATOM     36  HN  UNK N   1      31.948  17.284  10.073  1.00  0.00     0.186 HD
HETATM   37  N   UNK N   1      34.127  17.153   7.615  0.00  0.00    -0.175 N 
HETATM   38  N   UNK N   1      34.542  17.200   9.969  0.00  0.00    -0.234 N 
ATOM     39  HN  UNK N   1      35.135  17.119   7.459  1.00  0.00     0.186 HD
HETATM   40  H   UNK N   1      34.201  17.234  10.892  0.00  0.00     0.174 HD
HETATM   41  H   UNK N   1      35.512  17.166   9.804  0.00  0.00     0.174 HD
BRANCH  30  42
HETATM   42  N   UNK N   1      33.800  17.103   5.238  0.00  0.00    -0.383 N 
HETATM   43  H   UNK N   1      33.384  17.641   4.527  0.00  0.00     0.157 HD
HETATM   44  H   UNK N   1      34.574  16.531   5.034  0.00  0.00     0.157 HD
ENDBRANCH  30  42
ENDBRANCH  24  25
ENDBRANCH   1  24
TORSDOF 12
ENDMDL
MODEL 7
REMARK VINA RESULT:      -7.6     13.223     18.035
REMARK  12 active torsions:
REMARK  status: ('A' for Active; 'I' for Inactive)
REMARK    1  A    between atoms: O_1  and  C_27 
REMARK    2  A    between atoms: O_4  and  C_32 
REMARK    3  A    between atoms: N_6  and  C_20 
REMARK    4  A    between atoms: N_6  and  C_22 
REMARK    5  A    between atoms: C_18  and  N_7 
REMARK       I    between atoms: N_7  and  C_24 
REMARK    6  A    between atoms: N_16  and  C_36 
REMARK       I    between atoms: N_17  and  C_37 
REMARK    7  A    between atoms: C_18  and  C_19 
REMARK    8  A    between atoms: C_18  and  C_27 
REMARK    9  A    between atoms: C_19  and  C_21 
REMARK   10  A    between atoms: C_21  and  C_32 
REMARK   11  A    between atoms: C_22  and  C_30 
REMARK   12  A    between atoms: C_23  and  C_24 
ROOT
HETATM    1  N   UNK N   1      35.986  11.739  14.014  0.00  0.00    -0.380 N 
HETATM    2  C   UNK N   1      37.093  11.059  13.384  0.00  0.00     0.150 C 
ENDROOT
BRANCH   1   3
HETATM    3  C   UNK N   1      35.784  11.718  15.425  0.00  0.00     0.030 A 
HETATM    4  C   UNK N   1      36.192  10.576  16.145  0.00  0.00     0.030 A 
HETATM    5  C   UNK N   1      36.035  10.487  17.511  0.00  0.00     0.019 A 
HETATM    6  C   UNK N   1      35.454  11.540  18.203  0.00  0.00     0.032 A 
HETATM    7  C   UNK N   1      35.034  12.691  17.507  0.00  0.00     0.019 A 
HETATM    8  C   UNK N   1      35.197  12.783  16.119  0.00  0.00     0.030 A 
BRANCH   6   9
HETATM    9  C   UNK N   1      35.366  11.475  19.661  0.00  0.00     0.252 C 
HETATM   10  O   UNK N   1      35.522  12.488  20.322  0.00  0.00    -0.268 OA
HETATM   11  N   UNK N   1      35.044  10.290  20.230  0.00  0.00    -0.343 N 
HETATM   12  H   UNK N   1      35.078   9.518  19.620  0.00  0.00     0.163 HD
BRANCH  11  13
HETATM   13  C   UNK N   1      34.658   9.968  21.593  0.00  0.00     0.183 C 
BRANCH  13  14
HETATM   14  C   UNK N   1      34.785   8.484  21.992  0.00  0.00     0.046 C 
BRANCH  14  15
HETATM   15  C   UNK N   1      35.100   7.652  20.746  0.00  0.00     0.112 C 
BRANCH  15  16
HETATM   16  C   UNK N   1      33.945   7.054  20.013  0.00  0.00     0.139 C 
HETATM   17  O   UNK N   1      33.771   5.846  20.050  0.00  0.00    -0.650 OA
BRANCH  16  18
HETATM   18  O   UNK N   1      33.019   7.843  19.440  0.00  0.00    -0.776 OA
HETATM   19  H   UNK N   1      32.215   7.477  19.129  0.00  0.00     0.167 HD
ENDBRANCH  16  18
ENDBRANCH  15  16
ENDBRANCH  14  15
ENDBRANCH  13  14
BRANCH  13  20
HETATM   20  C   UNK N   1      33.260  10.518  21.782  0.00  0.00     0.163 C 
HETATM   21  O   UNK N   1      32.284   9.826  21.516  0.00  0.00    -0.648 OA
BRANCH  20  22
HETATM   22  O   UNK N   1      33.071  11.779  22.207  0.00  0.00    -0.775 OA
HETATM   23  H   UNK N   1      32.783  12.438  21.607  0.00  0.00     0.167 HD
ENDBRANCH  20  22
ENDBRANCH  13  20
ENDBRANCH  11  13
ENDBRANCH   6   9
ENDBRANCH   1   3
BRANCH   1  24
HETATM   24  C   UNK N   1      35.002  12.492  13.278  0.00  0.00     0.181 C 
BRANCH  24  25
HETATM   25  C   UNK N   1      35.198  13.755  12.547  0.00  0.00     0.043 A 
HETATM   26  N   UNK N   1      34.296  13.950  11.566  0.00  0.00    -0.351 N 
HETATM   27  C   UNK N   1      34.313  15.042  10.788  0.00  0.00     0.122 A 
ATOM     28  HN  UNK N   1      33.577  13.243  11.409  1.00  0.00     0.166 HD
HETATM   29  C   UNK N   1      35.290  16.015  10.993  0.00  0.00     0.151 A 
HETATM   30  C   UNK N   1      33.368  15.210   9.786  0.00  0.00     0.145 A 
HETATM   31  N   UNK N   1      36.214  15.841  11.982  0.00  0.00    -0.348 N 
HETATM   32  N   UNK N   1      35.301  17.120  10.199  0.00  0.00    -0.174 N 
HETATM   33  C   UNK N   1      36.191  14.722  12.772  0.00  0.00     0.116 A 
ATOM     34  HN  UNK N   1      36.931  16.551  12.135  1.00  0.00     0.167 HD
HETATM   35  C   UNK N   1      34.366  17.273   9.215  0.00  0.00     0.679 A 
ATOM     36  HN  UNK N   1      36.012  17.838  10.339  1.00  0.00     0.186 HD
HETATM   37  N   UNK N   1      33.411  16.324   9.015  0.00  0.00    -0.175 N 
HETATM   38  N   UNK N   1      34.385  18.419   8.399  0.00  0.00    -0.234 N 
ATOM     39  HN  UNK N   1      32.719  16.452   8.276  1.00  0.00     0.186 HD
HETATM   40  H   UNK N   1      35.072  19.110   8.536  0.00  0.00     0.174 HD
HETATM   41  H   UNK N   1      33.712  18.529   7.689  0.00  0.00     0.174 HD
BRANCH  30  42
HETATM   42  N   UNK N   1      32.372  14.233   9.567  0.00  0.00    -0.383 N 
HETATM   43  H   UNK N   1      31.433  14.505   9.452  0.00  0.00     0.157 HD
HETATM   44  H   UNK N   1      32.616  13.280   9.530  0.00  0.00     0.157 HD
ENDBRANCH  30  42
ENDBRANCH  24  25
ENDBRANCH   1  24
TORSDOF 12
ENDMDL
MODEL 8
REMARK VINA RESULT:      -7.5      3.351      6.510
REMARK  12 active torsions:
REMARK  status: ('A' for Active; 'I' for Inactive)
REMARK    1  A    between atoms: O_1  and  C_27 
REMARK    2  A    between atoms: O_4  and  C_32 
REMARK    3  A    between atoms: N_6  and  C_20 
REMARK    4  A    between atoms: N_6  and  C_22 
REMARK    5  A    between atoms: C_18  and  N_7 
REMARK       I    between atoms: N_7  and  C_24 
REMARK    6  A    between atoms: N_16  and  C_36 
REMARK       I    between atoms: N_17  and  C_37 
REMARK    7  A    between atoms: C_18  and  C_19 
REMARK    8  A    between atoms: C_18  and  C_27 
REMARK    9  A    between atoms: C_19  and  C_21 
REMARK   10  A    between atoms: C_21  and  C_32 
REMARK   11  A    between atoms: C_22  and  C_30 
REMARK   12  A    between atoms: C_23  and  C_24 
ROOT
HETATM    1  N   UNK N   1      33.591  15.273   5.882  0.00  0.00    -0.380 N 
HETATM    2  C   UNK N   1      33.954  13.974   5.366  0.00  0.00     0.150 C 
ENDROOT
BRANCH   1   3
HETATM    3  C   UNK N   1      32.285  15.821   5.714  0.00  0.00     0.030 A 
HETATM    4  C   UNK N   1      32.143  16.987   4.933  0.00  0.00     0.030 A 
HETATM    5  C   UNK N   1      30.912  17.569   4.721  0.00  0.00     0.019 A 
HETATM    6  C   UNK N   1      29.780  17.007   5.293  0.00  0.00     0.032 A 
HETATM    7  C   UNK N   1      29.896  15.845   6.081  0.00  0.00     0.019 A 
HETATM    8  C   UNK N   1      31.146  15.250   6.294  0.00  0.00     0.030 A 
BRANCH   6   9
HETATM    9  C   UNK N   1      28.469  17.581   4.997  0.00  0.00     0.252 C 
HETATM   10  O   UNK N   1      27.640  16.918   4.397  0.00  0.00    -0.268 OA
HETATM   11  N   UNK N   1      28.193  18.822   5.463  0.00  0.00    -0.343 N 
HETATM   12  H   UNK N   1      28.973  19.314   5.808  0.00  0.00     0.163 HD
BRANCH  11  13
HETATM   13  C   UNK N   1      26.937  19.547   5.537  0.00  0.00     0.183 C 
BRANCH  13  14
HETATM   14  C   UNK N   1      26.487  20.240   4.235  0.00  0.00     0.046 C 
BRANCH  14  15
HETATM   15  C   UNK N   1      25.038  19.847   3.930  0.00  0.00     0.112 C 
BRANCH  15  16
HETATM   16  C   UNK N   1      24.354  20.571   2.817  0.00  0.00     0.139 C 
HETATM   17  O   UNK N   1      23.374  21.256   3.060  0.00  0.00    -0.650 OA
BRANCH  16  18
HETATM   18  O   UNK N   1      24.893  20.591   1.585  0.00  0.00    -0.776 OA
HETATM   19  H   UNK N   1      25.511  19.935   1.331  0.00  0.00     0.167 HD
ENDBRANCH  16  18
ENDBRANCH  15  16
ENDBRANCH  14  15
ENDBRANCH  13  14
BRANCH  13  20
HETATM   20  C   UNK N   1      27.065  20.503   6.705  0.00  0.00     0.163 C 
HETATM   21  O   UNK N   1      27.267  21.695   6.508  0.00  0.00    -0.648 OA
BRANCH  20  22
HETATM   22  O   UNK N   1      26.994  20.052   7.969  0.00  0.00    -0.775 OA
HETATM   23  H   UNK N   1      27.771  19.770   8.411  0.00  0.00     0.167 HD
ENDBRANCH  20  22
ENDBRANCH  13  20
ENDBRANCH  11  13
ENDBRANCH   6   9
ENDBRANCH   1   3
BRANCH   1  24
HETATM   24  C   UNK N   1      34.506  16.117   6.608  0.00  0.00     0.181 C 
BRANCH  24  25
HETATM   25  C   UNK N   1      34.721  16.168   8.064  0.00  0.00     0.043 A 
HETATM   26  N   UNK N   1      35.464  15.147   8.531  0.00  0.00    -0.351 N 
HETATM   27  C   UNK N   1      35.766  15.020   9.831  0.00  0.00     0.122 A 
ATOM     28  HN  UNK N   1      35.809  14.447   7.874  1.00  0.00     0.166 HD
HETATM   29  C   UNK N   1      35.301  15.971  10.739  0.00  0.00     0.151 A 
HETATM   30  C   UNK N   1      36.534  13.955  10.277  0.00  0.00     0.145 A 
HETATM   31  N   UNK N   1      34.546  17.016  10.290  0.00  0.00    -0.348 N 
HETATM   32  N   UNK N   1      35.610  15.835  12.057  0.00  0.00    -0.174 N 
HETATM   33  C   UNK N   1      34.242  17.138   8.960  0.00  0.00     0.116 A 
ATOM     34  HN  UNK N   1      34.204  17.714  10.951  1.00  0.00     0.167 HD
HETATM   35  C   UNK N   1      36.367  14.781  12.484  0.00  0.00     0.679 A 
ATOM     36  HN  UNK N   1      35.275  16.524  12.731  1.00  0.00     0.186 HD
HETATM   37  N   UNK N   1      36.821  13.853  11.598  0.00  0.00    -0.175 N 
HETATM   38  N   UNK N   1      36.681  14.648  13.849  0.00  0.00    -0.234 N 
ATOM     39  HN  UNK N   1      37.386  13.071  11.932  1.00  0.00     0.186 HD
HETATM   40  H   UNK N   1      36.356  15.314  14.496  0.00  0.00     0.174 HD
HETATM   41  H   UNK N   1      37.226  13.888  14.157  0.00  0.00     0.174 HD
BRANCH  30  42
HETATM   42  N   UNK N   1      37.012  12.985   9.370  0.00  0.00    -0.383 N 
HETATM   43  H   UNK N   1      36.974  13.157   8.401  0.00  0.00     0.157 HD
HETATM   44  H   UNK N   1      37.383  12.137   9.705  0.00  0.00     0.157 HD
ENDBRANCH  30  42
ENDBRANCH  24  25
ENDBRANCH   1  24
TORSDOF 12
ENDMDL
MODEL 9
REMARK VINA RESULT:      -7.4     13.322     18.668
REMARK  12 active torsions:
REMARK  status: ('A' for Active; 'I' for Inactive)
REMARK    1  A    between atoms: O_1  and  C_27 
REMARK    2  A    between atoms: O_4  and  C_32 
REMARK    3  A    between atoms: N_6  and  C_20 
REMARK    4  A    between atoms: N_6  and  C_22 
REMARK    5  A    between atoms: C_18  and  N_7 
REMARK       I    between atoms: N_7  and  C_24 
REMARK    6  A    between atoms: N_16  and  C_36 
REMARK       I    between atoms: N_17  and  C_37 
REMARK    7  A    between atoms: C_18  and  C_19 
REMARK    8  A    between atoms: C_18  and  C_27 
REMARK    9  A    between atoms: C_19  and  C_21 
REMARK   10  A    between atoms: C_21  and  C_32 
REMARK   11  A    between atoms: C_22  and  C_30 
REMARK   12  A    between atoms: C_23  and  C_24 
ROOT
HETATM    1  N   UNK N   1      35.851  11.538  13.968  0.00  0.00    -0.380 N 
HETATM    2  C   UNK N   1      36.905  10.773  13.345  0.00  0.00     0.150 C 
ENDROOT
BRANCH   1   3
HETATM    3  C   UNK N   1      35.676  11.581  15.383  0.00  0.00     0.030 A 
HETATM    4  C   UNK N   1      35.976  10.424  16.131  0.00  0.00     0.030 A 
HETATM    5  C   UNK N   1      35.837  10.393  17.502  0.00  0.00     0.019 A 
HETATM    6  C   UNK N   1      35.383  11.521  18.170  0.00  0.00     0.032 A 
HETATM    7  C   UNK N   1      35.073  12.688  17.445  0.00  0.00     0.019 A 
HETATM    8  C   UNK N   1      35.217  12.721  16.053  0.00  0.00     0.030 A 
BRANCH   6   9
HETATM    9  C   UNK N   1      35.317  11.509  19.631  0.00  0.00     0.252 C 
HETATM   10  O   UNK N   1      35.396  12.557  20.248  0.00  0.00    -0.268 OA
HETATM   11  N   UNK N   1      35.101  10.325  20.251  0.00  0.00    -0.343 N 
HETATM   12  H   UNK N   1      35.192   9.535  19.672  0.00  0.00     0.163 HD
BRANCH  11  13
HETATM   13  C   UNK N   1      34.759  10.029  21.631  0.00  0.00     0.183 C 
BRANCH  13  14
HETATM   14  C   UNK N   1      35.038   8.586  22.095  0.00  0.00     0.046 C 
BRANCH  14  15
HETATM   15  C   UNK N   1      36.445   8.512  22.695  0.00  0.00     0.112 C 
BRANCH  15  16
HETATM   16  C   UNK N   1      36.888   9.660  23.541  0.00  0.00     0.139 C 
HETATM   17  O   UNK N   1      37.784  10.387  23.144  0.00  0.00    -0.650 OA
BRANCH  16  18
HETATM   18  O   UNK N   1      36.214   9.982  24.660  0.00  0.00    -0.776 OA
HETATM   19  H   UNK N   1      36.532  10.661  25.221  0.00  0.00     0.167 HD
ENDBRANCH  16  18
ENDBRANCH  15  16
ENDBRANCH  14  15
ENDBRANCH  13  14
BRANCH  13  20
HETATM   20  C   UNK N   1      33.312  10.442  21.810  0.00  0.00     0.163 C 
HETATM   21  O   UNK N   1      32.410   9.712  21.418  0.00  0.00    -0.648 OA
BRANCH  20  22
HETATM   22  O   UNK N   1      33.002  11.625  22.365  0.00  0.00    -0.775 OA
HETATM   23  H   UNK N   1      33.019  11.726  23.297  0.00  0.00     0.167 HD
ENDBRANCH  20  22
ENDBRANCH  13  20
ENDBRANCH  11  13
ENDBRANCH   6   9
ENDBRANCH   1   3
BRANCH   1  24
HETATM   24  C   UNK N   1      34.897  12.320  13.222  0.00  0.00     0.181 C 
BRANCH  24  25
HETATM   25  C   UNK N   1      35.124  13.607  12.544  0.00  0.00     0.043 A 
HETATM   26  N   UNK N   1      34.291  13.818  11.507  0.00  0.00    -0.351 N 
HETATM   27  C   UNK N   1      34.344  14.933  10.764  0.00  0.00     0.122 A 
ATOM     28  HN  UNK N   1      33.596  13.107  11.279  1.00  0.00     0.166 HD
HETATM   29  C   UNK N   1      35.288  15.914  11.065  0.00  0.00     0.151 A 
HETATM   30  C   UNK N   1      33.470  15.117   9.703  0.00  0.00     0.145 A 
HETATM   31  N   UNK N   1      36.144  15.723  12.112  0.00  0.00    -0.348 N 
HETATM   32  N   UNK N   1      35.338  17.042  10.307  0.00  0.00    -0.174 N 
HETATM   33  C   UNK N   1      36.083  14.581  12.866  0.00  0.00     0.116 A 
ATOM     34  HN  UNK N   1      36.837  16.438  12.336  1.00  0.00     0.167 HD
HETATM   35  C   UNK N   1      34.472  17.211   9.264  0.00  0.00     0.679 A 
ATOM     36  HN  UNK N   1      36.025  17.766  10.517  1.00  0.00     0.186 HD
HETATM   37  N   UNK N   1      33.549  16.255   8.969  0.00  0.00    -0.175 N 
HETATM   38  N   UNK N   1      34.530  18.381   8.484  0.00  0.00    -0.234 N 
ATOM     39  HN  UNK N   1      32.908  16.395   8.187  1.00  0.00     0.186 HD
HETATM   40  H   UNK N   1      35.194  19.077   8.690  0.00  0.00     0.174 HD
HETATM   41  H   UNK N   1      33.906  18.503   7.732  0.00  0.00     0.174 HD
BRANCH  30  42
HETATM   42  N   UNK N   1      32.508  14.134   9.386  0.00  0.00    -0.383 N 
HETATM   43  H   UNK N   1      31.609  14.403   9.088  0.00  0.00     0.157 HD
HETATM   44  H   UNK N   1      32.735  13.179   9.463  0.00  0.00     0.157 HD
ENDBRANCH  30  42
ENDBRANCH  24  25
ENDBRANCH   1  24
TORSDOF 12
ENDMDL
