REMARK  12 active torsions:
REMARK  status: ('A' for Active; 'I' for Inactive)
REMARK    1  A    between atoms: O_1  and  C_27 
REMARK    2  A    between atoms: O_4  and  C_32 
REMARK    3  A    between atoms: N_6  and  C_20 
REMARK    4  A    between atoms: N_6  and  C_22 
REMARK    5  A    between atoms: C_18  and  N_7 
REMARK       I    between atoms: N_7  and  C_24 
REMARK    6  A    between atoms: N_16  and  C_36 
REMARK       I    between atoms: N_17  and  C_37 
REMARK    7  A    between atoms: C_18  and  C_19 
REMARK    8  A    between atoms: C_18  and  C_27 
REMARK    9  A    between atoms: C_19  and  C_21 
REMARK   10  A    between atoms: C_21  and  C_32 
REMARK   11  A    between atoms: C_22  and  C_30 
REMARK   12  A    between atoms: C_23  and  C_24 
ROOT
HETATM    1  N   UNK N   1       7.030   2.713   0.003  0.00  0.00    -0.380 N 
HETATM    2  C   UNK N   1       7.134   4.153  -0.000  0.00  0.00     0.150 C 
ENDROOT
BRANCH   1   3
HETATM    3  C   UNK N   1       8.178   1.867   0.021  0.00  0.00     0.030 A 
HETATM    4  C   UNK N   1       7.982   0.470   0.020  0.00  0.00     0.030 A 
HETATM    5  C   UNK N   1       9.043  -0.409   0.030  0.00  0.00     0.019 A 
HETATM    6  C   UNK N   1      10.340   0.083   0.051  0.00  0.00     0.032 A 
HETATM    7  C   UNK N   1      10.563   1.474   0.057  0.00  0.00     0.019 A 
HETATM    8  C   UNK N   1       9.485   2.368   0.043  0.00  0.00     0.030 A 
BRANCH   6   9
HETATM    9  C   UNK N   1      11.461  -0.853  -0.022  0.00  0.00     0.252 C 
HETATM   10  O   UNK N   1      11.245  -2.047  -0.141  0.00  0.00    -0.268 OA
HETATM   11  N   UNK N   1      12.717  -0.348  -0.022  0.00  0.00    -0.343 N 
HETATM   12  H   UNK N   1      12.777   0.605   0.216  0.00  0.00     0.163 HD
BRANCH  11  13
HETATM   13  C   UNK N   1      13.991  -0.981  -0.314  0.00  0.00     0.183 C 
BRANCH  13  14
HETATM   14  C   UNK N   1      14.266  -2.305   0.427  0.00  0.00     0.046 C 
BRANCH  14  15
HETATM   15  C   UNK N   1      13.446  -3.425  -0.220  0.00  0.00     0.112 C 
BRANCH  15  16
HETATM   16  C   UNK N   1      13.900  -4.828   0.017  0.00  0.00     0.139 C 
HETATM   17  O   UNK N   1      13.084  -5.735  -0.009  0.00  0.00    -0.650 OA
BRANCH  16  18
HETATM   18  O   UNK N   1      15.211  -5.113   0.113  0.00  0.00    -0.776 OA
HETATM   19  H   UNK N   1      15.495  -6.003   0.179  0.00  0.00     0.167 HD
ENDBRANCH  16  18
ENDBRANCH  15  16
ENDBRANCH  14  15
ENDBRANCH  13  14
BRANCH  13  20
HETATM   20  C   UNK N   1      15.055   0.069  -0.070  0.00  0.00     0.163 C 
HETATM   21  O   UNK N   1      14.741   1.245   0.068  0.00  0.00    -0.648 OA
BRANCH  20  22
HETATM   22  O   UNK N   1      16.355  -0.269  -0.038  0.00  0.00    -0.775 OA
HETATM   23  H   UNK N   1      16.605  -1.172  -0.015  0.00  0.00     0.167 HD
ENDBRANCH  20  22
ENDBRANCH  13  20
ENDBRANCH  11  13
ENDBRANCH   6   9
ENDBRANCH   1   3
BRANCH   1  24
HETATM   24  C   UNK N   1       5.770   2.013  -0.008  0.00  0.00     0.181 C 
BRANCH  24  25
HETATM   25  C   UNK N   1       4.418   2.595  -0.004  0.00  0.00     0.043 A 
HETATM   26  N   UNK N   1       3.438   1.671  -0.003  0.00  0.00    -0.351 N 
HETATM   27  C   UNK N   1       2.140   2.007  -0.001  0.00  0.00     0.122 A 
ATOM     28  HN  UNK N   1       3.692   0.683  -0.003  1.00  0.00     0.166 HD
HETATM   29  C   UNK N   1       1.780   3.354   0.000  0.00  0.00     0.151 A 
HETATM   30  C   UNK N   1       1.157   1.028  -0.000  0.00  0.00     0.145 A 
HETATM   31  N   UNK N   1       2.755   4.310   0.000  0.00  0.00    -0.348 N 
HETATM   32  N   UNK N   1       0.461   3.688   0.001  0.00  0.00    -0.174 N 
HETATM   33  C   UNK N   1       4.079   3.958  -0.002  0.00  0.00     0.116 A 
ATOM     34  HN  UNK N   1       2.496   5.297   0.001  1.00  0.00     0.167 HD
HETATM   35  C   UNK N   1      -0.497   2.714   0.001  0.00  0.00     0.679 A 
ATOM     36  HN  UNK N   1       0.186   4.670   0.001  1.00  0.00     0.186 HD
HETATM   37  N   UNK N   1      -0.147   1.399   0.000  0.00  0.00    -0.175 N 
HETATM   38  N   UNK N   1      -1.859   3.068   0.001  0.00  0.00    -0.234 N 
ATOM     39  HN  UNK N   1      -0.874   0.683   0.001  1.00  0.00     0.186 HD
HETATM   40  H   UNK N   1      -2.121   4.017   0.001  0.00  0.00     0.174 HD
HETATM   41  H   UNK N   1      -2.550   2.367   0.001  0.00  0.00     0.174 HD
BRANCH  30  42
HETATM   42  N   UNK N   1       1.506  -0.340  -0.001  0.00  0.00    -0.383 N 
HETATM   43  H   UNK N   1       0.801  -1.027  -0.001  0.00  0.00     0.157 HD
HETATM   44  H   UNK N   1       2.453  -0.607  -0.001  0.00  0.00     0.157 HD
ENDBRANCH  30  42
ENDBRANCH  24  25
ENDBRANCH   1  24
TORSDOF 12
