MODEL 1
REMARK VINA RESULT:      -6.9      0.000      0.000
REMARK  0 active torsions:
REMARK  status: ('A' for Active; 'I' for Inactive)
REMARK       I    between atoms: N_2  and  C_14 
REMARK       I    between atoms: N_3  and  C_14 
ROOT
HETATM    1  O   UNK N   1      34.368  17.684   6.640  0.00  0.00    -0.247 OA
HETATM    2  N   UNK N   1      32.087  17.297   6.757  0.00  0.00    -0.263 N 
HETATM    3  N   UNK N   1      33.411  18.546   8.385  0.00  0.00    -0.351 N 
HETATM    4  C   UNK N   1      32.136  16.527   5.476  0.00  0.00     0.054 A 
HETATM    5  C   UNK N   1      30.850  17.539   7.559  0.00  0.00     0.054 A 
HETATM    6  C   UNK N   1      31.044  15.905   4.775  0.00  0.00    -0.009 A 
HETATM    7  C   UNK N   1      29.512  17.087   7.281  0.00  0.00    -0.009 A 
HETATM    8  C   UNK N   1      29.655  15.844   5.135  0.00  0.00     0.014 A 
HETATM    9  C   UNK N   1      29.029  16.322   6.166  0.00  0.00     0.014 A 
HETATM   10  C   UNK N   1      33.394  16.368   4.835  0.00  0.00     0.031 A 
HETATM   11  C   UNK N   1      30.960  18.301   8.751  0.00  0.00     0.031 A 
HETATM   12  C   UNK N   1      31.274  15.230   3.562  0.00  0.00     0.014 A 
HETATM   13  C   UNK N   1      28.462  17.397   8.164  0.00  0.00     0.014 A 
HETATM   14  C   UNK N   1      33.320  17.836   7.241  0.00  0.00     0.325 C 
HETATM   15  C   UNK N   1      33.603  15.693   3.643  0.00  0.00     0.002 A 
HETATM   16  C   UNK N   1      29.912  18.602   9.607  0.00  0.00     0.002 A 
HETATM   17  C   UNK N   1      32.532  15.125   2.996  0.00  0.00     0.001 A 
HETATM   18  C   UNK N   1      28.651  18.141   9.314  0.00  0.00     0.001 A 
HETATM   19  H   UNK N   1      32.605  18.712   8.927  0.00  0.00     0.160 HD
HETATM   20  H   UNK N   1      34.283  18.897   8.678  0.00  0.00     0.160 HD
ENDROOT
TORSDOF 0
ENDMDL
MODEL 2
REMARK VINA RESULT:      -6.8      8.061     10.474
REMARK  0 active torsions:
REMARK  status: ('A' for Active; 'I' for Inactive)
REMARK       I    between atoms: N_2  and  C_14 
REMARK       I    between atoms: N_3  and  C_14 
ROOT
HETATM    1  O   UNK N   1      19.807  14.331   8.884  0.00  0.00    -0.247 OA
HETATM    2  N   UNK N   1      22.001  14.397   8.144  0.00  0.00    -0.263 N 
HETATM    3  N   UNK N   1      20.108  15.540   7.108  0.00  0.00    -0.351 N 
HETATM    4  C   UNK N   1      22.422  13.500   9.264  0.00  0.00     0.054 A 
HETATM    5  C   UNK N   1      22.920  14.953   7.106  0.00  0.00     0.054 A 
HETATM    6  C   UNK N   1      23.746  13.024   9.567  0.00  0.00    -0.009 A 
HETATM    7  C   UNK N   1      24.336  14.735   6.969  0.00  0.00    -0.009 A 
HETATM    8  C   UNK N   1      24.976  13.265   8.867  0.00  0.00     0.014 A 
HETATM    9  C   UNK N   1      25.216  13.960   7.798  0.00  0.00     0.014 A 
HETATM   10  C   UNK N   1      21.425  13.037  10.165  0.00  0.00     0.031 A 
HETATM   11  C   UNK N   1      22.374  15.803   6.110  0.00  0.00     0.031 A 
HETATM   12  C   UNK N   1      23.960  12.191  10.681  0.00  0.00     0.014 A 
HETATM   13  C   UNK N   1      25.046  15.330   5.911  0.00  0.00     0.014 A 
HETATM   14  C   UNK N   1      20.615  14.742   8.071  0.00  0.00     0.325 C 
HETATM   15  C   UNK N   1      21.655  12.212  11.254  0.00  0.00     0.002 A 
HETATM   16  C   UNK N   1      23.090  16.387   5.077  0.00  0.00     0.002 A 
HETATM   17  C   UNK N   1      22.936  11.790  11.519  0.00  0.00     0.001 A 
HETATM   18  C   UNK N   1      24.438  16.144   4.972  0.00  0.00     0.001 A 
HETATM   19  H   UNK N   1      20.700  15.912   6.415  0.00  0.00     0.160 HD
HETATM   20  H   UNK N   1      19.146  15.749   7.098  0.00  0.00     0.160 HD
ENDROOT
TORSDOF 0
ENDMDL
MODEL 3
REMARK VINA RESULT:      -6.7      2.378      4.354
REMARK  0 active torsions:
REMARK  status: ('A' for Active; 'I' for Inactive)
REMARK       I    between atoms: N_2  and  C_14 
REMARK       I    between atoms: N_3  and  C_14 
ROOT
HETATM    1  O   UNK N   1      28.137  17.737   8.730  0.00  0.00    -0.247 OA
HETATM    2  N   UNK N   1      29.964  17.543   7.321  0.00  0.00    -0.263 N 
HETATM    3  N   UNK N   1      30.052  17.819   9.745  0.00  0.00    -0.351 N 
HETATM    4  C   UNK N   1      29.058  17.429   6.136  0.00  0.00     0.054 A 
HETATM    5  C   UNK N   1      31.456  17.505   7.258  0.00  0.00     0.054 A 
HETATM    6  C   UNK N   1      29.423  17.248   4.756  0.00  0.00    -0.009 A 
HETATM    7  C   UNK N   1      32.291  17.370   6.094  0.00  0.00    -0.009 A 
HETATM    8  C   UNK N   1      30.732  17.157   4.171  0.00  0.00     0.014 A 
HETATM    9  C   UNK N   1      31.907  17.215   4.718  0.00  0.00     0.014 A 
HETATM   10  C   UNK N   1      27.656  17.500   6.354  0.00  0.00     0.031 A 
HETATM   11  C   UNK N   1      32.183  17.613   8.473  0.00  0.00     0.031 A 
HETATM   12  C   UNK N   1      28.427  17.144   3.768  0.00  0.00     0.014 A 
HETATM   13  C   UNK N   1      33.692  17.370   6.222  0.00  0.00     0.014 A 
HETATM   14  C   UNK N   1      29.347  17.701   8.600  0.00  0.00     0.325 C 
HETATM   15  C   UNK N   1      26.689  17.402   5.366  0.00  0.00     0.002 A 
HETATM   16  C   UNK N   1      33.565  17.605   8.581  0.00  0.00     0.002 A 
HETATM   17  C   UNK N   1      27.077  17.215   4.061  0.00  0.00     0.001 A 
HETATM   18  C   UNK N   1      34.327  17.488   7.444  0.00  0.00     0.001 A 
HETATM   19  H   UNK N   1      31.036  17.797   9.721  0.00  0.00     0.160 HD
HETATM   20  H   UNK N   1      29.582  17.926  10.603  0.00  0.00     0.160 HD
ENDROOT
TORSDOF 0
ENDMDL
MODEL 4
REMARK VINA RESULT:      -6.6      3.032      4.670
REMARK  0 active torsions:
REMARK  status: ('A' for Active; 'I' for Inactive)
REMARK       I    between atoms: N_2  and  C_14 
REMARK       I    between atoms: N_3  and  C_14 
ROOT
HETATM    1  O   UNK N   1      30.666  15.964   4.092  0.00  0.00    -0.247 OA
HETATM    2  N   UNK N   1      29.437  17.481   5.338  0.00  0.00    -0.263 N 
HETATM    3  N   UNK N   1      29.242  17.119   2.932  0.00  0.00    -0.351 N 
HETATM    4  C   UNK N   1      30.152  17.061   6.583  0.00  0.00     0.054 A 
HETATM    5  C   UNK N   1      28.372  18.526   5.280  0.00  0.00     0.054 A 
HETATM    6  C   UNK N   1      29.954  17.545   7.924  0.00  0.00    -0.009 A 
HETATM    7  C   UNK N   1      27.848  19.319   6.361  0.00  0.00    -0.009 A 
HETATM    8  C   UNK N   1      29.051  18.556   8.397  0.00  0.00     0.014 A 
HETATM    9  C   UNK N   1      28.194  19.289   7.755  0.00  0.00     0.014 A 
HETATM   10  C   UNK N   1      31.157  16.062   6.476  0.00  0.00     0.031 A 
HETATM   11  C   UNK N   1      27.774  18.809   4.024  0.00  0.00     0.031 A 
HETATM   12  C   UNK N   1      30.713  17.018   8.986  0.00  0.00     0.014 A 
HETATM   13  C   UNK N   1      26.848  20.277   6.118  0.00  0.00     0.014 A 
HETATM   14  C   UNK N   1      29.809  16.829   4.122  0.00  0.00     0.325 C 
HETATM   15  C   UNK N   1      31.899  15.560   7.533  0.00  0.00     0.002 A 
HETATM   16  C   UNK N   1      26.785  19.753   3.803  0.00  0.00     0.002 A 
HETATM   17  C   UNK N   1      31.671  16.038   8.801  0.00  0.00     0.001 A 
HETATM   18  C   UNK N   1      26.320  20.499   4.859  0.00  0.00     0.001 A 
HETATM   19  H   UNK N   1      28.540  17.807   2.876  0.00  0.00     0.160 HD
HETATM   20  H   UNK N   1      29.532  16.643   2.120  0.00  0.00     0.160 HD
ENDROOT
TORSDOF 0
ENDMDL
MODEL 5
REMARK VINA RESULT:      -6.6      2.352      5.796
REMARK  0 active torsions:
REMARK  status: ('A' for Active; 'I' for Inactive)
REMARK       I    between atoms: N_2  and  C_14 
REMARK       I    between atoms: N_3  and  C_14 
ROOT
HETATM    1  O   UNK N   1      27.470  17.966   5.381  0.00  0.00    -0.247 OA
HETATM    2  N   UNK N   1      29.740  17.575   5.626  0.00  0.00    -0.263 N 
HETATM    3  N   UNK N   1      28.500  17.525   3.523  0.00  0.00    -0.351 N 
HETATM    4  C   UNK N   1      29.633  17.787   7.102  0.00  0.00     0.054 A 
HETATM    5  C   UNK N   1      31.005  17.247   4.902  0.00  0.00     0.054 A 
HETATM    6  C   UNK N   1      30.686  17.739   8.083  0.00  0.00    -0.009 A 
HETATM    7  C   UNK N   1      32.320  17.062   5.457  0.00  0.00    -0.009 A 
HETATM    8  C   UNK N   1      32.081  17.455   7.898  0.00  0.00     0.014 A 
HETATM    9  C   UNK N   1      32.749  17.169   6.823  0.00  0.00     0.014 A 
HETATM   10  C   UNK N   1      28.354  18.077   7.648  0.00  0.00     0.031 A 
HETATM   11  C   UNK N   1      30.951  17.086   3.493  0.00  0.00     0.031 A 
HETATM   12  C   UNK N   1      30.402  17.983   9.439  0.00  0.00     0.014 A 
HETATM   13  C   UNK N   1      33.403  16.737   4.620  0.00  0.00     0.014 A 
HETATM   14  C   UNK N   1      28.538  17.697   4.862  0.00  0.00     0.325 C 
HETATM   15  C   UNK N   1      28.092  18.309   8.989  0.00  0.00     0.002 A 
HETATM   16  C   UNK N   1      32.031  16.771   2.683  0.00  0.00     0.002 A 
HETATM   17  C   UNK N   1      29.127  18.268   9.893  0.00  0.00     0.001 A 
HETATM   18  C   UNK N   1      33.268  16.589   3.251  0.00  0.00     0.001 A 
HETATM   19  H   UNK N   1      29.325  17.306   3.031  0.00  0.00     0.160 HD
HETATM   20  H   UNK N   1      27.648  17.619   3.039  0.00  0.00     0.160 HD
ENDROOT
TORSDOF 0
ENDMDL
MODEL 6
REMARK VINA RESULT:      -6.6      2.293      4.214
REMARK  0 active torsions:
REMARK  status: ('A' for Active; 'I' for Inactive)
REMARK       I    between atoms: N_2  and  C_14 
REMARK       I    between atoms: N_3  and  C_14 
ROOT
HETATM    1  O   UNK N   1      29.831  17.701   9.465  0.00  0.00    -0.247 OA
HETATM    2  N   UNK N   1      29.847  17.440   7.163  0.00  0.00    -0.263 N 
HETATM    3  N   UNK N   1      27.858  17.570   8.572  0.00  0.00    -0.351 N 
HETATM    4  C   UNK N   1      31.343  17.457   7.157  0.00  0.00     0.054 A 
HETATM    5  C   UNK N   1      28.992  17.294   5.948  0.00  0.00     0.054 A 
HETATM    6  C   UNK N   1      32.225  17.358   6.023  0.00  0.00    -0.009 A 
HETATM    7  C   UNK N   1      29.415  17.131   4.581  0.00  0.00    -0.009 A 
HETATM    8  C   UNK N   1      31.898  17.196   4.634  0.00  0.00     0.014 A 
HETATM    9  C   UNK N   1      30.747  17.095   4.045  0.00  0.00     0.014 A 
HETATM   10  C   UNK N   1      32.019  17.586   8.399  0.00  0.00     0.031 A 
HETATM   11  C   UNK N   1      27.582  17.308   6.111  0.00  0.00     0.031 A 
HETATM   12  C   UNK N   1      33.619  17.409   6.205  0.00  0.00     0.014 A 
HETATM   13  C   UNK N   1      28.462  16.990   3.557  0.00  0.00     0.014 A 
HETATM   14  C   UNK N   1      29.200  17.574   8.431  0.00  0.00     0.325 C 
HETATM   15  C   UNK N   1      33.395  17.628   8.559  0.00  0.00     0.002 A 
HETATM   16  C   UNK N   1      26.657  17.174   5.088  0.00  0.00     0.002 A 
HETATM   17  C   UNK N   1      34.203  17.546   7.451  0.00  0.00     0.001 A 
HETATM   18  C   UNK N   1      27.101  17.008   3.799  0.00  0.00     0.001 A 
HETATM   19  H   UNK N   1      27.280  17.472   7.782  0.00  0.00     0.160 HD
HETATM   20  H   UNK N   1      27.457  17.665   9.467  0.00  0.00     0.160 HD
ENDROOT
TORSDOF 0
ENDMDL
MODEL 7
REMARK VINA RESULT:      -6.6     12.372     13.416
REMARK  0 active torsions:
REMARK  status: ('A' for Active; 'I' for Inactive)
REMARK       I    between atoms: N_2  and  C_14 
REMARK       I    between atoms: N_3  and  C_14 
ROOT
HETATM    1  O   UNK N   1      35.512  14.241  18.527  0.00  0.00    -0.247 OA
HETATM    2  N   UNK N   1      35.295  11.976  18.095  0.00  0.00    -0.263 N 
HETATM    3  N   UNK N   1      34.921  13.062  20.250  0.00  0.00    -0.351 N 
HETATM    4  C   UNK N   1      35.682  12.196  16.667  0.00  0.00     0.054 A 
HETATM    5  C   UNK N   1      34.954  10.650  18.690  0.00  0.00     0.054 A 
HETATM    6  C   UNK N   1      35.782  11.218  15.616  0.00  0.00    -0.009 A 
HETATM    7  C   UNK N   1      34.944   9.364  18.043  0.00  0.00    -0.009 A 
HETATM    8  C   UNK N   1      35.565   9.799  15.677  0.00  0.00     0.014 A 
HETATM    9  C   UNK N   1      35.229   9.039  16.673  0.00  0.00     0.014 A 
HETATM   10  C   UNK N   1      35.995  13.518  16.252  0.00  0.00     0.031 A 
HETATM   11  C   UNK N   1      34.593  10.601  20.062  0.00  0.00     0.031 A 
HETATM   12  C   UNK N   1      36.148  11.611  14.316  0.00  0.00     0.014 A 
HETATM   13  C   UNK N   1      34.611   8.207  18.770  0.00  0.00     0.014 A 
HETATM   14  C   UNK N   1      35.252  13.127  18.942  0.00  0.00     0.325 C 
HETATM   15  C   UNK N   1      36.360  13.886  14.966  0.00  0.00     0.002 A 
HETATM   16  C   UNK N   1      34.261   9.451  20.761  0.00  0.00     0.002 A 
HETATM   17  C   UNK N   1      36.431  12.924  13.987  0.00  0.00     0.001 A 
HETATM   18  C   UNK N   1      34.276   8.241  20.111  0.00  0.00     0.001 A 
HETATM   19  H   UNK N   1      34.696  12.195  20.658  0.00  0.00     0.160 HD
HETATM   20  H   UNK N   1      34.905  13.882  20.794  0.00  0.00     0.160 HD
ENDROOT
TORSDOF 0
ENDMDL
MODEL 8
REMARK VINA RESULT:      -6.6     11.638     13.139
REMARK  0 active torsions:
REMARK  status: ('A' for Active; 'I' for Inactive)
REMARK       I    between atoms: N_2  and  C_14 
REMARK       I    between atoms: N_3  and  C_14 
ROOT
HETATM    1  O   UNK N   1      34.589  13.351  14.751  0.00  0.00    -0.247 OA
HETATM    2  N   UNK N   1      35.118  11.162  15.294  0.00  0.00    -0.263 N 
HETATM    3  N   UNK N   1      34.631  12.000  13.054  0.00  0.00    -0.351 N 
HETATM    4  C   UNK N   1      35.238  11.533  16.738  0.00  0.00     0.054 A 
HETATM    5  C   UNK N   1      35.330   9.788  14.748  0.00  0.00     0.054 A 
HETATM    6  C   UNK N   1      35.587  10.682  17.845  0.00  0.00    -0.009 A 
HETATM    7  C   UNK N   1      35.665   8.589  15.470  0.00  0.00    -0.009 A 
HETATM    8  C   UNK N   1      35.878   9.275  17.848  0.00  0.00     0.014 A 
HETATM    9  C   UNK N   1      35.902   8.417  16.876  0.00  0.00     0.014 A 
HETATM   10  C   UNK N   1      34.989  12.882  17.108  0.00  0.00     0.031 A 
HETATM   11  C   UNK N   1      35.192   9.592  13.348  0.00  0.00     0.031 A 
HETATM   12  C   UNK N   1      35.669  11.211  19.146  0.00  0.00     0.014 A 
HETATM   13  C   UNK N   1      35.811   7.368  14.787  0.00  0.00     0.014 A 
HETATM   14  C   UNK N   1      34.774  12.205  14.380  0.00  0.00     0.325 C 
HETATM   15  C   UNK N   1      35.069  13.384  18.397  0.00  0.00     0.002 A 
HETATM   16  C   UNK N   1      35.346   8.382  12.692  0.00  0.00     0.002 A 
HETATM   17  C   UNK N   1      35.419  12.542  19.426  0.00  0.00     0.001 A 
HETATM   18  C   UNK N   1      35.653   7.257  13.418  0.00  0.00     0.001 A 
HETATM   19  H   UNK N   1      34.765  11.101  12.677  0.00  0.00     0.160 HD
HETATM   20  H   UNK N   1      34.392  12.751  12.463  0.00  0.00     0.160 HD
ENDROOT
TORSDOF 0
ENDMDL
MODEL 9
REMARK VINA RESULT:      -6.5     14.159     15.183
REMARK  0 active torsions:
REMARK  status: ('A' for Active; 'I' for Inactive)
REMARK       I    between atoms: N_2  and  C_14 
REMARK       I    between atoms: N_3  and  C_14 
ROOT
HETATM    1  O   UNK N   1      26.494  22.667  -8.555  0.00  0.00    -0.247 OA
HETATM    2  N   UNK N   1      26.959  23.861  -6.626  0.00  0.00    -0.263 N 
HETATM    3  N   UNK N   1      25.188  24.367  -8.227  0.00  0.00    -0.351 N 
HETATM    4  C   UNK N   1      28.087  22.933  -6.305  0.00  0.00     0.054 A 
HETATM    5  C   UNK N   1      26.553  25.028  -5.788  0.00  0.00     0.054 A 
HETATM    6  C   UNK N   1      28.962  22.963  -5.162  0.00  0.00    -0.009 A 
HETATM    7  C   UNK N   1      27.147  25.488  -4.560  0.00  0.00    -0.009 A 
HETATM    8  C   UNK N   1      28.989  23.894  -4.068  0.00  0.00     0.014 A 
HETATM    9  C   UNK N   1      28.250  24.933  -3.826  0.00  0.00     0.014 A 
HETATM   10  C   UNK N   1      28.365  21.874  -7.211  0.00  0.00     0.031 A 
HETATM   11  C   UNK N   1      25.450  25.813  -6.217  0.00  0.00     0.031 A 
HETATM   12  C   UNK N   1      29.968  21.991  -5.014  0.00  0.00     0.014 A 
HETATM   13  C   UNK N   1      26.639  26.626  -3.909  0.00  0.00     0.014 A 
HETATM   14  C   UNK N   1      26.224  23.602  -7.824  0.00  0.00     0.325 C 
HETATM   15  C   UNK N   1      29.365  20.928  -7.051  0.00  0.00     0.002 A 
HETATM   16  C   UNK N   1      24.959  26.929  -5.558  0.00  0.00     0.002 A 
HETATM   17  C   UNK N   1      30.170  20.983  -5.939  0.00  0.00     0.001 A 
HETATM   18  C   UNK N   1      25.562  27.344  -4.396  0.00  0.00     0.001 A 
HETATM   19  H   UNK N   1      24.908  25.142  -7.688  0.00  0.00     0.160 HD
HETATM   20  H   UNK N   1      24.711  24.150  -9.061  0.00  0.00     0.160 HD
ENDROOT
TORSDOF 0
ENDMDL
