REMARK  0 active torsions:
REMARK  status: ('A' for Active; 'I' for Inactive)
REMARK       I    between atoms: N_2  and  C_14 
REMARK       I    between atoms: N_3  and  C_14 
ROOT
HETATM    1  O   UNK N   1       4.960  -2.434   0.003  0.00  0.00    -0.247 OA
HETATM    2  N   UNK N   1       3.880  -0.385   0.004  0.00  0.00    -0.263 N 
HETATM    3  N   UNK N   1       2.795  -2.572   0.009  0.00  0.00    -0.351 N 
HETATM    4  C   UNK N   1       5.196   0.326  -0.005  0.00  0.00     0.054 A 
HETATM    5  C   UNK N   1       2.548   0.290   0.012  0.00  0.00     0.054 A 
HETATM    6  C   UNK N   1       5.436   1.745   0.010  0.00  0.00    -0.009 A 
HETATM    7  C   UNK N   1       2.270   1.702  -0.002  0.00  0.00    -0.009 A 
HETATM    8  C   UNK N   1       4.487   2.823   0.012  0.00  0.00     0.014 A 
HETATM    9  C   UNK N   1       3.190   2.805  -0.001  0.00  0.00     0.014 A 
HETATM   10  C   UNK N   1       6.382  -0.456  -0.029  0.00  0.00     0.031 A 
HETATM   11  C   UNK N   1       1.383  -0.521   0.033  0.00  0.00     0.031 A 
HETATM   12  C   UNK N   1       6.753   2.240   0.015  0.00  0.00     0.014 A 
HETATM   13  C   UNK N   1       0.941   2.163  -0.009  0.00  0.00     0.014 A 
HETATM   14  C   UNK N   1       3.912  -1.814   0.005  0.00  0.00     0.325 C 
HETATM   15  C   UNK N   1       7.672   0.050  -0.030  0.00  0.00     0.002 A 
HETATM   16  C   UNK N   1       0.080  -0.049   0.032  0.00  0.00     0.002 A 
HETATM   17  C   UNK N   1       7.860   1.411  -0.001  0.00  0.00     0.001 A 
HETATM   18  C   UNK N   1      -0.144   1.306   0.005  0.00  0.00     0.001 A 
HETATM   19  H   UNK N   1       1.909  -2.143   0.012  0.00  0.00     0.160 HD
HETATM   20  H   UNK N   1       2.867  -3.554   0.009  0.00  0.00     0.160 HD
ENDROOT
TORSDOF 0
