REMARK  28 active torsions:
REMARK  status: ('A' for Active; 'I' for Inactive)
REMARK    1  A    between atoms: S_1  and  C_76 
REMARK    2  A    between atoms: S_2  and  C_77 
REMARK    3  A    between atoms: O_3  and  C_47 
REMARK    4  A    between atoms: O_4  and  C_48 
REMARK    5  A    between atoms: O_5  and  C_49 
REMARK    6  A    between atoms: O_6  and  C_50 
REMARK    7  A    between atoms: O_7  and  C_51 
REMARK    8  A    between atoms: O_7  and  C_63 
REMARK    9  A    between atoms: O_8  and  C_52 
REMARK   10  A    between atoms: O_8  and  C_64 
REMARK   11  A    between atoms: O_11  and  C_57 
REMARK   12  A    between atoms: O_12  and  C_58 
REMARK   13  A    between atoms: O_13  and  C_61 
REMARK   14  A    between atoms: O_14  and  C_62 
REMARK   15  A    between atoms: N_21  and  C_27 
REMARK   16  A    between atoms: N_22  and  C_28 
REMARK   17  A    between atoms: C_23  and  C_35 
REMARK   18  A    between atoms: C_24  and  C_36 
REMARK   19  A    between atoms: C_27  and  C_39 
REMARK   20  A    between atoms: C_28  and  C_40 
REMARK   21  A    between atoms: C_35  and  C_43 
REMARK   22  A    between atoms: C_36  and  C_44 
REMARK   23  A    between atoms: C_39  and  C_51 
REMARK   24  A    between atoms: C_40  and  C_52 
REMARK   25  A    between atoms: C_63  and  C_65 
REMARK   26  A    between atoms: C_64  and  C_66 
REMARK   27  A    between atoms: C_65  and  C_69 
REMARK   28  A    between atoms: C_66  and  C_69 
ROOT
HETATM    1  C   UNK N   1      -0.208   9.772  -0.341  0.00  0.00     0.080 A 
HETATM    2  C   UNK N   1       0.863   9.383  -1.156  0.00  0.00     0.026 A 
HETATM    3  C   UNK N   1      -0.808   8.840   0.510  0.00  0.00     0.026 A 
HETATM    4  C   UNK N   1       1.335   8.068  -1.113  0.00  0.00     0.002 A 
HETATM    5  C   UNK N   1      -0.341   7.523   0.547  0.00  0.00     0.002 A 
HETATM    6  C   UNK N   1       0.733   7.138  -0.261  0.00  0.00     0.000 A 
ENDROOT
BRANCH   1   7
HETATM    7  S   UNK N   1      -0.801  11.462  -0.367  0.00  0.00     0.137 S 
HETATM    8  O   UNK N   1      -0.423  12.505   0.946  0.00  0.00    -0.591 OA
HETATM    9  O   UNK N   1      -0.351  12.210  -1.632  0.00  0.00    -0.591 OA
HETATM   10  O   UNK N   1      -2.327  11.531  -0.509  0.00  0.00    -0.591 OA
ENDBRANCH   1   7
TORSDOF 28
