MODEL 1
REMARK VINA RESULT:      -5.0      0.000      0.000
REMARK  28 active torsions:
REMARK  status: ('A' for Active; 'I' for Inactive)
REMARK    1  A    between atoms: S_1  and  C_76 
REMARK    2  A    between atoms: S_2  and  C_77 
REMARK    3  A    between atoms: O_3  and  C_47 
REMARK    4  A    between atoms: O_4  and  C_48 
REMARK    5  A    between atoms: O_5  and  C_49 
REMARK    6  A    between atoms: O_6  and  C_50 
REMARK    7  A    between atoms: O_7  and  C_51 
REMARK    8  A    between atoms: O_7  and  C_63 
REMARK    9  A    between atoms: O_8  and  C_52 
REMARK   10  A    between atoms: O_8  and  C_64 
REMARK   11  A    between atoms: O_11  and  C_57 
REMARK   12  A    between atoms: O_12  and  C_58 
REMARK   13  A    between atoms: O_13  and  C_61 
REMARK   14  A    between atoms: O_14  and  C_62 
REMARK   15  A    between atoms: N_21  and  C_27 
REMARK   16  A    between atoms: N_22  and  C_28 
REMARK   17  A    between atoms: C_23  and  C_35 
REMARK   18  A    between atoms: C_24  and  C_36 
REMARK   19  A    between atoms: C_27  and  C_39 
REMARK   20  A    between atoms: C_28  and  C_40 
REMARK   21  A    between atoms: C_35  and  C_43 
REMARK   22  A    between atoms: C_36  and  C_44 
REMARK   23  A    between atoms: C_39  and  C_51 
REMARK   24  A    between atoms: C_40  and  C_52 
REMARK   25  A    between atoms: C_63  and  C_65 
REMARK   26  A    between atoms: C_64  and  C_66 
REMARK   27  A    between atoms: C_65  and  C_69 
REMARK   28  A    between atoms: C_66  and  C_69 
ROOT
HETATM    1  C   UNK N   1      22.112  13.368   9.853  0.00  0.00     0.080 A 
HETATM    2  C   UNK N   1      23.391  13.475   9.292  0.00  0.00     0.026 A 
HETATM    3  C   UNK N   1      21.917  12.590  10.997  0.00  0.00     0.026 A 
HETATM    4  C   UNK N   1      24.471  12.810   9.880  0.00  0.00     0.002 A 
HETATM    5  C   UNK N   1      22.996  11.919  11.580  0.00  0.00     0.002 A 
HETATM    6  C   UNK N   1      24.274  12.032  11.024  0.00  0.00     0.000 A 
ENDROOT
BRANCH   1   7
HETATM    7  S   UNK N   1      20.727  14.240   9.125  0.00  0.00     0.137 S 
HETATM    8  O   UNK N   1      20.826  15.942   8.907  0.00  0.00    -0.591 OA
HETATM    9  O   UNK N   1      20.346  13.669   7.749  0.00  0.00    -0.591 OA
HETATM   10  O   UNK N   1      19.429  14.010   9.910  0.00  0.00    -0.591 OA
ENDBRANCH   1   7
TORSDOF 28
ENDMDL
MODEL 2
REMARK VINA RESULT:      -5.0      0.074      1.533
REMARK  28 active torsions:
REMARK  status: ('A' for Active; 'I' for Inactive)
REMARK    1  A    between atoms: S_1  and  C_76 
REMARK    2  A    between atoms: S_2  and  C_77 
REMARK    3  A    between atoms: O_3  and  C_47 
REMARK    4  A    between atoms: O_4  and  C_48 
REMARK    5  A    between atoms: O_5  and  C_49 
REMARK    6  A    between atoms: O_6  and  C_50 
REMARK    7  A    between atoms: O_7  and  C_51 
REMARK    8  A    between atoms: O_7  and  C_63 
REMARK    9  A    between atoms: O_8  and  C_52 
REMARK   10  A    between atoms: O_8  and  C_64 
REMARK   11  A    between atoms: O_11  and  C_57 
REMARK   12  A    between atoms: O_12  and  C_58 
REMARK   13  A    between atoms: O_13  and  C_61 
REMARK   14  A    between atoms: O_14  and  C_62 
REMARK   15  A    between atoms: N_21  and  C_27 
REMARK   16  A    between atoms: N_22  and  C_28 
REMARK   17  A    between atoms: C_23  and  C_35 
REMARK   18  A    between atoms: C_24  and  C_36 
REMARK   19  A    between atoms: C_27  and  C_39 
REMARK   20  A    between atoms: C_28  and  C_40 
REMARK   21  A    between atoms: C_35  and  C_43 
REMARK   22  A    between atoms: C_36  and  C_44 
REMARK   23  A    between atoms: C_39  and  C_51 
REMARK   24  A    between atoms: C_40  and  C_52 
REMARK   25  A    between atoms: C_63  and  C_65 
REMARK   26  A    between atoms: C_64  and  C_66 
REMARK   27  A    between atoms: C_65  and  C_69 
REMARK   28  A    between atoms: C_66  and  C_69 
ROOT
HETATM    1  C   UNK N   1      22.167  13.351   9.882  0.00  0.00     0.080 A 
HETATM    2  C   UNK N   1      21.994  12.567  11.030  0.00  0.00     0.026 A 
HETATM    3  C   UNK N   1      23.433  13.466   9.303  0.00  0.00     0.026 A 
HETATM    4  C   UNK N   1      23.084  11.896  11.591  0.00  0.00     0.002 A 
HETATM    5  C   UNK N   1      24.525  12.801   9.869  0.00  0.00     0.002 A 
HETATM    6  C   UNK N   1      24.350  12.013  11.010  0.00  0.00     0.000 A 
ENDROOT
BRANCH   1   7
HETATM    7  S   UNK N   1      20.770  14.191   9.138  0.00  0.00     0.137 S 
HETATM    8  O   UNK N   1      20.851  15.889   8.882  0.00  0.00    -0.591 OA
HETATM    9  O   UNK N   1      20.393  13.585   7.777  0.00  0.00    -0.591 OA
HETATM   10  O   UNK N   1      19.477  13.965   9.932  0.00  0.00    -0.591 OA
ENDBRANCH   1   7
TORSDOF 28
ENDMDL
MODEL 3
REMARK VINA RESULT:      -4.9     12.127     13.100
REMARK  28 active torsions:
REMARK  status: ('A' for Active; 'I' for Inactive)
REMARK    1  A    between atoms: S_1  and  C_76 
REMARK    2  A    between atoms: S_2  and  C_77 
REMARK    3  A    between atoms: O_3  and  C_47 
REMARK    4  A    between atoms: O_4  and  C_48 
REMARK    5  A    between atoms: O_5  and  C_49 
REMARK    6  A    between atoms: O_6  and  C_50 
REMARK    7  A    between atoms: O_7  and  C_51 
REMARK    8  A    between atoms: O_7  and  C_63 
REMARK    9  A    between atoms: O_8  and  C_52 
REMARK   10  A    between atoms: O_8  and  C_64 
REMARK   11  A    between atoms: O_11  and  C_57 
REMARK   12  A    between atoms: O_12  and  C_58 
REMARK   13  A    between atoms: O_13  and  C_61 
REMARK   14  A    between atoms: O_14  and  C_62 
REMARK   15  A    between atoms: N_21  and  C_27 
REMARK   16  A    between atoms: N_22  and  C_28 
REMARK   17  A    between atoms: C_23  and  C_35 
REMARK   18  A    between atoms: C_24  and  C_36 
REMARK   19  A    between atoms: C_27  and  C_39 
REMARK   20  A    between atoms: C_28  and  C_40 
REMARK   21  A    between atoms: C_35  and  C_43 
REMARK   22  A    between atoms: C_36  and  C_44 
REMARK   23  A    between atoms: C_39  and  C_51 
REMARK   24  A    between atoms: C_40  and  C_52 
REMARK   25  A    between atoms: C_63  and  C_65 
REMARK   26  A    between atoms: C_64  and  C_66 
REMARK   27  A    between atoms: C_65  and  C_69 
REMARK   28  A    between atoms: C_66  and  C_69 
ROOT
HETATM    1  C   UNK N   1      34.527  16.698   9.395  0.00  0.00     0.080 A 
HETATM    2  C   UNK N   1      35.370  16.871  10.500  0.00  0.00     0.026 A 
HETATM    3  C   UNK N   1      33.813  15.507   9.245  0.00  0.00     0.026 A 
HETATM    4  C   UNK N   1      35.492  15.856  11.454  0.00  0.00     0.002 A 
HETATM    5  C   UNK N   1      33.941  14.489  10.195  0.00  0.00     0.002 A 
HETATM    6  C   UNK N   1      34.776  14.665  11.301  0.00  0.00     0.000 A 
ENDROOT
BRANCH   1   7
HETATM    7  S   UNK N   1      34.342  18.004   8.183  0.00  0.00     0.137 S 
HETATM    8  O   UNK N   1      34.604  17.650   6.521  0.00  0.00    -0.591 OA
HETATM    9  O   UNK N   1      32.954  18.660   8.252  0.00  0.00    -0.591 OA
HETATM   10  O   UNK N   1      35.251  19.201   8.487  0.00  0.00    -0.591 OA
ENDBRANCH   1   7
TORSDOF 28
ENDMDL
MODEL 4
REMARK VINA RESULT:      -4.9     12.141     13.065
REMARK  28 active torsions:
REMARK  status: ('A' for Active; 'I' for Inactive)
REMARK    1  A    between atoms: S_1  and  C_76 
REMARK    2  A    between atoms: S_2  and  C_77 
REMARK    3  A    between atoms: O_3  and  C_47 
REMARK    4  A    between atoms: O_4  and  C_48 
REMARK    5  A    between atoms: O_5  and  C_49 
REMARK    6  A    between atoms: O_6  and  C_50 
REMARK    7  A    between atoms: O_7  and  C_51 
REMARK    8  A    between atoms: O_7  and  C_63 
REMARK    9  A    between atoms: O_8  and  C_52 
REMARK   10  A    between atoms: O_8  and  C_64 
REMARK   11  A    between atoms: O_11  and  C_57 
REMARK   12  A    between atoms: O_12  and  C_58 
REMARK   13  A    between atoms: O_13  and  C_61 
REMARK   14  A    between atoms: O_14  and  C_62 
REMARK   15  A    between atoms: N_21  and  C_27 
REMARK   16  A    between atoms: N_22  and  C_28 
REMARK   17  A    between atoms: C_23  and  C_35 
REMARK   18  A    between atoms: C_24  and  C_36 
REMARK   19  A    between atoms: C_27  and  C_39 
REMARK   20  A    between atoms: C_28  and  C_40 
REMARK   21  A    between atoms: C_35  and  C_43 
REMARK   22  A    between atoms: C_36  and  C_44 
REMARK   23  A    between atoms: C_39  and  C_51 
REMARK   24  A    between atoms: C_40  and  C_52 
REMARK   25  A    between atoms: C_63  and  C_65 
REMARK   26  A    between atoms: C_64  and  C_66 
REMARK   27  A    between atoms: C_65  and  C_69 
REMARK   28  A    between atoms: C_66  and  C_69 
ROOT
HETATM    1  C   UNK N   1      34.531  16.622   9.401  0.00  0.00     0.080 A 
HETATM    2  C   UNK N   1      33.859  15.424   9.129  0.00  0.00     0.026 A 
HETATM    3  C   UNK N   1      35.320  16.731  10.550  0.00  0.00     0.026 A 
HETATM    4  C   UNK N   1      33.982  14.337  10.000  0.00  0.00     0.002 A 
HETATM    5  C   UNK N   1      35.436  15.648  11.425  0.00  0.00     0.002 A 
HETATM    6  C   UNK N   1      34.771  14.450  11.148  0.00  0.00     0.000 A 
ENDROOT
BRANCH   1   7
HETATM    7  S   UNK N   1      34.403  18.010   8.276  0.00  0.00     0.137 S 
HETATM    8  O   UNK N   1      35.382  19.398   8.540  0.00  0.00    -0.591 OA
HETATM    9  O   UNK N   1      34.660  17.594   6.819  0.00  0.00    -0.591 OA
HETATM   10  O   UNK N   1      32.967  18.542   8.184  0.00  0.00    -0.591 OA
ENDBRANCH   1   7
TORSDOF 28
ENDMDL
MODEL 5
REMARK VINA RESULT:      -4.7     11.296     12.041
REMARK  28 active torsions:
REMARK  status: ('A' for Active; 'I' for Inactive)
REMARK    1  A    between atoms: S_1  and  C_76 
REMARK    2  A    between atoms: S_2  and  C_77 
REMARK    3  A    between atoms: O_3  and  C_47 
REMARK    4  A    between atoms: O_4  and  C_48 
REMARK    5  A    between atoms: O_5  and  C_49 
REMARK    6  A    between atoms: O_6  and  C_50 
REMARK    7  A    between atoms: O_7  and  C_51 
REMARK    8  A    between atoms: O_7  and  C_63 
REMARK    9  A    between atoms: O_8  and  C_52 
REMARK   10  A    between atoms: O_8  and  C_64 
REMARK   11  A    between atoms: O_11  and  C_57 
REMARK   12  A    between atoms: O_12  and  C_58 
REMARK   13  A    between atoms: O_13  and  C_61 
REMARK   14  A    between atoms: O_14  and  C_62 
REMARK   15  A    between atoms: N_21  and  C_27 
REMARK   16  A    between atoms: N_22  and  C_28 
REMARK   17  A    between atoms: C_23  and  C_35 
REMARK   18  A    between atoms: C_24  and  C_36 
REMARK   19  A    between atoms: C_27  and  C_39 
REMARK   20  A    between atoms: C_28  and  C_40 
REMARK   21  A    between atoms: C_35  and  C_43 
REMARK   22  A    between atoms: C_36  and  C_44 
REMARK   23  A    between atoms: C_39  and  C_51 
REMARK   24  A    between atoms: C_40  and  C_52 
REMARK   25  A    between atoms: C_63  and  C_65 
REMARK   26  A    between atoms: C_64  and  C_66 
REMARK   27  A    between atoms: C_65  and  C_69 
REMARK   28  A    between atoms: C_66  and  C_69 
ROOT
HETATM    1  C   UNK N   1      32.278  17.657   7.751  0.00  0.00     0.080 A 
HETATM    2  C   UNK N   1      31.565  18.278   8.785  0.00  0.00     0.026 A 
HETATM    3  C   UNK N   1      31.588  16.993   6.734  0.00  0.00     0.026 A 
HETATM    4  C   UNK N   1      30.168  18.240   8.795  0.00  0.00     0.002 A 
HETATM    5  C   UNK N   1      30.191  16.948   6.748  0.00  0.00     0.002 A 
HETATM    6  C   UNK N   1      29.481  17.575   7.776  0.00  0.00     0.000 A 
ENDROOT
BRANCH   1   7
HETATM    7  S   UNK N   1      34.067  17.726   7.714  0.00  0.00     0.137 S 
HETATM    8  O   UNK N   1      34.867  19.118   8.327  0.00  0.00    -0.591 OA
HETATM    9  O   UNK N   1      34.704  16.530   8.440  0.00  0.00    -0.591 OA
HETATM   10  O   UNK N   1      34.618  17.537   6.295  0.00  0.00    -0.591 OA
ENDBRANCH   1   7
TORSDOF 28
ENDMDL
MODEL 6
REMARK VINA RESULT:      -4.7     11.270     11.989
REMARK  28 active torsions:
REMARK  status: ('A' for Active; 'I' for Inactive)
REMARK    1  A    between atoms: S_1  and  C_76 
REMARK    2  A    between atoms: S_2  and  C_77 
REMARK    3  A    between atoms: O_3  and  C_47 
REMARK    4  A    between atoms: O_4  and  C_48 
REMARK    5  A    between atoms: O_5  and  C_49 
REMARK    6  A    between atoms: O_6  and  C_50 
REMARK    7  A    between atoms: O_7  and  C_51 
REMARK    8  A    between atoms: O_7  and  C_63 
REMARK    9  A    between atoms: O_8  and  C_52 
REMARK   10  A    between atoms: O_8  and  C_64 
REMARK   11  A    between atoms: O_11  and  C_57 
REMARK   12  A    between atoms: O_12  and  C_58 
REMARK   13  A    between atoms: O_13  and  C_61 
REMARK   14  A    between atoms: O_14  and  C_62 
REMARK   15  A    between atoms: N_21  and  C_27 
REMARK   16  A    between atoms: N_22  and  C_28 
REMARK   17  A    between atoms: C_23  and  C_35 
REMARK   18  A    between atoms: C_24  and  C_36 
REMARK   19  A    between atoms: C_27  and  C_39 
REMARK   20  A    between atoms: C_28  and  C_40 
REMARK   21  A    between atoms: C_35  and  C_43 
REMARK   22  A    between atoms: C_36  and  C_44 
REMARK   23  A    between atoms: C_39  and  C_51 
REMARK   24  A    between atoms: C_40  and  C_52 
REMARK   25  A    between atoms: C_63  and  C_65 
REMARK   26  A    between atoms: C_64  and  C_66 
REMARK   27  A    between atoms: C_65  and  C_69 
REMARK   28  A    between atoms: C_66  and  C_69 
ROOT
HETATM    1  C   UNK N   1      32.270  17.658   7.739  0.00  0.00     0.080 A 
HETATM    2  C   UNK N   1      31.557  16.965   6.752  0.00  0.00     0.026 A 
HETATM    3  C   UNK N   1      31.583  18.294   8.776  0.00  0.00     0.026 A 
HETATM    4  C   UNK N   1      30.162  16.903   6.809  0.00  0.00     0.002 A 
HETATM    5  C   UNK N   1      30.187  18.239   8.828  0.00  0.00     0.002 A 
HETATM    6  C   UNK N   1      29.477  17.540   7.848  0.00  0.00     0.000 A 
ENDROOT
BRANCH   1   7
HETATM    7  S   UNK N   1      34.060  17.717   7.691  0.00  0.00     0.137 S 
HETATM    8  O   UNK N   1      34.872  19.091   8.330  0.00  0.00    -0.591 OA
HETATM    9  O   UNK N   1      34.695  16.502   8.386  0.00  0.00    -0.591 OA
HETATM   10  O   UNK N   1      34.600  17.558   6.264  0.00  0.00    -0.591 OA
ENDBRANCH   1   7
TORSDOF 28
ENDMDL
MODEL 7
REMARK VINA RESULT:      -4.6     13.995     14.823
REMARK  28 active torsions:
REMARK  status: ('A' for Active; 'I' for Inactive)
REMARK    1  A    between atoms: S_1  and  C_76 
REMARK    2  A    between atoms: S_2  and  C_77 
REMARK    3  A    between atoms: O_3  and  C_47 
REMARK    4  A    between atoms: O_4  and  C_48 
REMARK    5  A    between atoms: O_5  and  C_49 
REMARK    6  A    between atoms: O_6  and  C_50 
REMARK    7  A    between atoms: O_7  and  C_51 
REMARK    8  A    between atoms: O_7  and  C_63 
REMARK    9  A    between atoms: O_8  and  C_52 
REMARK   10  A    between atoms: O_8  and  C_64 
REMARK   11  A    between atoms: O_11  and  C_57 
REMARK   12  A    between atoms: O_12  and  C_58 
REMARK   13  A    between atoms: O_13  and  C_61 
REMARK   14  A    between atoms: O_14  and  C_62 
REMARK   15  A    between atoms: N_21  and  C_27 
REMARK   16  A    between atoms: N_22  and  C_28 
REMARK   17  A    between atoms: C_23  and  C_35 
REMARK   18  A    between atoms: C_24  and  C_36 
REMARK   19  A    between atoms: C_27  and  C_39 
REMARK   20  A    between atoms: C_28  and  C_40 
REMARK   21  A    between atoms: C_35  and  C_43 
REMARK   22  A    between atoms: C_36  and  C_44 
REMARK   23  A    between atoms: C_39  and  C_51 
REMARK   24  A    between atoms: C_40  and  C_52 
REMARK   25  A    between atoms: C_63  and  C_65 
REMARK   26  A    between atoms: C_64  and  C_66 
REMARK   27  A    between atoms: C_65  and  C_69 
REMARK   28  A    between atoms: C_66  and  C_69 
ROOT
HETATM    1  C   UNK N   1      34.931  12.003  16.628  0.00  0.00     0.080 A 
HETATM    2  C   UNK N   1      34.926  13.318  17.110  0.00  0.00     0.026 A 
HETATM    3  C   UNK N   1      35.177  10.942  17.504  0.00  0.00     0.026 A 
HETATM    4  C   UNK N   1      35.160  13.569  18.465  0.00  0.00     0.002 A 
HETATM    5  C   UNK N   1      35.419  11.194  18.858  0.00  0.00     0.002 A 
HETATM    6  C   UNK N   1      35.406  12.506  19.339  0.00  0.00     0.000 A 
ENDROOT
BRANCH   1   7
HETATM    7  S   UNK N   1      34.603  11.669  14.899  0.00  0.00     0.137 S 
HETATM    8  O   UNK N   1      33.203  10.768  14.468  0.00  0.00    -0.591 OA
HETATM    9  O   UNK N   1      34.537  12.959  14.066  0.00  0.00    -0.591 OA
HETATM   10  O   UNK N   1      35.772  10.940  14.225  0.00  0.00    -0.591 OA
ENDBRANCH   1   7
TORSDOF 28
ENDMDL
MODEL 8
REMARK VINA RESULT:      -4.6     14.605     15.405
REMARK  28 active torsions:
REMARK  status: ('A' for Active; 'I' for Inactive)
REMARK    1  A    between atoms: S_1  and  C_76 
REMARK    2  A    between atoms: S_2  and  C_77 
REMARK    3  A    between atoms: O_3  and  C_47 
REMARK    4  A    between atoms: O_4  and  C_48 
REMARK    5  A    between atoms: O_5  and  C_49 
REMARK    6  A    between atoms: O_6  and  C_50 
REMARK    7  A    between atoms: O_7  and  C_51 
REMARK    8  A    between atoms: O_7  and  C_63 
REMARK    9  A    between atoms: O_8  and  C_52 
REMARK   10  A    between atoms: O_8  and  C_64 
REMARK   11  A    between atoms: O_11  and  C_57 
REMARK   12  A    between atoms: O_12  and  C_58 
REMARK   13  A    between atoms: O_13  and  C_61 
REMARK   14  A    between atoms: O_14  and  C_62 
REMARK   15  A    between atoms: N_21  and  C_27 
REMARK   16  A    between atoms: N_22  and  C_28 
REMARK   17  A    between atoms: C_23  and  C_35 
REMARK   18  A    between atoms: C_24  and  C_36 
REMARK   19  A    between atoms: C_27  and  C_39 
REMARK   20  A    between atoms: C_28  and  C_40 
REMARK   21  A    between atoms: C_35  and  C_43 
REMARK   22  A    between atoms: C_36  and  C_44 
REMARK   23  A    between atoms: C_39  and  C_51 
REMARK   24  A    between atoms: C_40  and  C_52 
REMARK   25  A    between atoms: C_63  and  C_65 
REMARK   26  A    between atoms: C_64  and  C_66 
REMARK   27  A    between atoms: C_65  and  C_69 
REMARK   28  A    between atoms: C_66  and  C_69 
ROOT
HETATM    1  C   UNK N   1      35.727  12.676  16.325  0.00  0.00     0.080 A 
HETATM    2  C   UNK N   1      35.901  11.328  16.667  0.00  0.00     0.026 A 
HETATM    3  C   UNK N   1      35.347  13.598  17.304  0.00  0.00     0.026 A 
HETATM    4  C   UNK N   1      35.702  10.908  17.985  0.00  0.00     0.002 A 
HETATM    5  C   UNK N   1      35.140  13.176  18.621  0.00  0.00     0.002 A 
HETATM    6  C   UNK N   1      35.321  11.833  18.962  0.00  0.00     0.000 A 
ENDROOT
BRANCH   1   7
HETATM    7  S   UNK N   1      36.009  13.229  14.645  0.00  0.00     0.137 S 
HETATM    8  O   UNK N   1      34.674  13.365  13.571  0.00  0.00    -0.591 OA
HETATM    9  O   UNK N   1      36.717  14.593  14.600  0.00  0.00    -0.591 OA
HETATM   10  O   UNK N   1      37.025  12.343  13.913  0.00  0.00    -0.591 OA
ENDBRANCH   1   7
TORSDOF 28
ENDMDL
MODEL 9
REMARK VINA RESULT:      -4.6     14.643     15.332
REMARK  28 active torsions:
REMARK  status: ('A' for Active; 'I' for Inactive)
REMARK    1  A    between atoms: S_1  and  C_76 
REMARK    2  A    between atoms: S_2  and  C_77 
REMARK    3  A    between atoms: O_3  and  C_47 
REMARK    4  A    between atoms: O_4  and  C_48 
REMARK    5  A    between atoms: O_5  and  C_49 
REMARK    6  A    between atoms: O_6  and  C_50 
REMARK    7  A    between atoms: O_7  and  C_51 
REMARK    8  A    between atoms: O_7  and  C_63 
REMARK    9  A    between atoms: O_8  and  C_52 
REMARK   10  A    between atoms: O_8  and  C_64 
REMARK   11  A    between atoms: O_11  and  C_57 
REMARK   12  A    between atoms: O_12  and  C_58 
REMARK   13  A    between atoms: O_13  and  C_61 
REMARK   14  A    between atoms: O_14  and  C_62 
REMARK   15  A    between atoms: N_21  and  C_27 
REMARK   16  A    between atoms: N_22  and  C_28 
REMARK   17  A    between atoms: C_23  and  C_35 
REMARK   18  A    between atoms: C_24  and  C_36 
REMARK   19  A    between atoms: C_27  and  C_39 
REMARK   20  A    between atoms: C_28  and  C_40 
REMARK   21  A    between atoms: C_35  and  C_43 
REMARK   22  A    between atoms: C_36  and  C_44 
REMARK   23  A    between atoms: C_39  and  C_51 
REMARK   24  A    between atoms: C_40  and  C_52 
REMARK   25  A    between atoms: C_63  and  C_65 
REMARK   26  A    between atoms: C_64  and  C_66 
REMARK   27  A    between atoms: C_65  and  C_69 
REMARK   28  A    between atoms: C_66  and  C_69 
ROOT
HETATM    1  C   UNK N   1      35.748  12.760  16.325  0.00  0.00     0.080 A 
HETATM    2  C   UNK N   1      35.367  13.652  17.336  0.00  0.00     0.026 A 
HETATM    3  C   UNK N   1      35.921  11.406  16.623  0.00  0.00     0.026 A 
HETATM    4  C   UNK N   1      35.154  13.189  18.637  0.00  0.00     0.002 A 
HETATM    5  C   UNK N   1      35.716  10.944  17.926  0.00  0.00     0.002 A 
HETATM    6  C   UNK N   1      35.329  11.834  18.932  0.00  0.00     0.000 A 
ENDROOT
BRANCH   1   7
HETATM    7  S   UNK N   1      35.994  13.339  14.648  0.00  0.00     0.137 S 
HETATM    8  O   UNK N   1      36.719  14.876  14.388  0.00  0.00    -0.591 OA
HETATM    9  O   UNK N   1      36.817  12.347  13.812  0.00  0.00    -0.591 OA
HETATM   10  O   UNK N   1      34.680  13.376  13.856  0.00  0.00    -0.591 OA
ENDBRANCH   1   7
TORSDOF 28
ENDMDL
