MODEL 1
REMARK VINA RESULT:      -6.8      0.000      0.000
REMARK  6 active torsions:
REMARK  status: ('A' for Active; 'I' for Inactive)
REMARK    1  A    between atoms: O_4  and  C_17 
REMARK    2  A    between atoms: C_10  and  N_7 
REMARK       I    between atoms: N_7  and  C_15 
REMARK    3  A    between atoms: C_18  and  N_8 
REMARK    4  A    between atoms: C_12  and  C_17 
REMARK    5  A    between atoms: C_15  and  C_18 
REMARK    6  A    between atoms: C_18  and  C_19 
ROOT
HETATM    1  S   UNK N   1      36.688  13.018   9.050  0.00  0.00    -0.136 SA
HETATM    2  O   UNK N   1      35.668  16.347  11.690  0.00  0.00    -0.271 OA
HETATM    3  N   UNK N   1      35.393  14.204  10.991  0.00  0.00    -0.293 N 
HETATM    4  C   UNK N   1      35.223  13.939   9.596  0.00  0.00     0.187 A 
HETATM    5  C   UNK N   1      35.269  15.548   9.377  0.00  0.00     0.210 A 
HETATM    6  C   UNK N   1      35.391  15.496  10.859  0.00  0.00     0.251 A 
HETATM    7  C   UNK N   1      35.817  13.321  12.035  0.00  0.00     0.115 C 
HETATM    8  C   UNK N   1      36.239  11.667  10.208  0.00  0.00     0.112 C 
HETATM    9  C   UNK N   1      36.267  12.087  11.662  0.00  0.00    -0.041 C 
HETATM   10  C   UNK N   1      36.812  11.091  12.636  0.00  0.00     0.047 C 
ENDROOT
BRANCH   5  11
HETATM   11  N   UNK N   1      33.990  16.090   8.975  0.00  0.00    -0.343 N 
HETATM   12  C   UNK N   1      33.828  17.402   8.662  0.00  0.00     0.245 C 
HETATM   13  O   UNK N   1      34.760  18.187   8.786  0.00  0.00    -0.271 OA
HETATM   14  H   UNK N   1      33.213  15.489   8.925  0.00  0.00     0.163 HD
BRANCH  12  15
HETATM   15  C   UNK N   1      32.495  17.874   8.138  0.00  0.00     0.201 C 
BRANCH  15  16
HETATM   16  N   UNK N   1      31.445  17.388   9.024  0.00  0.00    -0.415 N 
HETATM   17  H   UNK N   1      31.251  17.864   9.905  0.00  0.00     0.151 HD
HETATM   18  H   UNK N   1      30.900  16.566   8.761  0.00  0.00     0.151 HD
ENDBRANCH  15  16
BRANCH  15  19
HETATM   19  C   UNK N   1      32.229  17.481   6.701  0.00  0.00    -0.027 A 
HETATM   20  C   UNK N   1      33.261  17.584   5.756  0.00  0.00     0.010 A 
HETATM   21  C   UNK N   1      33.034  17.243   4.420  0.00  0.00     0.001 A 
HETATM   22  C   UNK N   1      31.770  16.804   4.015  0.00  0.00     0.000 A 
HETATM   23  C   UNK N   1      30.734  16.703   4.947  0.00  0.00     0.001 A 
HETATM   24  C   UNK N   1      30.960  17.041   6.284  0.00  0.00     0.010 A 
ENDBRANCH  15  19
ENDBRANCH  12  15
ENDBRANCH   5  11
BRANCH   7  25
HETATM   25  C   UNK N   1      35.840  13.789  13.465  0.00  0.00     0.194 C 
HETATM   26  O   UNK N   1      34.948  13.464  14.229  0.00  0.00    -0.645 OA
BRANCH  25  27
HETATM   27  O   UNK N   1      36.847  14.547  13.937  0.00  0.00    -0.772 OA
HETATM   28  H   UNK N   1      37.709  14.187  14.014  0.00  0.00     0.167 HD
ENDBRANCH  25  27
ENDBRANCH   7  25
TORSDOF 6
ENDMDL
MODEL 2
REMARK VINA RESULT:      -6.8     11.985     14.881
REMARK  6 active torsions:
REMARK  status: ('A' for Active; 'I' for Inactive)
REMARK    1  A    between atoms: O_4  and  C_17 
REMARK    2  A    between atoms: C_10  and  N_7 
REMARK       I    between atoms: N_7  and  C_15 
REMARK    3  A    between atoms: C_18  and  N_8 
REMARK    4  A    between atoms: C_12  and  C_17 
REMARK    5  A    between atoms: C_15  and  C_18 
REMARK    6  A    between atoms: C_18  and  C_19 
ROOT
HETATM    1  S   UNK N   1      24.420  16.901   4.390  0.00  0.00    -0.136 SA
HETATM    2  O   UNK N   1      20.058  16.760   4.158  0.00  0.00    -0.271 OA
HETATM    3  N   UNK N   1      21.988  17.800   4.752  0.00  0.00    -0.293 N 
HETATM    4  C   UNK N   1      22.980  17.073   5.481  0.00  0.00     0.187 A 
HETATM    5  C   UNK N   1      21.935  15.828   5.485  0.00  0.00     0.210 A 
HETATM    6  C   UNK N   1      21.111  16.842   4.773  0.00  0.00     0.251 A 
HETATM    7  C   UNK N   1      22.132  18.986   3.964  0.00  0.00     0.115 C 
HETATM    8  C   UNK N   1      24.587  18.729   4.366  0.00  0.00     0.112 C 
HETATM    9  C   UNK N   1      23.403  19.432   3.738  0.00  0.00    -0.041 C 
HETATM   10  C   UNK N   1      23.709  20.613   2.871  0.00  0.00     0.047 C 
ENDROOT
BRANCH   5  11
HETATM   11  N   UNK N   1      21.405  15.552   6.801  0.00  0.00    -0.343 N 
HETATM   12  C   UNK N   1      21.005  14.309   7.174  0.00  0.00     0.245 C 
HETATM   13  O   UNK N   1      21.015  13.389   6.365  0.00  0.00    -0.271 OA
HETATM   14  H   UNK N   1      21.332  16.290   7.449  0.00  0.00     0.163 HD
BRANCH  12  15
HETATM   15  C   UNK N   1      20.572  14.071   8.598  0.00  0.00     0.201 C 
BRANCH  15  16
HETATM   16  N   UNK N   1      20.180  15.344   9.188  0.00  0.00    -0.415 N 
HETATM   17  H   UNK N   1      20.364  16.219   8.697  0.00  0.00     0.151 HD
HETATM   18  H   UNK N   1      19.717  15.360  10.097  0.00  0.00     0.151 HD
ENDBRANCH  15  16
BRANCH  15  19
HETATM   19  C   UNK N   1      21.614  13.369   9.444  0.00  0.00    -0.027 A 
HETATM   20  C   UNK N   1      21.218  12.705  10.614  0.00  0.00     0.010 A 
HETATM   21  C   UNK N   1      22.164  12.065  11.420  0.00  0.00     0.001 A 
HETATM   22  C   UNK N   1      23.516  12.091  11.066  0.00  0.00     0.000 A 
HETATM   23  C   UNK N   1      23.921  12.754   9.905  0.00  0.00     0.001 A 
HETATM   24  C   UNK N   1      22.976  13.393   9.097  0.00  0.00     0.010 A 
ENDBRANCH  15  19
ENDBRANCH  12  15
ENDBRANCH   5  11
BRANCH   7  25
HETATM   25  C   UNK N   1      20.927  19.643   3.350  0.00  0.00     0.194 C 
HETATM   26  O   UNK N   1      20.386  20.579   3.913  0.00  0.00    -0.645 OA
BRANCH  25  27
HETATM   27  O   UNK N   1      20.436  19.236   2.164  0.00  0.00    -0.772 OA
HETATM   28  H   UNK N   1      19.633  19.594   1.841  0.00  0.00     0.167 HD
ENDBRANCH  25  27
ENDBRANCH   7  25
TORSDOF 6
ENDMDL
MODEL 3
REMARK VINA RESULT:      -6.8      2.674      8.384
REMARK  6 active torsions:
REMARK  status: ('A' for Active; 'I' for Inactive)
REMARK    1  A    between atoms: O_4  and  C_17 
REMARK    2  A    between atoms: C_10  and  N_7 
REMARK       I    between atoms: N_7  and  C_15 
REMARK    3  A    between atoms: C_18  and  N_8 
REMARK    4  A    between atoms: C_12  and  C_17 
REMARK    5  A    between atoms: C_15  and  C_18 
REMARK    6  A    between atoms: C_18  and  C_19 
ROOT
HETATM    1  S   UNK N   1      35.227  12.593   8.129  0.00  0.00    -0.136 SA
HETATM    2  O   UNK N   1      33.561  15.102  11.295  0.00  0.00    -0.271 OA
HETATM    3  N   UNK N   1      35.022  14.754   9.591  0.00  0.00    -0.293 N 
HETATM    4  C   UNK N   1      35.792  13.549   9.563  0.00  0.00     0.187 A 
HETATM    5  C   UNK N   1      35.098  13.181  10.985  0.00  0.00     0.210 A 
HETATM    6  C   UNK N   1      34.480  14.513  10.746  0.00  0.00     0.251 A 
HETATM    7  C   UNK N   1      34.700  15.647   8.519  0.00  0.00     0.115 C 
HETATM    8  C   UNK N   1      35.785  13.955   7.033  0.00  0.00     0.112 C 
HETATM    9  C   UNK N   1      35.037  15.251   7.257  0.00  0.00    -0.041 C 
HETATM   10  C   UNK N   1      34.695  16.046   6.036  0.00  0.00     0.047 C 
ENDROOT
BRANCH   5  11
HETATM   11  N   UNK N   1      36.033  13.226  12.088  0.00  0.00    -0.343 N 
HETATM   12  C   UNK N   1      35.684  12.857  13.347  0.00  0.00     0.245 C 
HETATM   13  O   UNK N   1      34.528  12.541  13.600  0.00  0.00    -0.271 OA
HETATM   14  H   UNK N   1      36.952  13.534  11.919  0.00  0.00     0.163 HD
BRANCH  12  15
HETATM   15  C   UNK N   1      36.740  12.819  14.422  0.00  0.00     0.201 C 
BRANCH  15  16
HETATM   16  N   UNK N   1      37.804  11.917  14.001  0.00  0.00    -0.415 N 
HETATM   17  H   UNK N   1      38.391  12.149  13.200  0.00  0.00     0.151 HD
HETATM   18  H   UNK N   1      37.963  11.048  14.512  0.00  0.00     0.151 HD
ENDBRANCH  15  16
BRANCH  15  19
HETATM   19  C   UNK N   1      36.208  12.444  15.789  0.00  0.00    -0.027 A 
HETATM   20  C   UNK N   1      35.656  13.438  16.610  0.00  0.00     0.010 A 
HETATM   21  C   UNK N   1      35.174  13.118  17.883  0.00  0.00     0.001 A 
HETATM   22  C   UNK N   1      35.247  11.802  18.348  0.00  0.00     0.000 A 
HETATM   23  C   UNK N   1      35.800  10.805  17.540  0.00  0.00     0.001 A 
HETATM   24  C   UNK N   1      36.280  11.123  16.266  0.00  0.00     0.010 A 
ENDBRANCH  15  19
ENDBRANCH  12  15
ENDBRANCH   5  11
BRANCH   7  25
HETATM   25  C   UNK N   1      33.944  16.919   8.790  0.00  0.00     0.194 C 
HETATM   26  O   UNK N   1      34.537  17.982   8.851  0.00  0.00    -0.645 OA
BRANCH  25  27
HETATM   27  O   UNK N   1      32.606  16.919   8.943  0.00  0.00    -0.772 OA
HETATM   28  H   UNK N   1      32.219  17.339   9.686  0.00  0.00     0.167 HD
ENDBRANCH  25  27
ENDBRANCH   7  25
TORSDOF 6
ENDMDL
MODEL 4
REMARK VINA RESULT:      -6.8      1.737      2.550
REMARK  6 active torsions:
REMARK  status: ('A' for Active; 'I' for Inactive)
REMARK    1  A    between atoms: O_4  and  C_17 
REMARK    2  A    between atoms: C_10  and  N_7 
REMARK       I    between atoms: N_7  and  C_15 
REMARK    3  A    between atoms: C_18  and  N_8 
REMARK    4  A    between atoms: C_12  and  C_17 
REMARK    5  A    between atoms: C_15  and  C_18 
REMARK    6  A    between atoms: C_18  and  C_19 
ROOT
HETATM    1  S   UNK N   1      37.222  13.695   8.279  0.00  0.00    -0.136 SA
HETATM    2  O   UNK N   1      35.002  16.588  10.687  0.00  0.00    -0.271 OA
HETATM    3  N   UNK N   1      35.448  14.455  10.047  0.00  0.00    -0.293 N 
HETATM    4  C   UNK N   1      35.503  14.139   8.653  0.00  0.00     0.187 A 
HETATM    5  C   UNK N   1      35.089  15.686   8.379  0.00  0.00     0.210 A 
HETATM    6  C   UNK N   1      35.074  15.686   9.866  0.00  0.00     0.251 A 
HETATM    7  C   UNK N   1      36.010  13.749  11.158  0.00  0.00     0.115 C 
HETATM    8  C   UNK N   1      37.083  12.282   9.442  0.00  0.00     0.112 C 
HETATM    9  C   UNK N   1      36.842  12.704  10.875  0.00  0.00    -0.041 C 
HETATM   10  C   UNK N   1      37.560  11.926  11.932  0.00  0.00     0.047 C 
ENDROOT
BRANCH   5  11
HETATM   11  N   UNK N   1      33.753  15.816   7.841  0.00  0.00    -0.343 N 
HETATM   12  C   UNK N   1      33.426  16.782   6.944  0.00  0.00     0.245 C 
HETATM   13  O   UNK N   1      34.250  17.627   6.618  0.00  0.00    -0.271 OA
HETATM   14  H   UNK N   1      33.058  15.183   8.134  0.00  0.00     0.163 HD
BRANCH  12  15
HETATM   15  C   UNK N   1      32.045  16.786   6.338  0.00  0.00     0.201 C 
BRANCH  15  16
HETATM   16  N   UNK N   1      32.093  17.501   5.069  0.00  0.00    -0.415 N 
HETATM   17  H   UNK N   1      31.791  18.473   5.013  0.00  0.00     0.151 HD
HETATM   18  H   UNK N   1      32.431  17.026   4.232  0.00  0.00     0.151 HD
ENDBRANCH  15  16
BRANCH  15  19
HETATM   19  C   UNK N   1      30.979  17.352   7.250  0.00  0.00    -0.027 A 
HETATM   20  C   UNK N   1      29.627  17.201   6.907  0.00  0.00     0.010 A 
HETATM   21  C   UNK N   1      28.626  17.731   7.726  0.00  0.00     0.001 A 
HETATM   22  C   UNK N   1      28.968  18.423   8.891  0.00  0.00     0.000 A 
HETATM   23  C   UNK N   1      30.311  18.584   9.239  0.00  0.00     0.001 A 
HETATM   24  C   UNK N   1      31.314  18.052   8.423  0.00  0.00     0.010 A 
ENDBRANCH  15  19
ENDBRANCH  12  15
ENDBRANCH   5  11
BRANCH   7  25
HETATM   25  C   UNK N   1      35.752  14.215  12.565  0.00  0.00     0.194 C 
HETATM   26  O   UNK N   1      34.859  13.709  13.222  0.00  0.00    -0.645 OA
BRANCH  25  27
HETATM   27  O   UNK N   1      36.508  15.172  13.136  0.00  0.00    -0.772 OA
HETATM   28  H   UNK N   1      36.541  15.249  14.069  0.00  0.00     0.167 HD
ENDBRANCH  25  27
ENDBRANCH   7  25
TORSDOF 6
ENDMDL
MODEL 5
REMARK VINA RESULT:      -6.7      3.158      4.732
REMARK  6 active torsions:
REMARK  status: ('A' for Active; 'I' for Inactive)
REMARK    1  A    between atoms: O_4  and  C_17 
REMARK    2  A    between atoms: C_10  and  N_7 
REMARK       I    between atoms: N_7  and  C_15 
REMARK    3  A    between atoms: C_18  and  N_8 
REMARK    4  A    between atoms: C_12  and  C_17 
REMARK    5  A    between atoms: C_15  and  C_18 
REMARK    6  A    between atoms: C_18  and  C_19 
ROOT
HETATM    1  S   UNK N   1      34.804  15.028   5.897  0.00  0.00    -0.136 SA
HETATM    2  O   UNK N   1      33.434  18.426   8.279  0.00  0.00    -0.271 OA
HETATM    3  N   UNK N   1      33.818  16.202   8.018  0.00  0.00    -0.293 N 
HETATM    4  C   UNK N   1      33.343  15.543   6.842  0.00  0.00     0.187 A 
HETATM    5  C   UNK N   1      32.685  16.967   6.418  0.00  0.00     0.210 A 
HETATM    6  C   UNK N   1      33.270  17.345   7.734  0.00  0.00     0.251 A 
HETATM    7  C   UNK N   1      34.854  15.805   8.923  0.00  0.00     0.115 C 
HETATM    8  C   UNK N   1      35.301  13.955   7.301  0.00  0.00     0.112 C 
HETATM    9  C   UNK N   1      35.612  14.727   8.566  0.00  0.00    -0.041 C 
HETATM   10  C   UNK N   1      36.775  14.246   9.375  0.00  0.00     0.047 C 
ENDROOT
BRANCH   5  11
HETATM   11  N   UNK N   1      31.240  16.950   6.473  0.00  0.00    -0.343 N 
HETATM   12  C   UNK N   1      30.473  17.327   5.417  0.00  0.00     0.245 C 
HETATM   13  O   UNK N   1      30.994  17.768   4.401  0.00  0.00    -0.271 OA
HETATM   14  H   UNK N   1      30.799  16.654   7.301  0.00  0.00     0.163 HD
BRANCH  12  15
HETATM   15  C   UNK N   1      28.976  17.172   5.504  0.00  0.00     0.201 C 
BRANCH  15  16
HETATM   16  N   UNK N   1      28.531  16.302   4.422  0.00  0.00    -0.415 N 
HETATM   17  H   UNK N   1      27.706  15.715   4.538  0.00  0.00     0.151 HD
HETATM   18  H   UNK N   1      29.050  16.282   3.543  0.00  0.00     0.151 HD
ENDBRANCH  15  16
BRANCH  15  19
HETATM   19  C   UNK N   1      28.224  18.486   5.499  0.00  0.00    -0.027 A 
HETATM   20  C   UNK N   1      27.748  19.003   4.285  0.00  0.00     0.010 A 
HETATM   21  C   UNK N   1      27.067  20.223   4.254  0.00  0.00     0.001 A 
HETATM   22  C   UNK N   1      26.863  20.941   5.436  0.00  0.00     0.000 A 
HETATM   23  C   UNK N   1      27.338  20.437   6.649  0.00  0.00     0.001 A 
HETATM   24  C   UNK N   1      28.017  19.216   6.683  0.00  0.00     0.010 A 
ENDBRANCH  15  19
ENDBRANCH  12  15
ENDBRANCH   5  11
BRANCH   7  25
HETATM   25  C   UNK N   1      35.133  16.612  10.162  0.00  0.00     0.194 C 
HETATM   26  O   UNK N   1      34.890  16.146  11.262  0.00  0.00    -0.645 OA
BRANCH  25  27
HETATM   27  O   UNK N   1      35.676  17.842  10.089  0.00  0.00    -0.772 OA
HETATM   28  H   UNK N   1      36.539  17.994  10.420  0.00  0.00     0.167 HD
ENDBRANCH  25  27
ENDBRANCH   7  25
TORSDOF 6
ENDMDL
MODEL 6
REMARK VINA RESULT:      -6.6      4.100      8.890
REMARK  6 active torsions:
REMARK  status: ('A' for Active; 'I' for Inactive)
REMARK    1  A    between atoms: O_4  and  C_17 
REMARK    2  A    between atoms: C_10  and  N_7 
REMARK       I    between atoms: N_7  and  C_15 
REMARK    3  A    between atoms: C_18  and  N_8 
REMARK    4  A    between atoms: C_12  and  C_17 
REMARK    5  A    between atoms: C_15  and  C_18 
REMARK    6  A    between atoms: C_18  and  C_19 
ROOT
HETATM    1  S   UNK N   1      35.556  10.700   9.767  0.00  0.00    -0.136 SA
HETATM    2  O   UNK N   1      34.590  14.006  12.456  0.00  0.00    -0.271 OA
HETATM    3  N   UNK N   1      36.054  12.872  11.141  0.00  0.00    -0.293 N 
HETATM    4  C   UNK N   1      36.181  11.456  11.294  0.00  0.00     0.187 A 
HETATM    5  C   UNK N   1      35.116  11.583  12.514  0.00  0.00     0.210 A 
HETATM    6  C   UNK N   1      35.234  13.018  12.138  0.00  0.00     0.251 A 
HETATM    7  C   UNK N   1      36.403  13.697  10.024  0.00  0.00     0.115 C 
HETATM    8  C   UNK N   1      36.886  11.552   8.832  0.00  0.00     0.112 C 
HETATM    9  C   UNK N   1      36.778  13.062   8.875  0.00  0.00    -0.041 C 
HETATM   10  C   UNK N   1      37.097  13.792   7.609  0.00  0.00     0.047 C 
ENDROOT
BRANCH   5  11
HETATM   11  N   UNK N   1      35.717  11.328  13.805  0.00  0.00    -0.343 N 
HETATM   12  C   UNK N   1      35.021  10.769  14.828  0.00  0.00     0.245 C 
HETATM   13  O   UNK N   1      33.826  10.530  14.705  0.00  0.00    -0.271 OA
HETATM   14  H   UNK N   1      36.661  11.567  13.945  0.00  0.00     0.163 HD
BRANCH  12  15
HETATM   15  C   UNK N   1      35.742  10.425  16.107  0.00  0.00     0.201 C 
BRANCH  15  16
HETATM   16  N   UNK N   1      35.337   9.091  16.529  0.00  0.00    -0.415 N 
HETATM   17  H   UNK N   1      34.442   8.704  16.230  0.00  0.00     0.151 HD
HETATM   18  H   UNK N   1      35.953   8.540  17.128  0.00  0.00     0.151 HD
ENDBRANCH  15  16
BRANCH  15  19
HETATM   19  C   UNK N   1      35.542  11.438  17.213  0.00  0.00    -0.027 A 
HETATM   20  C   UNK N   1      35.522  11.007  18.548  0.00  0.00     0.010 A 
HETATM   21  C   UNK N   1      35.321  11.922  19.585  0.00  0.00     0.001 A 
HETATM   22  C   UNK N   1      35.130  13.276  19.295  0.00  0.00     0.000 A 
HETATM   23  C   UNK N   1      35.143  13.715  17.969  0.00  0.00     0.001 A 
HETATM   24  C   UNK N   1      35.346  12.802  16.931  0.00  0.00     0.010 A 
ENDBRANCH  15  19
ENDBRANCH  12  15
ENDBRANCH   5  11
BRANCH   7  25
HETATM   25  C   UNK N   1      36.268  15.192  10.111  0.00  0.00     0.194 C 
HETATM   26  O   UNK N   1      35.300  15.748   9.621  0.00  0.00    -0.645 OA
BRANCH  25  27
HETATM   27  O   UNK N   1      37.187  15.943  10.746  0.00  0.00    -0.772 OA
HETATM   28  H   UNK N   1      37.837  15.534  11.283  0.00  0.00     0.167 HD
ENDBRANCH  25  27
ENDBRANCH   7  25
TORSDOF 6
ENDMDL
MODEL 7
REMARK VINA RESULT:      -6.5     15.735     18.764
REMARK  6 active torsions:
REMARK  status: ('A' for Active; 'I' for Inactive)
REMARK    1  A    between atoms: O_4  and  C_17 
REMARK    2  A    between atoms: C_10  and  N_7 
REMARK       I    between atoms: N_7  and  C_15 
REMARK    3  A    between atoms: C_18  and  N_8 
REMARK    4  A    between atoms: C_12  and  C_17 
REMARK    5  A    between atoms: C_15  and  C_18 
REMARK    6  A    between atoms: C_18  and  C_19 
ROOT
HETATM    1  S   UNK N   1      29.145  23.034  -2.534  0.00  0.00    -0.136 SA
HETATM    2  O   UNK N   1      28.445  21.980  -6.716  0.00  0.00    -0.271 OA
HETATM    3  N   UNK N   1      29.720  22.912  -5.085  0.00  0.00    -0.293 N 
HETATM    4  C   UNK N   1      29.121  23.829  -4.165  0.00  0.00     0.187 A 
HETATM    5  C   UNK N   1      27.753  23.655  -5.024  0.00  0.00     0.210 A 
HETATM    6  C   UNK N   1      28.657  22.782  -5.820  0.00  0.00     0.251 A 
HETATM    7  C   UNK N   1      30.921  22.145  -4.946  0.00  0.00     0.115 C 
HETATM    8  C   UNK N   1      30.979  23.011  -2.601  0.00  0.00     0.112 C 
HETATM    9  C   UNK N   1      31.529  22.157  -3.723  0.00  0.00    -0.041 C 
HETATM   10  C   UNK N   1      32.746  21.344  -3.411  0.00  0.00     0.047 C 
ENDROOT
BRANCH   5  11
HETATM   11  N   UNK N   1      27.401  24.851  -5.756  0.00  0.00    -0.343 N 
HETATM   12  C   UNK N   1      26.110  25.224  -5.954  0.00  0.00     0.245 C 
HETATM   13  O   UNK N   1      25.194  24.505  -5.574  0.00  0.00    -0.271 OA
HETATM   14  H   UNK N   1      28.121  25.414  -6.122  0.00  0.00     0.163 HD
BRANCH  12  15
HETATM   15  C   UNK N   1      25.820  26.543  -6.625  0.00  0.00     0.201 C 
BRANCH  15  16
HETATM   16  N   UNK N   1      26.338  26.500  -7.986  0.00  0.00    -0.415 N 
HETATM   17  H   UNK N   1      26.969  27.228  -8.321  0.00  0.00     0.151 HD
HETATM   18  H   UNK N   1      26.068  25.737  -8.607  0.00  0.00     0.151 HD
ENDBRANCH  15  16
BRANCH  15  19
HETATM   19  C   UNK N   1      26.352  27.743  -5.869  0.00  0.00    -0.027 A 
HETATM   20  C   UNK N   1      25.759  28.108  -4.652  0.00  0.00     0.010 A 
HETATM   21  C   UNK N   1      26.222  29.223  -3.947  0.00  0.00     0.001 A 
HETATM   22  C   UNK N   1      27.277  29.985  -4.456  0.00  0.00     0.000 A 
HETATM   23  C   UNK N   1      27.870  29.632  -5.670  0.00  0.00     0.001 A 
HETATM   24  C   UNK N   1      27.410  28.517  -6.377  0.00  0.00     0.010 A 
ENDBRANCH  15  19
ENDBRANCH  12  15
ENDBRANCH   5  11
BRANCH   7  25
HETATM   25  C   UNK N   1      31.422  21.301  -6.086  0.00  0.00     0.194 C 
HETATM   26  O   UNK N   1      32.308  21.718  -6.812  0.00  0.00    -0.645 OA
BRANCH  25  27
HETATM   27  O   UNK N   1      30.928  20.070  -6.314  0.00  0.00    -0.772 OA
HETATM   28  H   UNK N   1      31.484  19.398  -6.657  0.00  0.00     0.167 HD
ENDBRANCH  25  27
ENDBRANCH   7  25
TORSDOF 6
ENDMDL
MODEL 8
REMARK VINA RESULT:      -6.4      1.729      2.194
REMARK  6 active torsions:
REMARK  status: ('A' for Active; 'I' for Inactive)
REMARK    1  A    between atoms: O_4  and  C_17 
REMARK    2  A    between atoms: C_10  and  N_7 
REMARK       I    between atoms: N_7  and  C_15 
REMARK    3  A    between atoms: C_18  and  N_8 
REMARK    4  A    between atoms: C_12  and  C_17 
REMARK    5  A    between atoms: C_15  and  C_18 
REMARK    6  A    between atoms: C_18  and  C_19 
ROOT
HETATM    1  S   UNK N   1      34.694  11.785   8.795  0.00  0.00    -0.136 SA
HETATM    2  O   UNK N   1      36.821  14.932  10.956  0.00  0.00    -0.271 OA
HETATM    3  N   UNK N   1      35.047  13.534  10.710  0.00  0.00    -0.293 N 
HETATM    4  C   UNK N   1      34.391  13.453   9.442  0.00  0.00     0.187 A 
HETATM    5  C   UNK N   1      35.414  14.611   8.939  0.00  0.00     0.210 A 
HETATM    6  C   UNK N   1      35.853  14.490  10.356  0.00  0.00     0.251 A 
HETATM    7  C   UNK N   1      35.047  12.597  11.792  0.00  0.00     0.115 C 
HETATM    8  C   UNK N   1      33.795  11.091  10.237  0.00  0.00     0.112 C 
HETATM    9  C   UNK N   1      34.468  11.382  11.562  0.00  0.00    -0.041 C 
HETATM   10  C   UNK N   1      34.462  10.279  12.572  0.00  0.00     0.047 C 
ENDROOT
BRANCH   5  11
HETATM   11  N   UNK N   1      34.751  15.873   8.702  0.00  0.00    -0.343 N 
HETATM   12  C   UNK N   1      34.675  16.428   7.464  0.00  0.00     0.245 C 
HETATM   13  O   UNK N   1      35.240  15.900   6.515  0.00  0.00    -0.271 OA
HETATM   14  H   UNK N   1      34.340  16.345   9.461  0.00  0.00     0.163 HD
BRANCH  12  15
HETATM   15  C   UNK N   1      33.868  17.687   7.270  0.00  0.00     0.201 C 
BRANCH  15  16
HETATM   16  N   UNK N   1      34.322  18.686   8.228  0.00  0.00    -0.415 N 
HETATM   17  H   UNK N   1      34.295  19.678   7.992  0.00  0.00     0.151 HD
HETATM   18  H   UNK N   1      34.668  18.392   9.142  0.00  0.00     0.151 HD
ENDBRANCH  15  16
BRANCH  15  19
HETATM   19  C   UNK N   1      32.372  17.474   7.363  0.00  0.00    -0.027 A 
HETATM   20  C   UNK N   1      31.688  16.904   6.279  0.00  0.00     0.010 A 
HETATM   21  C   UNK N   1      30.305  16.715   6.335  0.00  0.00     0.001 A 
HETATM   22  C   UNK N   1      29.592  17.099   7.474  0.00  0.00     0.000 A 
HETATM   23  C   UNK N   1      30.262  17.673   8.557  0.00  0.00     0.001 A 
HETATM   24  C   UNK N   1      31.646  17.861   8.504  0.00  0.00     0.010 A 
ENDBRANCH  15  19
ENDBRANCH  12  15
ENDBRANCH   5  11
BRANCH   7  25
HETATM   25  C   UNK N   1      35.740  12.927  13.085  0.00  0.00     0.194 C 
HETATM   26  O   UNK N   1      35.095  13.321  14.041  0.00  0.00    -0.645 OA
BRANCH  25  27
HETATM   27  O   UNK N   1      37.070  12.772  13.226  0.00  0.00    -0.772 OA
HETATM   28  H   UNK N   1      37.536  12.180  12.669  0.00  0.00     0.167 HD
ENDBRANCH  25  27
ENDBRANCH   7  25
TORSDOF 6
ENDMDL
MODEL 9
REMARK VINA RESULT:      -6.4      3.626      8.731
REMARK  6 active torsions:
REMARK  status: ('A' for Active; 'I' for Inactive)
REMARK    1  A    between atoms: O_4  and  C_17 
REMARK    2  A    between atoms: C_10  and  N_7 
REMARK       I    between atoms: N_7  and  C_15 
REMARK    3  A    between atoms: C_18  and  N_8 
REMARK    4  A    between atoms: C_12  and  C_17 
REMARK    5  A    between atoms: C_15  and  C_18 
REMARK    6  A    between atoms: C_18  and  C_19 
ROOT
HETATM    1  S   UNK N   1      35.467  16.233  11.031  0.00  0.00    -0.136 SA
HETATM    2  O   UNK N   1      36.852  12.128  10.462  0.00  0.00    -0.271 OA
HETATM    3  N   UNK N   1      35.278  13.748  10.230  0.00  0.00    -0.293 N 
HETATM    4  C   UNK N   1      34.912  14.538  11.365  0.00  0.00     0.187 A 
HETATM    5  C   UNK N   1      35.931  13.610  12.225  0.00  0.00     0.210 A 
HETATM    6  C   UNK N   1      36.068  12.959  10.894  0.00  0.00     0.251 A 
HETATM    7  C   UNK N   1      35.117  14.036   8.837  0.00  0.00     0.115 C 
HETATM    8  C   UNK N   1      34.337  16.291   9.586  0.00  0.00     0.112 C 
HETATM    9  C   UNK N   1      34.691  15.290   8.506  0.00  0.00    -0.041 C 
HETATM   10  C   UNK N   1      34.551  15.756   7.091  0.00  0.00     0.047 C 
ENDROOT
BRANCH   5  11
HETATM   11  N   UNK N   1      35.243  12.749  13.161  0.00  0.00    -0.343 N 
HETATM   12  C   UNK N   1      35.881  12.161  14.206  0.00  0.00     0.245 C 
HETATM   13  O   UNK N   1      37.091  12.288  14.342  0.00  0.00    -0.271 OA
HETATM   14  H   UNK N   1      34.281  12.585  13.037  0.00  0.00     0.163 HD
BRANCH  12  15
HETATM   15  C   UNK N   1      35.077  11.371  15.208  0.00  0.00     0.201 C 
BRANCH  15  16
HETATM   16  N   UNK N   1      33.695  11.304  14.752  0.00  0.00    -0.415 N 
HETATM   17  H   UNK N   1      33.417  11.751  13.878  0.00  0.00     0.151 HD
HETATM   18  H   UNK N   1      33.001  10.807  15.310  0.00  0.00     0.151 HD
ENDBRANCH  15  16
BRANCH  15  19
HETATM   19  C   UNK N   1      35.167  11.907  16.621  0.00  0.00    -0.027 A 
HETATM   20  C   UNK N   1      35.332  11.012  17.688  0.00  0.00     0.010 A 
HETATM   21  C   UNK N   1      35.399  11.482  19.003  0.00  0.00     0.001 A 
HETATM   22  C   UNK N   1      35.294  12.852  19.262  0.00  0.00     0.000 A 
HETATM   23  C   UNK N   1      35.124  13.751  18.207  0.00  0.00     0.001 A 
HETATM   24  C   UNK N   1      35.059  13.283  16.891  0.00  0.00     0.010 A 
ENDBRANCH  15  19
ENDBRANCH  12  15
ENDBRANCH   5  11
BRANCH   7  25
HETATM   25  C   UNK N   1      35.495  13.014   7.799  0.00  0.00     0.194 C 
HETATM   26  O   UNK N   1      34.649  12.263   7.346  0.00  0.00    -0.645 OA
BRANCH  25  27
HETATM   27  O   UNK N   1      36.754  12.922   7.333  0.00  0.00    -0.772 OA
HETATM   28  H   UNK N   1      36.909  12.852   6.411  0.00  0.00     0.167 HD
ENDBRANCH  25  27
ENDBRANCH   7  25
TORSDOF 6
ENDMDL
