MODEL 1
REMARK VINA RESULT:      -7.8      0.000      0.000
REMARK  6 active torsions:
REMARK  status: ('A' for Active; 'I' for Inactive)
REMARK    1  A    between atoms: N_1  and  C_5 
REMARK    2  A    between atoms: N_2  and  C_8 
REMARK    3  A    between atoms: C_5  and  C_9 
REMARK    4  A    between atoms: C_5  and  C_10 
REMARK    5  A    between atoms: C_8  and  C_11 
REMARK    6  A    between atoms: C_20  and  C_23 
ROOT
HETATM    1  N   UNK N   1      32.864  15.823   8.223  0.00  0.00     0.105 N 
HETATM    2  N   UNK N   1      34.971  14.450   9.645  0.00  0.00     0.095 N 
HETATM    3  C   UNK N   1      32.565  14.963   9.378  0.00  0.00     0.304 C 
HETATM    4  C   UNK N   1      33.999  15.200   7.538  0.00  0.00     0.304 C 
HETATM    5  C   UNK N   1      33.767  14.930  10.334  0.00  0.00     0.303 C 
HETATM    6  C   UNK N   1      35.204  15.277   8.453  0.00  0.00     0.303 C 
ENDROOT
BRANCH   1   7
HETATM    7  C   UNK N   1      31.716  15.864   7.301  0.00  0.00     0.289 C 
BRANCH   7   8
HETATM    8  C   UNK N   1      32.113  16.149   5.858  0.00  0.00    -0.021 A 
HETATM    9  C   UNK N   1      32.618  17.408   5.473  0.00  0.00     0.010 A 
HETATM   10  C   UNK N   1      32.977  17.652   4.148  0.00  0.00     0.001 A 
HETATM   11  C   UNK N   1      32.837  16.648   3.189  0.00  0.00     0.000 A 
HETATM   12  C   UNK N   1      32.331  15.398   3.557  0.00  0.00     0.001 A 
HETATM   13  C   UNK N   1      31.970  15.150   4.888  0.00  0.00     0.010 A 
ENDBRANCH   7   8
BRANCH   7  14
HETATM   14  C   UNK N   1      30.697  16.887   7.747  0.00  0.00    -0.021 A 
HETATM   15  C   UNK N   1      31.017  17.836   8.730  0.00  0.00     0.010 A 
HETATM   16  C   UNK N   1      30.063  18.774   9.138  0.00  0.00     0.001 A 
HETATM   17  C   UNK N   1      28.783  18.754   8.577  0.00  0.00     0.000 A 
HETATM   18  C   UNK N   1      28.458  17.805   7.604  0.00  0.00     0.001 A 
HETATM   19  C   UNK N   1      29.417  16.876   7.185  0.00  0.00     0.010 A 
ENDBRANCH   7  14
ENDBRANCH   1   7
BRANCH   2  20
HETATM   20  C   UNK N   1      36.091  14.610  10.579  0.00  0.00     0.300 C 
BRANCH  20  21
HETATM   21  C   UNK N   1      35.674  14.361  12.002  0.00  0.00     0.004 C 
HETATM   22  C   UNK N   1      36.432  13.658  12.843  0.00  0.00     0.009 C 
BRANCH  22  23
HETATM   23  C   UNK N   1      36.103  13.580  14.278  0.00  0.00    -0.036 A 
HETATM   24  C   UNK N   1      36.831  14.346  15.192  0.00  0.00     0.011 A 
HETATM   25  C   UNK N   1      36.504  14.316  16.553  0.00  0.00     0.001 A 
HETATM   26  C   UNK N   1      35.438  13.528  17.000  0.00  0.00     0.000 A 
HETATM   27  C   UNK N   1      34.701  12.766  16.090  0.00  0.00     0.001 A 
HETATM   28  C   UNK N   1      35.033  12.791  14.733  0.00  0.00     0.011 A 
ENDBRANCH  22  23
ENDBRANCH  20  21
ENDBRANCH   2  20
TORSDOF 6
ENDMDL
MODEL 2
REMARK VINA RESULT:      -7.7      1.074      3.623
REMARK  6 active torsions:
REMARK  status: ('A' for Active; 'I' for Inactive)
REMARK    1  A    between atoms: N_1  and  C_5 
REMARK    2  A    between atoms: N_2  and  C_8 
REMARK    3  A    between atoms: C_5  and  C_9 
REMARK    4  A    between atoms: C_5  and  C_10 
REMARK    5  A    between atoms: C_8  and  C_11 
REMARK    6  A    between atoms: C_20  and  C_23 
ROOT
HETATM    1  N   UNK N   1      33.905  16.209   8.051  0.00  0.00     0.105 N 
HETATM    2  N   UNK N   1      34.516  14.960  10.584  0.00  0.00     0.095 N 
HETATM    3  C   UNK N   1      34.737  16.891   9.053  0.00  0.00     0.304 C 
HETATM    4  C   UNK N   1      32.917  15.435   8.805  0.00  0.00     0.304 C 
HETATM    5  C   UNK N   1      35.470  15.858   9.921  0.00  0.00     0.303 C 
HETATM    6  C   UNK N   1      33.647  14.349   9.568  0.00  0.00     0.303 C 
ENDROOT
BRANCH   1   7
HETATM    7  C   UNK N   1      33.200  17.192   7.210  0.00  0.00     0.289 C 
BRANCH   7   8
HETATM    8  C   UNK N   1      31.753  17.417   7.632  0.00  0.00    -0.021 A 
HETATM    9  C   UNK N   1      31.425  18.317   8.666  0.00  0.00     0.010 A 
HETATM   10  C   UNK N   1      30.095  18.513   9.039  0.00  0.00     0.001 A 
HETATM   11  C   UNK N   1      29.077  17.813   8.390  0.00  0.00     0.000 A 
HETATM   12  C   UNK N   1      29.391  16.912   7.368  0.00  0.00     0.001 A 
HETATM   13  C   UNK N   1      30.726  16.715   6.991  0.00  0.00     0.010 A 
ENDBRANCH   7   8
BRANCH   7  14
HETATM   14  C   UNK N   1      33.236  16.787   5.754  0.00  0.00    -0.021 A 
HETATM   15  C   UNK N   1      32.685  17.618   4.766  0.00  0.00     0.010 A 
HETATM   16  C   UNK N   1      32.721  17.229   3.423  0.00  0.00     0.001 A 
HETATM   17  C   UNK N   1      33.291  16.004   3.067  0.00  0.00     0.000 A 
HETATM   18  C   UNK N   1      33.832  15.170   4.049  0.00  0.00     0.001 A 
HETATM   19  C   UNK N   1      33.811  15.565   5.392  0.00  0.00     0.010 A 
ENDBRANCH   7  14
ENDBRANCH   1   7
BRANCH   2  20
HETATM   20  C   UNK N   1      35.303  13.915  11.247  0.00  0.00     0.300 C 
BRANCH  20  21
HETATM   21  C   UNK N   1      35.255  14.042  12.745  0.00  0.00     0.004 C 
HETATM   22  C   UNK N   1      36.291  13.704  13.512  0.00  0.00     0.009 C 
BRANCH  22  23
HETATM   23  C   UNK N   1      36.298  14.007  14.955  0.00  0.00    -0.036 A 
HETATM   24  C   UNK N   1      37.116  15.032  15.437  0.00  0.00     0.011 A 
HETATM   25  C   UNK N   1      37.103  15.361  16.797  0.00  0.00     0.001 A 
HETATM   26  C   UNK N   1      36.261  14.672  17.676  0.00  0.00     0.000 A 
HETATM   27  C   UNK N   1      35.435  13.652  17.199  0.00  0.00     0.001 A 
HETATM   28  C   UNK N   1      35.454  13.319  15.843  0.00  0.00     0.011 A 
ENDBRANCH  22  23
ENDBRANCH  20  21
ENDBRANCH   2  20
TORSDOF 6
ENDMDL
MODEL 3
REMARK VINA RESULT:      -7.5      9.722     12.474
REMARK  6 active torsions:
REMARK  status: ('A' for Active; 'I' for Inactive)
REMARK    1  A    between atoms: N_1  and  C_5 
REMARK    2  A    between atoms: N_2  and  C_8 
REMARK    3  A    between atoms: C_5  and  C_9 
REMARK    4  A    between atoms: C_5  and  C_10 
REMARK    5  A    between atoms: C_8  and  C_11 
REMARK    6  A    between atoms: C_20  and  C_23 
ROOT
HETATM    1  N   UNK N   1      21.204  17.162   5.430  0.00  0.00     0.105 N 
HETATM    2  N   UNK N   1      19.499  16.403   7.636  0.00  0.00     0.095 N 
HETATM    3  C   UNK N   1      20.959  18.081   6.551  0.00  0.00     0.304 C 
HETATM    4  C   UNK N   1      19.960  16.413   5.241  0.00  0.00     0.304 C 
HETATM    5  C   UNK N   1      20.658  17.285   7.829  0.00  0.00     0.303 C 
HETATM    6  C   UNK N   1      19.737  15.548   6.466  0.00  0.00     0.303 C 
ENDROOT
BRANCH   1   7
HETATM    7  C   UNK N   1      21.497  17.916   4.199  0.00  0.00     0.289 C 
BRANCH   7   8
HETATM    8  C   UNK N   1      21.137  17.157   2.928  0.00  0.00    -0.021 A 
HETATM    9  C   UNK N   1      20.242  17.699   1.982  0.00  0.00     0.010 A 
HETATM   10  C   UNK N   1      19.923  16.992   0.823  0.00  0.00     0.001 A 
HETATM   11  C   UNK N   1      20.489  15.737   0.592  0.00  0.00     0.000 A 
HETATM   12  C   UNK N   1      21.372  15.187   1.526  0.00  0.00     0.001 A 
HETATM   13  C   UNK N   1      21.694  15.896   2.691  0.00  0.00     0.010 A 
ENDBRANCH   7   8
BRANCH   7  14
HETATM   14  C   UNK N   1      22.952  18.320   4.142  0.00  0.00    -0.021 A 
HETATM   15  C   UNK N   1      23.941  17.518   4.732  0.00  0.00     0.010 A 
HETATM   16  C   UNK N   1      25.284  17.905   4.677  0.00  0.00     0.001 A 
HETATM   17  C   UNK N   1      25.639  19.102   4.048  0.00  0.00     0.000 A 
HETATM   18  C   UNK N   1      24.655  19.907   3.467  0.00  0.00     0.001 A 
HETATM   19  C   UNK N   1      23.313  19.513   3.509  0.00  0.00     0.010 A 
ENDBRANCH   7  14
ENDBRANCH   1   7
BRANCH   2  20
HETATM   20  C   UNK N   1      19.393  15.569   8.839  0.00  0.00     0.300 C 
BRANCH  20  21
HETATM   21  C   UNK N   1      20.730  15.039   9.274  0.00  0.00     0.004 C 
HETATM   22  C   UNK N   1      20.857  13.847   9.857  0.00  0.00     0.009 C 
BRANCH  22  23
HETATM   23  C   UNK N   1      22.187  13.263  10.109  0.00  0.00    -0.036 A 
HETATM   24  C   UNK N   1      22.380  12.453  11.232  0.00  0.00     0.011 A 
HETATM   25  C   UNK N   1      23.624  11.855  11.463  0.00  0.00     0.001 A 
HETATM   26  C   UNK N   1      24.675  12.056  10.563  0.00  0.00     0.000 A 
HETATM   27  C   UNK N   1      24.487  12.858   9.434  0.00  0.00     0.001 A 
HETATM   28  C   UNK N   1      23.247  13.460   9.208  0.00  0.00     0.011 A 
ENDBRANCH  22  23
ENDBRANCH  20  21
ENDBRANCH   2  20
TORSDOF 6
ENDMDL
MODEL 4
REMARK VINA RESULT:      -7.5      2.148     10.310
REMARK  6 active torsions:
REMARK  status: ('A' for Active; 'I' for Inactive)
REMARK    1  A    between atoms: N_1  and  C_5 
REMARK    2  A    between atoms: N_2  and  C_8 
REMARK    3  A    between atoms: C_5  and  C_9 
REMARK    4  A    between atoms: C_5  and  C_10 
REMARK    5  A    between atoms: C_8  and  C_11 
REMARK    6  A    between atoms: C_20  and  C_23 
ROOT
HETATM    1  N   UNK N   1      36.232  13.075  13.053  0.00  0.00     0.105 N 
HETATM    2  N   UNK N   1      35.534  14.004  10.408  0.00  0.00     0.095 N 
HETATM    3  C   UNK N   1      35.852  12.130  11.992  0.00  0.00     0.304 C 
HETATM    4  C   UNK N   1      35.430  14.279  12.829  0.00  0.00     0.304 C 
HETATM    5  C   UNK N   1      36.204  12.714  10.616  0.00  0.00     0.303 C 
HETATM    6  C   UNK N   1      35.869  14.904  11.520  0.00  0.00     0.303 C 
ENDROOT
BRANCH   1   7
HETATM    7  C   UNK N   1      35.901  12.523  14.378  0.00  0.00     0.289 C 
BRANCH   7   8
HETATM    8  C   UNK N   1      36.131  13.509  15.516  0.00  0.00    -0.021 A 
HETATM    9  C   UNK N   1      37.080  14.546  15.404  0.00  0.00     0.010 A 
HETATM   10  C   UNK N   1      37.278  15.442  16.455  0.00  0.00     0.001 A 
HETATM   11  C   UNK N   1      36.537  15.314  17.630  0.00  0.00     0.000 A 
HETATM   12  C   UNK N   1      35.598  14.285  17.756  0.00  0.00     0.001 A 
HETATM   13  C   UNK N   1      35.397  13.386  16.701  0.00  0.00     0.010 A 
ENDBRANCH   7   8
BRANCH   7  14
HETATM   14  C   UNK N   1      36.684  11.258  14.651  0.00  0.00    -0.021 A 
HETATM   15  C   UNK N   1      36.050  10.125  15.183  0.00  0.00     0.010 A 
HETATM   16  C   UNK N   1      36.786   8.962  15.435  0.00  0.00     0.001 A 
HETATM   17  C   UNK N   1      38.159   8.936  15.174  0.00  0.00     0.000 A 
HETATM   18  C   UNK N   1      38.795  10.067  14.652  0.00  0.00     0.001 A 
HETATM   19  C   UNK N   1      38.056  11.225  14.385  0.00  0.00     0.010 A 
ENDBRANCH   7  14
ENDBRANCH   1   7
BRANCH   2  20
HETATM   20  C   UNK N   1      36.057  14.559   9.154  0.00  0.00     0.300 C 
BRANCH  20  21
HETATM   21  C   UNK N   1      34.953  14.952   8.212  0.00  0.00     0.004 C 
HETATM   22  C   UNK N   1      34.416  16.172   8.230  0.00  0.00     0.009 C 
BRANCH  22  23
HETATM   23  C   UNK N   1      33.471  16.601   7.184  0.00  0.00    -0.036 A 
HETATM   24  C   UNK N   1      33.964  17.093   5.973  0.00  0.00     0.011 A 
HETATM   25  C   UNK N   1      33.080  17.464   4.952  0.00  0.00     0.001 A 
HETATM   26  C   UNK N   1      31.700  17.332   5.138  0.00  0.00     0.000 A 
HETATM   27  C   UNK N   1      31.201  16.833   6.344  0.00  0.00     0.001 A 
HETATM   28  C   UNK N   1      32.083  16.470   7.364  0.00  0.00     0.011 A 
ENDBRANCH  22  23
ENDBRANCH  20  21
ENDBRANCH   2  20
TORSDOF 6
ENDMDL
MODEL 5
REMARK VINA RESULT:      -7.4      5.865      8.950
REMARK  6 active torsions:
REMARK  status: ('A' for Active; 'I' for Inactive)
REMARK    1  A    between atoms: N_1  and  C_5 
REMARK    2  A    between atoms: N_2  and  C_8 
REMARK    3  A    between atoms: C_5  and  C_9 
REMARK    4  A    between atoms: C_5  and  C_10 
REMARK    5  A    between atoms: C_8  and  C_11 
REMARK    6  A    between atoms: C_20  and  C_23 
ROOT
HETATM    1  N   UNK N   1      28.410  16.070   5.314  0.00  0.00     0.105 N 
HETATM    2  N   UNK N   1      26.585  13.851   5.001  0.00  0.00     0.095 N 
HETATM    3  C   UNK N   1      26.954  16.270   5.371  0.00  0.00     0.304 C 
HETATM    4  C   UNK N   1      28.633  14.999   4.340  0.00  0.00     0.304 C 
HETATM    5  C   UNK N   1      26.266  14.991   5.870  0.00  0.00     0.303 C 
HETATM    6  C   UNK N   1      28.045  13.719   4.900  0.00  0.00     0.303 C 
ENDROOT
BRANCH   1   7
HETATM    7  C   UNK N   1      29.080  17.292   4.839  0.00  0.00     0.289 C 
BRANCH   7   8
HETATM    8  C   UNK N   1      30.574  17.314   5.137  0.00  0.00    -0.021 A 
HETATM    9  C   UNK N   1      31.514  17.646   4.140  0.00  0.00     0.010 A 
HETATM   10  C   UNK N   1      32.878  17.662   4.429  0.00  0.00     0.001 A 
HETATM   11  C   UNK N   1      33.324  17.346   5.713  0.00  0.00     0.000 A 
HETATM   12  C   UNK N   1      32.402  17.010   6.709  0.00  0.00     0.001 A 
HETATM   13  C   UNK N   1      31.031  16.993   6.420  0.00  0.00     0.010 A 
ENDBRANCH   7   8
BRANCH   7  14
HETATM   14  C   UNK N   1      28.437  18.528   5.427  0.00  0.00    -0.021 A 
HETATM   15  C   UNK N   1      28.286  18.665   6.815  0.00  0.00     0.010 A 
HETATM   16  C   UNK N   1      27.685  19.812   7.345  0.00  0.00     0.001 A 
HETATM   17  C   UNK N   1      27.219  20.813   6.490  0.00  0.00     0.000 A 
HETATM   18  C   UNK N   1      27.360  20.675   5.106  0.00  0.00     0.001 A 
HETATM   19  C   UNK N   1      27.975  19.536   4.575  0.00  0.00     0.010 A 
ENDBRANCH   7  14
ENDBRANCH   1   7
BRANCH   2  20
HETATM   20  C   UNK N   1      26.029  12.655   5.644  0.00  0.00     0.300 C 
BRANCH  20  21
HETATM   21  C   UNK N   1      24.998  13.004   6.681  0.00  0.00     0.004 C 
HETATM   22  C   UNK N   1      24.211  12.078   7.229  0.00  0.00     0.009 C 
BRANCH  22  23
HETATM   23  C   UNK N   1      23.339  12.402   8.372  0.00  0.00    -0.036 A 
HETATM   24  C   UNK N   1      22.530  13.540   8.317  0.00  0.00     0.011 A 
HETATM   25  C   UNK N   1      21.665  13.840   9.375  0.00  0.00     0.001 A 
HETATM   26  C   UNK N   1      21.597  12.993  10.486  0.00  0.00     0.000 A 
HETATM   27  C   UNK N   1      22.397  11.849  10.543  0.00  0.00     0.001 A 
HETATM   28  C   UNK N   1      23.266  11.554   9.490  0.00  0.00     0.011 A 
ENDBRANCH  22  23
ENDBRANCH  20  21
ENDBRANCH   2  20
TORSDOF 6
ENDMDL
MODEL 6
REMARK VINA RESULT:      -7.4      5.549      9.204
REMARK  6 active torsions:
REMARK  status: ('A' for Active; 'I' for Inactive)
REMARK    1  A    between atoms: N_1  and  C_5 
REMARK    2  A    between atoms: N_2  and  C_8 
REMARK    3  A    between atoms: C_5  and  C_9 
REMARK    4  A    between atoms: C_5  and  C_10 
REMARK    5  A    between atoms: C_8  and  C_11 
REMARK    6  A    between atoms: C_20  and  C_23 
ROOT
HETATM    1  N   UNK N   1      26.983  16.434   5.963  0.00  0.00     0.105 N 
HETATM    2  N   UNK N   1      25.044  14.427   5.212  0.00  0.00     0.095 N 
HETATM    3  C   UNK N   1      25.827  16.772   5.119  0.00  0.00     0.304 C 
HETATM    4  C   UNK N   1      27.365  15.069   5.596  0.00  0.00     0.304 C 
HETATM    5  C   UNK N   1      24.656  15.827   5.425  0.00  0.00     0.303 C 
HETATM    6  C   UNK N   1      26.244  14.136   6.008  0.00  0.00     0.303 C 
ENDROOT
BRANCH   1   7
HETATM    7  C   UNK N   1      28.111  17.337   5.679  0.00  0.00     0.289 C 
BRANCH   7   8
HETATM    8  C   UNK N   1      29.234  17.238   6.705  0.00  0.00    -0.021 A 
HETATM    9  C   UNK N   1      28.962  17.245   8.088  0.00  0.00     0.010 A 
HETATM   10  C   UNK N   1      30.002  17.153   9.014  0.00  0.00     0.001 A 
HETATM   11  C   UNK N   1      31.323  17.056   8.575  0.00  0.00     0.000 A 
HETATM   12  C   UNK N   1      31.604  17.055   7.205  0.00  0.00     0.001 A 
HETATM   13  C   UNK N   1      30.562  17.146   6.274  0.00  0.00     0.010 A 
ENDBRANCH   7   8
BRANCH   7  14
HETATM   14  C   UNK N   1      27.648  18.773   5.586  0.00  0.00    -0.021 A 
HETATM   15  C   UNK N   1      27.372  19.357   4.340  0.00  0.00     0.010 A 
HETATM   16  C   UNK N   1      26.949  20.688   4.267  0.00  0.00     0.001 A 
HETATM   17  C   UNK N   1      26.819  21.443   5.436  0.00  0.00     0.000 A 
HETATM   18  C   UNK N   1      27.102  20.867   6.678  0.00  0.00     0.001 A 
HETATM   19  C   UNK N   1      27.510  19.531   6.753  0.00  0.00     0.010 A 
ENDBRANCH   7  14
ENDBRANCH   1   7
BRANCH   2  20
HETATM   20  C   UNK N   1      23.930  13.599   5.686  0.00  0.00     0.300 C 
BRANCH  20  21
HETATM   21  C   UNK N   1      24.095  13.207   7.127  0.00  0.00     0.004 C 
HETATM   22  C   UNK N   1      23.197  13.541   8.053  0.00  0.00     0.009 C 
BRANCH  22  23
HETATM   23  C   UNK N   1      23.276  12.995   9.420  0.00  0.00    -0.036 A 
HETATM   24  C   UNK N   1      22.098  12.738  10.127  0.00  0.00     0.011 A 
HETATM   25  C   UNK N   1      22.153  12.180  11.409  0.00  0.00     0.001 A 
HETATM   26  C   UNK N   1      23.389  11.865  11.982  0.00  0.00     0.000 A 
HETATM   27  C   UNK N   1      24.571  12.111  11.279  0.00  0.00     0.001 A 
HETATM   28  C   UNK N   1      24.515  12.675  10.002  0.00  0.00     0.011 A 
ENDBRANCH  22  23
ENDBRANCH  20  21
ENDBRANCH   2  20
TORSDOF 6
ENDMDL
MODEL 7
REMARK VINA RESULT:      -7.3     14.754     19.696
REMARK  6 active torsions:
REMARK  status: ('A' for Active; 'I' for Inactive)
REMARK    1  A    between atoms: N_1  and  C_5 
REMARK    2  A    between atoms: N_2  and  C_8 
REMARK    3  A    between atoms: C_5  and  C_9 
REMARK    4  A    between atoms: C_5  and  C_10 
REMARK    5  A    between atoms: C_8  and  C_11 
REMARK    6  A    between atoms: C_20  and  C_23 
ROOT
HETATM    1  N   UNK N   1      27.006  24.285  -8.182  0.00  0.00     0.105 N 
HETATM    2  N   UNK N   1      27.861  21.551  -7.801  0.00  0.00     0.095 N 
HETATM    3  C   UNK N   1      26.921  23.640  -6.864  0.00  0.00     0.304 C 
HETATM    4  C   UNK N   1      26.739  23.233  -9.165  0.00  0.00     0.304 C 
HETATM    5  C   UNK N   1      28.001  22.554  -6.738  0.00  0.00     0.303 C 
HETATM    6  C   UNK N   1      27.873  22.229  -9.105  0.00  0.00     0.303 C 
ENDROOT
BRANCH   1   7
HETATM    7  C   UNK N   1      25.977  25.330  -8.312  0.00  0.00     0.289 C 
BRANCH   7   8
HETATM    8  C   UNK N   1      25.940  25.971  -9.694  0.00  0.00    -0.021 A 
HETATM    9  C   UNK N   1      27.119  26.422 -10.322  0.00  0.00     0.010 A 
HETATM   10  C   UNK N   1      27.069  27.006 -11.587  0.00  0.00     0.001 A 
HETATM   11  C   UNK N   1      25.845  27.151 -12.242  0.00  0.00     0.000 A 
HETATM   12  C   UNK N   1      24.668  26.714 -11.626  0.00  0.00     0.001 A 
HETATM   13  C   UNK N   1      24.717  26.126 -10.355  0.00  0.00     0.010 A 
ENDBRANCH   7   8
BRANCH   7  14
HETATM   14  C   UNK N   1      26.162  26.408  -7.268  0.00  0.00    -0.021 A 
HETATM   15  C   UNK N   1      27.290  27.243  -7.293  0.00  0.00     0.010 A 
HETATM   16  C   UNK N   1      27.451  28.233  -6.319  0.00  0.00     0.001 A 
HETATM   17  C   UNK N   1      26.497  28.380  -5.309  0.00  0.00     0.000 A 
HETATM   18  C   UNK N   1      25.377  27.544  -5.276  0.00  0.00     0.001 A 
HETATM   19  C   UNK N   1      25.207  26.563  -6.259  0.00  0.00     0.010 A 
ENDBRANCH   7  14
ENDBRANCH   1   7
BRANCH   2  20
HETATM   20  C   UNK N   1      29.022  20.660  -7.703  0.00  0.00     0.300 C 
BRANCH  20  21
HETATM   21  C   UNK N   1      29.798  20.888  -6.436  0.00  0.00     0.004 C 
HETATM   22  C   UNK N   1      30.848  20.134  -6.110  0.00  0.00     0.009 C 
BRANCH  22  23
HETATM   23  C   UNK N   1      31.708  20.484  -4.965  0.00  0.00    -0.036 A 
HETATM   24  C   UNK N   1      31.208  21.315  -3.959  0.00  0.00     0.011 A 
HETATM   25  C   UNK N   1      31.995  21.623  -2.844  0.00  0.00     0.001 A 
HETATM   26  C   UNK N   1      33.282  21.089  -2.727  0.00  0.00     0.000 A 
HETATM   27  C   UNK N   1      33.786  20.251  -3.725  0.00  0.00     0.001 A 
HETATM   28  C   UNK N   1      33.001  19.949  -4.841  0.00  0.00     0.011 A 
ENDBRANCH  22  23
ENDBRANCH  20  21
ENDBRANCH   2  20
TORSDOF 6
ENDMDL
MODEL 8
REMARK VINA RESULT:      -7.2      5.203     10.666
REMARK  6 active torsions:
REMARK  status: ('A' for Active; 'I' for Inactive)
REMARK    1  A    between atoms: N_1  and  C_5 
REMARK    2  A    between atoms: N_2  and  C_8 
REMARK    3  A    between atoms: C_5  and  C_9 
REMARK    4  A    between atoms: C_5  and  C_10 
REMARK    5  A    between atoms: C_8  and  C_11 
REMARK    6  A    between atoms: C_20  and  C_23 
ROOT
HETATM    1  N   UNK N   1      29.402  15.867   5.468  0.00  0.00     0.105 N 
HETATM    2  N   UNK N   1      28.788  13.188   4.577  0.00  0.00     0.095 N 
HETATM    3  C   UNK N   1      30.329  14.753   5.716  0.00  0.00     0.304 C 
HETATM    4  C   UNK N   1      28.055  15.298   5.554  0.00  0.00     0.304 C 
HETATM    5  C   UNK N   1      30.170  13.682   4.627  0.00  0.00     0.303 C 
HETATM    6  C   UNK N   1      27.877  14.327   4.405  0.00  0.00     0.303 C 
ENDROOT
BRANCH   1   7
HETATM    7  C   UNK N   1      29.549  16.901   6.506  0.00  0.00     0.289 C 
BRANCH   7   8
HETATM    8  C   UNK N   1      28.790  18.184   6.189  0.00  0.00    -0.021 A 
HETATM    9  C   UNK N   1      28.177  18.941   7.209  0.00  0.00     0.010 A 
HETATM   10  C   UNK N   1      27.486  20.114   6.902  0.00  0.00     0.001 A 
HETATM   11  C   UNK N   1      27.396  20.546   5.578  0.00  0.00     0.000 A 
HETATM   12  C   UNK N   1      27.994  19.800   4.558  0.00  0.00     0.001 A 
HETATM   13  C   UNK N   1      28.689  18.622   4.864  0.00  0.00     0.010 A 
ENDBRANCH   7   8
BRANCH   7  14
HETATM   14  C   UNK N   1      31.005  17.231   6.743  0.00  0.00    -0.021 A 
HETATM   15  C   UNK N   1      31.920  17.236   5.679  0.00  0.00     0.010 A 
HETATM   16  C   UNK N   1      33.266  17.538   5.913  0.00  0.00     0.001 A 
HETATM   17  C   UNK N   1      33.702  17.816   7.211  0.00  0.00     0.000 A 
HETATM   18  C   UNK N   1      32.795  17.802   8.274  0.00  0.00     0.001 A 
HETATM   19  C   UNK N   1      31.445  17.516   8.039  0.00  0.00     0.010 A 
ENDBRANCH   7  14
ENDBRANCH   1   7
BRANCH   2  20
HETATM   20  C   UNK N   1      28.693  12.303   3.410  0.00  0.00     0.300 C 
BRANCH  20  21
HETATM   21  C   UNK N   1      27.564  12.696   2.499  0.00  0.00     0.004 C 
HETATM   22  C   UNK N   1      26.592  11.843   2.176  0.00  0.00     0.009 C 
BRANCH  22  23
HETATM   23  C   UNK N   1      25.400  12.294   1.436  0.00  0.00    -0.036 A 
HETATM   24  C   UNK N   1      25.013  13.635   1.511  0.00  0.00     0.011 A 
HETATM   25  C   UNK N   1      23.909  14.090   0.782  0.00  0.00     0.001 A 
HETATM   26  C   UNK N   1      23.196  13.206  -0.035  0.00  0.00     0.000 A 
HETATM   27  C   UNK N   1      23.583  11.866  -0.120  0.00  0.00     0.001 A 
HETATM   28  C   UNK N   1      24.681  11.411   0.613  0.00  0.00     0.011 A 
ENDBRANCH  22  23
ENDBRANCH  20  21
ENDBRANCH   2  20
TORSDOF 6
ENDMDL
MODEL 9
REMARK VINA RESULT:      -7.0      6.566     12.358
REMARK  6 active torsions:
REMARK  status: ('A' for Active; 'I' for Inactive)
REMARK    1  A    between atoms: N_1  and  C_5 
REMARK    2  A    between atoms: N_2  and  C_8 
REMARK    3  A    between atoms: C_5  and  C_9 
REMARK    4  A    between atoms: C_5  and  C_10 
REMARK    5  A    between atoms: C_8  and  C_11 
REMARK    6  A    between atoms: C_20  and  C_23 
ROOT
HETATM    1  N   UNK N   1      27.768  16.506   4.441  0.00  0.00     0.105 N 
HETATM    2  N   UNK N   1      26.274  14.315   3.294  0.00  0.00     0.095 N 
HETATM    3  C   UNK N   1      28.355  15.162   4.332  0.00  0.00     0.304 C 
HETATM    4  C   UNK N   1      26.341  16.305   4.702  0.00  0.00     0.304 C 
HETATM    5  C   UNK N   1      27.732  14.410   3.146  0.00  0.00     0.303 C 
HETATM    6  C   UNK N   1      25.721  15.663   3.477  0.00  0.00     0.303 C 
ENDROOT
BRANCH   1   7
HETATM    7  C   UNK N   1      28.360  17.238   5.573  0.00  0.00     0.289 C 
BRANCH   7   8
HETATM    8  C   UNK N   1      27.872  18.676   5.683  0.00  0.00    -0.021 A 
HETATM    9  C   UNK N   1      27.509  19.414   4.538  0.00  0.00     0.010 A 
HETATM   10  C   UNK N   1      27.063  20.731   4.655  0.00  0.00     0.001 A 
HETATM   11  C   UNK N   1      26.976  21.329   5.913  0.00  0.00     0.000 A 
HETATM   12  C   UNK N   1      27.340  20.610   7.055  0.00  0.00     0.001 A 
HETATM   13  C   UNK N   1      27.787  19.287   6.939  0.00  0.00     0.010 A 
ENDBRANCH   7   8
BRANCH   7  14
HETATM   14  C   UNK N   1      29.870  17.230   5.496  0.00  0.00    -0.021 A 
HETATM   15  C   UNK N   1      30.643  16.871   6.611  0.00  0.00     0.010 A 
HETATM   16  C   UNK N   1      32.039  16.873   6.527  0.00  0.00     0.001 A 
HETATM   17  C   UNK N   1      32.665  17.249   5.336  0.00  0.00     0.000 A 
HETATM   18  C   UNK N   1      31.898  17.616   4.226  0.00  0.00     0.001 A 
HETATM   19  C   UNK N   1      30.501  17.600   4.304  0.00  0.00     0.010 A 
ENDBRANCH   7  14
ENDBRANCH   1   7
BRANCH   2  20
HETATM   20  C   UNK N   1      25.756  13.737   2.049  0.00  0.00     0.300 C 
BRANCH  20  21
HETATM   21  C   UNK N   1      24.312  14.090   1.826  0.00  0.00     0.004 C 
HETATM   22  C   UNK N   1      23.580  13.494   0.885  0.00  0.00     0.009 C 
BRANCH  22  23
HETATM   23  C   UNK N   1      22.125  13.715   0.800  0.00  0.00    -0.036 A 
HETATM   24  C   UNK N   1      21.277  12.625   0.583  0.00  0.00     0.011 A 
HETATM   25  C   UNK N   1      19.891  12.810   0.543  0.00  0.00     0.001 A 
HETATM   26  C   UNK N   1      19.348  14.086   0.732  0.00  0.00     0.000 A 
HETATM   27  C   UNK N   1      20.190  15.178   0.957  0.00  0.00     0.001 A 
HETATM   28  C   UNK N   1      21.575  14.993   0.990  0.00  0.00     0.011 A 
ENDBRANCH  22  23
ENDBRANCH  20  21
ENDBRANCH   2  20
TORSDOF 6
ENDMDL
