REMARK  7 active torsions:
REMARK  status: ('A' for Active; 'I' for Inactive)
REMARK    1  A    between atoms: O_1  and  C_7 
REMARK    2  A    between atoms: O_1  and  C_10 
REMARK    3  A    between atoms: O_2  and  C_4 
REMARK    4  A    between atoms: N_3  and  C_5 
REMARK    5  A    between atoms: N_3  and  C_6 
REMARK    6  A    between atoms: C_4  and  C_5 
REMARK    7  A    between atoms: C_4  and  C_7 
ROOT
HETATM    1  O   UNK N   1       4.524   0.355  -0.176  0.00  0.00    -0.348 OA
ENDROOT
BRANCH   1   2
HETATM    2  C   UNK N   1       3.446  -0.477   0.009  0.00  0.00     0.209 C 
BRANCH   2   3
HETATM    3  C   UNK N   1       3.868  -1.924  -0.201  0.00  0.00     0.159 C 
BRANCH   3   4
HETATM    4  O   UNK N   1       5.177  -2.130   0.241  0.00  0.00    -0.392 OA
HETATM    5  H   UNK N   1       5.508  -2.989   0.548  0.00  0.00     0.210 HD
ENDBRANCH   3   4
BRANCH   3   6
HETATM    6  C   UNK N   1       2.943  -2.802   0.608  0.00  0.00     0.147 C 
BRANCH   6   7
HETATM    7  N   UNK N   1       2.330  -3.800  -0.248  0.00  0.00    -0.415 N 
HETATM    8  H   UNK N   1       2.747  -4.239  -1.069  0.00  0.00     0.153 HD
BRANCH   7   9
HETATM    9  C   UNK N   1       1.005  -4.055   0.293  0.00  0.00     0.068 C 
HETATM   10  C   UNK N   1       0.026  -3.015  -0.224  0.00  0.00     0.031 C 
HETATM   11  C   UNK N   1       0.541  -5.430  -0.133  0.00  0.00     0.031 C 
ENDBRANCH   7   9
ENDBRANCH   6   7
ENDBRANCH   3   6
ENDBRANCH   2   3
ENDBRANCH   1   2
BRANCH   1  12
HETATM   12  C   UNK N   1       4.465   1.705  -0.096  0.00  0.00     0.080 A 
HETATM   13  C   UNK N   1       5.664   2.433  -0.065  0.00  0.00     0.007 A 
HETATM   14  C   UNK N   1       5.629   3.845   0.018  0.00  0.00    -0.023 A 
HETATM   15  C   UNK N   1       6.899   1.773  -0.102  0.00  0.00     0.015 A 
HETATM   16  C   UNK N   1       4.403   4.512   0.064  0.00  0.00     0.012 A 
HETATM   17  C   UNK N   1       6.824   4.568   0.057  0.00  0.00     0.012 A 
HETATM   18  C   UNK N   1       3.209   3.784   0.035  0.00  0.00     0.004 A 
HETATM   19  C   UNK N   1       3.238   2.388  -0.042  0.00  0.00     0.037 A 
HETATM   20  C   UNK N   1       8.051   3.898   0.020  0.00  0.00     0.001 A 
HETATM   21  C   UNK N   1       8.088   2.503  -0.059  0.00  0.00     0.001 A 
ENDBRANCH   1  12
TORSDOF 7
