MODEL 1
REMARK VINA RESULT:      -6.4      0.000      0.000
REMARK  7 active torsions:
REMARK  status: ('A' for Active; 'I' for Inactive)
REMARK    1  A    between atoms: O_1  and  C_7 
REMARK    2  A    between atoms: O_1  and  C_10 
REMARK    3  A    between atoms: O_2  and  C_4 
REMARK    4  A    between atoms: N_3  and  C_5 
REMARK    5  A    between atoms: N_3  and  C_6 
REMARK    6  A    between atoms: C_4  and  C_5 
REMARK    7  A    between atoms: C_4  and  C_7 
ROOT
HETATM    1  O   UNK N   1      30.399  17.062   8.322  0.00  0.00    -0.348 OA
ENDROOT
BRANCH   1   2
HETATM    2  C   UNK N   1      29.673  18.060   8.927  0.00  0.00     0.209 C 
BRANCH   2   3
HETATM    3  C   UNK N   1      28.246  18.054   8.399  0.00  0.00     0.159 C 
BRANCH   3   4
HETATM    4  O   UNK N   1      27.331  18.259   9.434  0.00  0.00    -0.392 OA
HETATM    5  H   UNK N   1      26.783  17.552   9.810  0.00  0.00     0.210 HD
ENDBRANCH   3   4
BRANCH   3   6
HETATM    6  C   UNK N   1      28.111  19.184   7.406  0.00  0.00     0.147 C 
BRANCH   6   7
HETATM    7  N   UNK N   1      27.042  18.896   6.468  0.00  0.00    -0.415 N 
HETATM    8  H   UNK N   1      26.472  18.051   6.433  0.00  0.00     0.153 HD
BRANCH   7   9
HETATM    9  C   UNK N   1      26.940  20.048   5.587  0.00  0.00     0.068 C 
HETATM   10  C   UNK N   1      27.351  21.307   6.332  0.00  0.00     0.031 C 
HETATM   11  C   UNK N   1      27.851  19.856   4.396  0.00  0.00     0.031 C 
ENDBRANCH   7   9
ENDBRANCH   6   7
ENDBRANCH   3   6
ENDBRANCH   2   3
ENDBRANCH   1   2
BRANCH   1  12
HETATM   12  C   UNK N   1      31.587  17.254   7.702  0.00  0.00     0.080 A 
HETATM   13  C   UNK N   1      31.635  17.196   6.301  0.00  0.00     0.007 A 
HETATM   14  C   UNK N   1      32.865  17.394   5.630  0.00  0.00    -0.023 A 
HETATM   15  C   UNK N   1      30.478  16.929   5.559  0.00  0.00     0.015 A 
HETATM   16  C   UNK N   1      34.026  17.652   6.361  0.00  0.00     0.012 A 
HETATM   17  C   UNK N   1      32.913  17.327   4.235  0.00  0.00     0.012 A 
HETATM   18  C   UNK N   1      33.976  17.708   7.758  0.00  0.00     0.004 A 
HETATM   19  C   UNK N   1      32.764  17.508   8.426  0.00  0.00     0.037 A 
HETATM   20  C   UNK N   1      31.751  17.059   3.505  0.00  0.00     0.001 A 
HETATM   21  C   UNK N   1      30.535  16.860   4.166  0.00  0.00     0.001 A 
ENDBRANCH   1  12
TORSDOF 7
ENDMDL
MODEL 2
REMARK VINA RESULT:      -6.2      9.599     12.515
REMARK  7 active torsions:
REMARK  status: ('A' for Active; 'I' for Inactive)
REMARK    1  A    between atoms: O_1  and  C_7 
REMARK    2  A    between atoms: O_1  and  C_10 
REMARK    3  A    between atoms: O_2  and  C_4 
REMARK    4  A    between atoms: N_3  and  C_5 
REMARK    5  A    between atoms: N_3  and  C_6 
REMARK    6  A    between atoms: C_4  and  C_5 
REMARK    7  A    between atoms: C_4  and  C_7 
ROOT
HETATM    1  O   UNK N   1      34.648  13.061  14.534  0.00  0.00    -0.348 OA
ENDROOT
BRANCH   1   2
HETATM    2  C   UNK N   1      35.630  13.638  13.763  0.00  0.00     0.209 C 
BRANCH   2   3
HETATM    3  C   UNK N   1      35.321  13.423  12.288  0.00  0.00     0.159 C 
BRANCH   3   4
HETATM    4  O   UNK N   1      34.180  14.134  11.909  0.00  0.00    -0.392 OA
HETATM    5  H   UNK N   1      33.817  14.120  11.010  0.00  0.00     0.210 HD
ENDBRANCH   3   4
BRANCH   3   6
HETATM    6  C   UNK N   1      36.495  13.934  11.487  0.00  0.00     0.147 C 
BRANCH   6   7
HETATM    7  N   UNK N   1      37.696  13.200  11.841  0.00  0.00    -0.415 N 
HETATM    8  H   UNK N   1      37.958  12.871  12.770  0.00  0.00     0.153 HD
BRANCH   7   9
HETATM    9  C   UNK N   1      38.453  13.025  10.612  0.00  0.00     0.068 C 
HETATM   10  C   UNK N   1      38.156  11.661  10.012  0.00  0.00     0.031 C 
HETATM   11  C   UNK N   1      38.065  14.099   9.621  0.00  0.00     0.031 C 
ENDBRANCH   7   9
ENDBRANCH   6   7
ENDBRANCH   3   6
ENDBRANCH   2   3
ENDBRANCH   1   2
BRANCH   1  12
HETATM   12  C   UNK N   1      34.835  11.968  15.309  0.00  0.00     0.080 A 
HETATM   13  C   UNK N   1      35.001  12.140  16.692  0.00  0.00     0.007 A 
HETATM   14  C   UNK N   1      35.197  11.013  17.524  0.00  0.00    -0.023 A 
HETATM   15  C   UNK N   1      34.987  13.422  17.256  0.00  0.00     0.015 A 
HETATM   16  C   UNK N   1      35.221   9.731  16.970  0.00  0.00     0.012 A 
HETATM   17  C   UNK N   1      35.370  11.187  18.899  0.00  0.00     0.012 A 
HETATM   18  C   UNK N   1      35.058   9.562  15.591  0.00  0.00     0.004 A 
HETATM   19  C   UNK N   1      34.868  10.673  14.764  0.00  0.00     0.037 A 
HETATM   20  C   UNK N   1      35.355  12.472  19.451  0.00  0.00     0.001 A 
HETATM   21  C   UNK N   1      35.164  13.587  18.631  0.00  0.00     0.001 A 
ENDBRANCH   1  12
TORSDOF 7
ENDMDL
MODEL 3
REMARK VINA RESULT:      -6.2      9.928     12.523
REMARK  7 active torsions:
REMARK  status: ('A' for Active; 'I' for Inactive)
REMARK    1  A    between atoms: O_1  and  C_7 
REMARK    2  A    between atoms: O_1  and  C_10 
REMARK    3  A    between atoms: O_2  and  C_4 
REMARK    4  A    between atoms: N_3  and  C_5 
REMARK    5  A    between atoms: N_3  and  C_6 
REMARK    6  A    between atoms: C_4  and  C_5 
REMARK    7  A    between atoms: C_4  and  C_7 
ROOT
HETATM    1  O   UNK N   1      36.826  13.414  14.401  0.00  0.00    -0.348 OA
ENDROOT
BRANCH   1   2
HETATM    2  C   UNK N   1      36.008  14.019  13.478  0.00  0.00     0.209 C 
BRANCH   2   3
HETATM    3  C   UNK N   1      36.406  13.588  12.074  0.00  0.00     0.159 C 
BRANCH   3   4
HETATM    4  O   UNK N   1      37.733  13.153  12.044  0.00  0.00    -0.392 OA
HETATM    5  H   UNK N   1      38.276  13.041  12.840  0.00  0.00     0.210 HD
ENDBRANCH   3   4
BRANCH   3   6
HETATM    6  C   UNK N   1      35.513  12.440  11.668  0.00  0.00     0.147 C 
BRANCH   6   7
HETATM    7  N   UNK N   1      34.447  12.272  12.637  0.00  0.00    -0.415 N 
HETATM    8  H   UNK N   1      33.838  13.002  13.007  0.00  0.00     0.153 HD
BRANCH   7   9
HETATM    9  C   UNK N   1      34.414  10.859  12.979  0.00  0.00     0.068 C 
HETATM   10  C   UNK N   1      33.611  10.653  14.252  0.00  0.00     0.031 C 
HETATM   11  C   UNK N   1      33.771  10.081  11.853  0.00  0.00     0.031 C 
ENDBRANCH   7   9
ENDBRANCH   6   7
ENDBRANCH   3   6
ENDBRANCH   2   3
ENDBRANCH   1   2
BRANCH   1  12
HETATM   12  C   UNK N   1      36.380  12.761  15.500  0.00  0.00     0.080 A 
HETATM   13  C   UNK N   1      36.762  11.426  15.695  0.00  0.00     0.007 A 
HETATM   14  C   UNK N   1      36.309  10.722  16.836  0.00  0.00    -0.023 A 
HETATM   15  C   UNK N   1      37.580  10.776  14.762  0.00  0.00     0.015 A 
HETATM   16  C   UNK N   1      35.487  11.358  17.768  0.00  0.00     0.012 A 
HETATM   17  C   UNK N   1      36.685   9.389  17.024  0.00  0.00     0.012 A 
HETATM   18  C   UNK N   1      35.105  12.689  17.571  0.00  0.00     0.004 A 
HETATM   19  C   UNK N   1      35.546  13.388  16.442  0.00  0.00     0.037 A 
HETATM   20  C   UNK N   1      37.501   8.751  16.085  0.00  0.00     0.001 A 
HETATM   21  C   UNK N   1      37.948   9.443  14.956  0.00  0.00     0.001 A 
ENDBRANCH   1  12
TORSDOF 7
ENDMDL
MODEL 4
REMARK VINA RESULT:      -6.1      8.143     10.606
REMARK  7 active torsions:
REMARK  status: ('A' for Active; 'I' for Inactive)
REMARK    1  A    between atoms: O_1  and  C_7 
REMARK    2  A    between atoms: O_1  and  C_10 
REMARK    3  A    between atoms: O_2  and  C_4 
REMARK    4  A    between atoms: N_3  and  C_5 
REMARK    5  A    between atoms: N_3  and  C_6 
REMARK    6  A    between atoms: C_4  and  C_5 
REMARK    7  A    between atoms: C_4  and  C_7 
ROOT
HETATM    1  O   UNK N   1      36.432  13.877  13.244  0.00  0.00    -0.348 OA
ENDROOT
BRANCH   1   2
HETATM    2  C   UNK N   1      36.185  14.032  11.901  0.00  0.00     0.209 C 
BRANCH   2   3
HETATM    3  C   UNK N   1      35.997  15.507  11.577  0.00  0.00     0.159 C 
BRANCH   3   4
HETATM    4  O   UNK N   1      37.105  16.012  10.893  0.00  0.00    -0.392 OA
HETATM    5  H   UNK N   1      37.710  16.671  11.270  0.00  0.00     0.210 HD
ENDBRANCH   3   4
BRANCH   3   6
HETATM    6  C   UNK N   1      34.782  15.638  10.688  0.00  0.00     0.147 C 
BRANCH   6   7
HETATM    7  N   UNK N   1      34.623  17.016  10.264  0.00  0.00    -0.415 N 
HETATM    8  H   UNK N   1      34.704  17.848  10.849  0.00  0.00     0.153 HD
BRANCH   7   9
HETATM    9  C   UNK N   1      34.327  16.982   8.841  0.00  0.00     0.068 C 
HETATM   10  C   UNK N   1      32.878  16.580   8.624  0.00  0.00     0.031 C 
HETATM   11  C   UNK N   1      34.558  18.351   8.243  0.00  0.00     0.031 C 
ENDBRANCH   7   9
ENDBRANCH   6   7
ENDBRANCH   3   6
ENDBRANCH   2   3
ENDBRANCH   1   2
BRANCH   1  12
HETATM   12  C   UNK N   1      36.723  12.693  13.832  0.00  0.00     0.080 A 
HETATM   13  C   UNK N   1      36.233  12.441  15.122  0.00  0.00     0.007 A 
HETATM   14  C   UNK N   1      36.524  11.211  15.758  0.00  0.00    -0.023 A 
HETATM   15  C   UNK N   1      35.468  13.402  15.794  0.00  0.00     0.015 A 
HETATM   16  C   UNK N   1      37.293  10.248  15.100  0.00  0.00     0.012 A 
HETATM   17  C   UNK N   1      36.042  10.964  17.046  0.00  0.00     0.012 A 
HETATM   18  C   UNK N   1      37.782  10.503  13.814  0.00  0.00     0.004 A 
HETATM   19  C   UNK N   1      37.502  11.719  13.183  0.00  0.00     0.037 A 
HETATM   20  C   UNK N   1      35.279  11.932  17.707  0.00  0.00     0.001 A 
HETATM   21  C   UNK N   1      34.994  13.149  17.082  0.00  0.00     0.001 A 
ENDBRANCH   1  12
TORSDOF 7
ENDMDL
MODEL 5
REMARK VINA RESULT:      -6.0      9.684     12.453
REMARK  7 active torsions:
REMARK  status: ('A' for Active; 'I' for Inactive)
REMARK    1  A    between atoms: O_1  and  C_7 
REMARK    2  A    between atoms: O_1  and  C_10 
REMARK    3  A    between atoms: O_2  and  C_4 
REMARK    4  A    between atoms: N_3  and  C_5 
REMARK    5  A    between atoms: N_3  and  C_6 
REMARK    6  A    between atoms: C_4  and  C_5 
REMARK    7  A    between atoms: C_4  and  C_7 
ROOT
HETATM    1  O   UNK N   1      35.020  13.074  14.593  0.00  0.00    -0.348 OA
ENDROOT
BRANCH   1   2
HETATM    2  C   UNK N   1      36.064  13.493  13.804  0.00  0.00     0.209 C 
BRANCH   2   3
HETATM    3  C   UNK N   1      35.530  14.284  12.619  0.00  0.00     0.159 C 
BRANCH   3   4
HETATM    4  O   UNK N   1      36.435  15.277  12.235  0.00  0.00    -0.392 OA
HETATM    5  H   UNK N   1      36.609  16.074  12.761  0.00  0.00     0.210 HD
ENDBRANCH   3   4
BRANCH   3   6
HETATM    6  C   UNK N   1      35.347  13.328  11.464  0.00  0.00     0.147 C 
BRANCH   6   7
HETATM    7  N   UNK N   1      34.347  12.332  11.799  0.00  0.00    -0.415 N 
HETATM    8  H   UNK N   1      33.565  12.444  12.444  0.00  0.00     0.153 HD
BRANCH   7   9
HETATM    9  C   UNK N   1      34.674  11.140  11.033  0.00  0.00     0.068 C 
HETATM   10  C   UNK N   1      36.104  10.717  11.322  0.00  0.00     0.031 C 
HETATM   11  C   UNK N   1      33.736  10.018  11.418  0.00  0.00     0.031 C 
ENDBRANCH   7   9
ENDBRANCH   6   7
ENDBRANCH   3   6
ENDBRANCH   2   3
ENDBRANCH   1   2
BRANCH   1  12
HETATM   12  C   UNK N   1      35.066  11.992  15.405  0.00  0.00     0.080 A 
HETATM   13  C   UNK N   1      35.127  12.189  16.792  0.00  0.00     0.007 A 
HETATM   14  C   UNK N   1      35.177  11.074  17.662  0.00  0.00    -0.023 A 
HETATM   15  C   UNK N   1      35.153  13.484  17.327  0.00  0.00     0.015 A 
HETATM   16  C   UNK N   1      35.160   9.779  17.139  0.00  0.00     0.012 A 
HETATM   17  C   UNK N   1      35.245  11.273  19.043  0.00  0.00     0.012 A 
HETATM   18  C   UNK N   1      35.101   9.585  15.755  0.00  0.00     0.004 A 
HETATM   19  C   UNK N   1      35.057  10.684  14.891  0.00  0.00     0.037 A 
HETATM   20  C   UNK N   1      35.271  12.570  19.565  0.00  0.00     0.001 A 
HETATM   21  C   UNK N   1      35.225  13.673  18.708  0.00  0.00     0.001 A 
ENDBRANCH   1  12
TORSDOF 7
ENDMDL
MODEL 6
REMARK VINA RESULT:      -5.9      7.106      9.360
REMARK  7 active torsions:
REMARK  status: ('A' for Active; 'I' for Inactive)
REMARK    1  A    between atoms: O_1  and  C_7 
REMARK    2  A    between atoms: O_1  and  C_10 
REMARK    3  A    between atoms: O_2  and  C_4 
REMARK    4  A    between atoms: N_3  and  C_5 
REMARK    5  A    between atoms: N_3  and  C_6 
REMARK    6  A    between atoms: C_4  and  C_5 
REMARK    7  A    between atoms: C_4  and  C_7 
ROOT
HETATM    1  O   UNK N   1      36.387  14.126  12.468  0.00  0.00    -0.348 OA
ENDROOT
BRANCH   1   2
HETATM    2  C   UNK N   1      35.823  15.214  11.847  0.00  0.00     0.209 C 
BRANCH   2   3
HETATM    3  C   UNK N   1      34.794  14.751  10.826  0.00  0.00     0.159 C 
BRANCH   3   4
HETATM    4  O   UNK N   1      33.496  14.919  11.317  0.00  0.00    -0.392 OA
HETATM    5  H   UNK N   1      32.720  14.479  10.935  0.00  0.00     0.210 HD
ENDBRANCH   3   4
BRANCH   3   6
HETATM    6  C   UNK N   1      34.953  15.597   9.586  0.00  0.00     0.147 C 
BRANCH   6   7
HETATM    7  N   UNK N   1      34.130  16.788   9.687  0.00  0.00    -0.415 N 
HETATM    8  H   UNK N   1      34.037  17.398  10.500  0.00  0.00     0.153 HD
BRANCH   7   9
HETATM    9  C   UNK N   1      33.465  16.945   8.404  0.00  0.00     0.068 C 
HETATM   10  C   UNK N   1      31.995  16.587   8.536  0.00  0.00     0.031 C 
HETATM   11  C   UNK N   1      33.589  18.380   7.943  0.00  0.00     0.031 C 
ENDBRANCH   7   9
ENDBRANCH   6   7
ENDBRANCH   3   6
ENDBRANCH   2   3
ENDBRANCH   1   2
BRANCH   1  12
HETATM   12  C   UNK N   1      36.184  13.801  13.766  0.00  0.00     0.080 A 
HETATM   13  C   UNK N   1      35.407  12.673  14.067  0.00  0.00     0.007 A 
HETATM   14  C   UNK N   1      35.180  12.313  15.417  0.00  0.00    -0.023 A 
HETATM   15  C   UNK N   1      34.840  11.905  13.042  0.00  0.00     0.015 A 
HETATM   16  C   UNK N   1      35.734  13.077  16.446  0.00  0.00     0.012 A 
HETATM   17  C   UNK N   1      34.399  11.193  15.715  0.00  0.00     0.012 A 
HETATM   18  C   UNK N   1      36.508  14.202  16.144  0.00  0.00     0.004 A 
HETATM   19  C   UNK N   1      36.730  14.566  14.812  0.00  0.00     0.037 A 
HETATM   20  C   UNK N   1      33.838  10.435  14.683  0.00  0.00     0.001 A 
HETATM   21  C   UNK N   1      34.057  10.790  13.349  0.00  0.00     0.001 A 
ENDBRANCH   1  12
TORSDOF 7
ENDMDL
MODEL 7
REMARK VINA RESULT:      -5.9      9.678     12.160
REMARK  7 active torsions:
REMARK  status: ('A' for Active; 'I' for Inactive)
REMARK    1  A    between atoms: O_1  and  C_7 
REMARK    2  A    between atoms: O_1  and  C_10 
REMARK    3  A    between atoms: O_2  and  C_4 
REMARK    4  A    between atoms: N_3  and  C_5 
REMARK    5  A    between atoms: N_3  and  C_6 
REMARK    6  A    between atoms: C_4  and  C_5 
REMARK    7  A    between atoms: C_4  and  C_7 
ROOT
HETATM    1  O   UNK N   1      34.962  13.326  15.382  0.00  0.00    -0.348 OA
ENDROOT
BRANCH   1   2
HETATM    2  C   UNK N   1      36.020  13.794  14.640  0.00  0.00     0.209 C 
BRANCH   2   3
HETATM    3  C   UNK N   1      35.742  13.588  13.158  0.00  0.00     0.159 C 
BRANCH   3   4
HETATM    4  O   UNK N   1      34.408  13.231  12.946  0.00  0.00    -0.392 OA
HETATM    5  H   UNK N   1      33.732  13.254  13.642  0.00  0.00     0.210 HD
ENDBRANCH   3   4
BRANCH   3   6
HETATM    6  C   UNK N   1      36.009  14.894  12.447  0.00  0.00     0.147 C 
BRANCH   6   7
HETATM    7  N   UNK N   1      36.796  14.657  11.252  0.00  0.00    -0.415 N 
HETATM    8  H   UNK N   1      37.638  14.086  11.180  0.00  0.00     0.153 HD
BRANCH   7   9
HETATM    9  C   UNK N   1      36.151  15.392  10.176  0.00  0.00     0.068 C 
HETATM   10  C   UNK N   1      35.197  14.478   9.426  0.00  0.00     0.031 C 
HETATM   11  C   UNK N   1      35.376  16.556  10.753  0.00  0.00     0.031 C 
ENDBRANCH   7   9
ENDBRANCH   6   7
ENDBRANCH   3   6
ENDBRANCH   2   3
ENDBRANCH   1   2
BRANCH   1  12
HETATM   12  C   UNK N   1      35.071  12.849  16.644  0.00  0.00     0.080 A 
HETATM   13  C   UNK N   1      35.171  11.462  16.836  0.00  0.00     0.007 A 
HETATM   14  C   UNK N   1      35.286  10.939  18.146  0.00  0.00    -0.023 A 
HETATM   15  C   UNK N   1      35.143  10.588  15.742  0.00  0.00     0.015 A 
HETATM   16  C   UNK N   1      35.306  11.801  19.244  0.00  0.00     0.012 A 
HETATM   17  C   UNK N   1      35.377   9.558  18.335  0.00  0.00     0.012 A 
HETATM   18  C   UNK N   1      35.205  13.183  19.050  0.00  0.00     0.004 A 
HETATM   19  C   UNK N   1      35.086  13.705  17.758  0.00  0.00     0.037 A 
HETATM   20  C   UNK N   1      35.348   8.695  17.235  0.00  0.00     0.001 A 
HETATM   21  C   UNK N   1      35.231   9.210  15.941  0.00  0.00     0.001 A 
ENDBRANCH   1  12
TORSDOF 7
ENDMDL
MODEL 8
REMARK VINA RESULT:      -5.9      1.336      3.037
REMARK  7 active torsions:
REMARK  status: ('A' for Active; 'I' for Inactive)
REMARK    1  A    between atoms: O_1  and  C_7 
REMARK    2  A    between atoms: O_1  and  C_10 
REMARK    3  A    between atoms: O_2  and  C_4 
REMARK    4  A    between atoms: N_3  and  C_5 
REMARK    5  A    between atoms: N_3  and  C_6 
REMARK    6  A    between atoms: C_4  and  C_5 
REMARK    7  A    between atoms: C_4  and  C_7 
ROOT
HETATM    1  O   UNK N   1      29.312  17.056   6.083  0.00  0.00    -0.348 OA
ENDROOT
BRANCH   1   2
HETATM    2  C   UNK N   1      28.443  16.013   5.868  0.00  0.00     0.209 C 
BRANCH   2   3
HETATM    3  C   UNK N   1      27.013  16.475   6.110  0.00  0.00     0.159 C 
BRANCH   3   4
HETATM    4  O   UNK N   1      26.745  16.569   7.478  0.00  0.00    -0.392 OA
HETATM    5  H   UNK N   1      26.666  17.413   7.949  0.00  0.00     0.210 HD
ENDBRANCH   3   4
BRANCH   3   6
HETATM    6  C   UNK N   1      26.853  17.844   5.493  0.00  0.00     0.147 C 
BRANCH   6   7
HETATM    7  N   UNK N   1      26.922  18.864   6.522  0.00  0.00    -0.415 N 
HETATM    8  H   UNK N   1      26.526  18.811   7.461  0.00  0.00     0.153 HD
BRANCH   7   9
HETATM    9  C   UNK N   1      27.666  19.977   5.956  0.00  0.00     0.068 C 
HETATM   10  C   UNK N   1      27.766  19.820   4.449  0.00  0.00     0.031 C 
HETATM   11  C   UNK N   1      26.957  21.274   6.275  0.00  0.00     0.031 C 
ENDBRANCH   7   9
ENDBRANCH   6   7
ENDBRANCH   3   6
ENDBRANCH   2   3
ENDBRANCH   1   2
BRANCH   1  12
HETATM   12  C   UNK N   1      30.543  17.146   5.527  0.00  0.00     0.080 A 
HETATM   13  C   UNK N   1      31.656  17.292   6.369  0.00  0.00     0.007 A 
HETATM   14  C   UNK N   1      32.953  17.388   5.812  0.00  0.00    -0.023 A 
HETATM   15  C   UNK N   1      31.493  17.358   7.759  0.00  0.00     0.015 A 
HETATM   16  C   UNK N   1      33.125  17.332   4.427  0.00  0.00     0.012 A 
HETATM   17  C   UNK N   1      34.059  17.542   6.652  0.00  0.00     0.012 A 
HETATM   18  C   UNK N   1      32.014  17.189   3.590  0.00  0.00     0.004 A 
HETATM   19  C   UNK N   1      30.729  17.098   4.134  0.00  0.00     0.037 A 
HETATM   20  C   UNK N   1      33.884  17.607   8.038  0.00  0.00     0.001 A 
HETATM   21  C   UNK N   1      32.603  17.515   8.590  0.00  0.00     0.001 A 
ENDBRANCH   1  12
TORSDOF 7
ENDMDL
MODEL 9
REMARK VINA RESULT:      -5.8     13.747     16.580
REMARK  7 active torsions:
REMARK  status: ('A' for Active; 'I' for Inactive)
REMARK    1  A    between atoms: O_1  and  C_7 
REMARK    2  A    between atoms: O_1  and  C_10 
REMARK    3  A    between atoms: O_2  and  C_4 
REMARK    4  A    between atoms: N_3  and  C_5 
REMARK    5  A    between atoms: N_3  and  C_6 
REMARK    6  A    between atoms: C_4  and  C_5 
REMARK    7  A    between atoms: C_4  and  C_7 
ROOT
HETATM    1  O   UNK N   1      25.607  25.646  -8.012  0.00  0.00    -0.348 OA
ENDROOT
BRANCH   1   2
HETATM    2  C   UNK N   1      25.848  24.541  -8.793  0.00  0.00     0.209 C 
BRANCH   2   3
HETATM    3  C   UNK N   1      25.204  23.314  -8.165  0.00  0.00     0.159 C 
BRANCH   3   4
HETATM    4  O   UNK N   1      25.121  22.268  -9.088  0.00  0.00    -0.392 OA
HETATM    5  H   UNK N   1      25.818  21.603  -9.205  0.00  0.00     0.210 HD
ENDBRANCH   3   4
BRANCH   3   6
HETATM    6  C   UNK N   1      26.070  22.870  -7.011  0.00  0.00     0.147 C 
BRANCH   6   7
HETATM    7  N   UNK N   1      25.716  23.604  -5.811  0.00  0.00    -0.415 N 
HETATM    8  H   UNK N   1      24.816  24.039  -5.606  0.00  0.00     0.153 HD
BRANCH   7   9
HETATM    9  C   UNK N   1      26.892  23.599  -4.957  0.00  0.00     0.068 C 
HETATM   10  C   UNK N   1      28.083  24.164  -5.713  0.00  0.00     0.031 C 
HETATM   11  C   UNK N   1      26.632  24.449  -3.733  0.00  0.00     0.031 C 
ENDBRANCH   7   9
ENDBRANCH   6   7
ENDBRANCH   3   6
ENDBRANCH   2   3
ENDBRANCH   1   2
BRANCH   1  12
HETATM   12  C   UNK N   1      26.520  26.613  -7.759  0.00  0.00     0.080 A 
HETATM   13  C   UNK N   1      26.405  27.358  -6.576  0.00  0.00     0.007 A 
HETATM   14  C   UNK N   1      27.348  28.373  -6.288  0.00  0.00    -0.023 A 
HETATM   15  C   UNK N   1      25.356  27.114  -5.680  0.00  0.00     0.015 A 
HETATM   16  C   UNK N   1      28.392  28.629  -7.179  0.00  0.00     0.012 A 
HETATM   17  C   UNK N   1      27.227  29.120  -5.113  0.00  0.00     0.012 A 
HETATM   18  C   UNK N   1      28.504  27.887  -8.359  0.00  0.00     0.004 A 
HETATM   19  C   UNK N   1      27.572  26.885  -8.650  0.00  0.00     0.037 A 
HETATM   20  C   UNK N   1      26.175  28.868  -4.227  0.00  0.00     0.001 A 
HETATM   21  C   UNK N   1      25.241  27.867  -4.510  0.00  0.00     0.001 A 
ENDBRANCH   1  12
TORSDOF 7
ENDMDL
