MODEL 1
REMARK VINA RESULT:      -6.7      0.000      0.000
REMARK  5 active torsions:
REMARK  status: ('A' for Active; 'I' for Inactive)
REMARK    1  A    between atoms: O_1  and  C_9 
REMARK    2  A    between atoms: O_1  and  C_13 
REMARK    3  A    between atoms: O_2  and  C_10 
REMARK    4  A    between atoms: C_4  and  C_5 
REMARK    5  A    between atoms: C_4  and  C_10 
ROOT
HETATM    1  C   UNK N   1      32.190  16.904   7.868  0.00  0.00    -0.042 A 
HETATM    2  C   UNK N   1      30.960  17.559   8.037  0.00  0.00     0.045 A 
HETATM    3  C   UNK N   1      32.283  15.845   6.951  0.00  0.00     0.008 A 
HETATM    4  C   UNK N   1      29.833  17.169   7.300  0.00  0.00     0.076 A 
HETATM    5  C   UNK N   1      31.164  15.441   6.223  0.00  0.00     0.003 A 
HETATM    6  C   UNK N   1      29.950  16.104   6.391  0.00  0.00     0.037 A 
ENDROOT
BRANCH   4   7
HETATM    7  O   UNK N   1      28.682  17.883   7.434  0.00  0.00    -0.311 OA
BRANCH   7   8
HETATM    8  C   UNK N   1      28.182  18.816   6.579  0.00  0.00     0.076 A 
HETATM    9  C   UNK N   1      28.222  18.654   5.181  0.00  0.00     0.037 A 
HETATM   10  C   UNK N   1      27.715  19.647   4.338  0.00  0.00     0.003 A 
HETATM   11  C   UNK N   1      27.169  20.812   4.882  0.00  0.00     0.000 A 
HETATM   12  C   UNK N   1      27.115  20.976   6.268  0.00  0.00     0.003 A 
HETATM   13  C   UNK N   1      27.613  19.979   7.112  0.00  0.00     0.037 A 
ENDBRANCH   7   8
ENDBRANCH   4   7
BRANCH   1  14
HETATM   14  C   UNK N   1      33.393  17.376   8.647  0.00  0.00     0.112 C 
HETATM   15  C   UNK N   1      34.104  16.184   9.274  0.00  0.00     0.026 C 
BRANCH  14  16
HETATM   16  C   UNK N   1      34.341  18.243   7.851  0.00  0.00     0.148 C 
HETATM   17  O   UNK N   1      34.415  18.099   6.640  0.00  0.00    -0.649 OA
BRANCH  16  18
HETATM   18  O   UNK N   1      35.092  19.185   8.453  0.00  0.00    -0.776 OA
HETATM   19  H   UNK N   1      35.481  19.284   9.300  0.00  0.00     0.167 HD
ENDBRANCH  16  18
ENDBRANCH  14  16
ENDBRANCH   1  14
TORSDOF 5
ENDMDL
MODEL 2
REMARK VINA RESULT:      -6.7      9.866     12.412
REMARK  5 active torsions:
REMARK  status: ('A' for Active; 'I' for Inactive)
REMARK    1  A    between atoms: O_1  and  C_9 
REMARK    2  A    between atoms: O_1  and  C_13 
REMARK    3  A    between atoms: O_2  and  C_10 
REMARK    4  A    between atoms: C_4  and  C_5 
REMARK    5  A    between atoms: C_4  and  C_10 
ROOT
HETATM    1  C   UNK N   1      19.820  16.230   8.431  0.00  0.00    -0.042 A 
HETATM    2  C   UNK N   1      20.216  15.015   9.011  0.00  0.00     0.045 A 
HETATM    3  C   UNK N   1      20.010  16.426   7.054  0.00  0.00     0.008 A 
HETATM    4  C   UNK N   1      20.791  14.002   8.232  0.00  0.00     0.076 A 
HETATM    5  C   UNK N   1      20.594  15.429   6.273  0.00  0.00     0.003 A 
HETATM    6  C   UNK N   1      20.974  14.222   6.857  0.00  0.00     0.037 A 
ENDROOT
BRANCH   4   7
HETATM    7  O   UNK N   1      21.084  12.809   8.820  0.00  0.00    -0.311 OA
BRANCH   7   8
HETATM    8  C   UNK N   1      22.081  12.547   9.709  0.00  0.00     0.076 A 
HETATM    9  C   UNK N   1      23.440  12.569   9.344  0.00  0.00     0.037 A 
HETATM   10  C   UNK N   1      24.431  12.273  10.283  0.00  0.00     0.003 A 
HETATM   11  C   UNK N   1      24.074  11.947  11.594  0.00  0.00     0.000 A 
HETATM   12  C   UNK N   1      22.729  11.933  11.968  0.00  0.00     0.003 A 
HETATM   13  C   UNK N   1      21.738  12.239  11.030  0.00  0.00     0.037 A 
ENDBRANCH   7   8
ENDBRANCH   4   7
BRANCH   1  14
HETATM   14  C   UNK N   1      19.166  17.283   9.291  0.00  0.00     0.112 C 
HETATM   15  C   UNK N   1      19.829  18.633   9.050  0.00  0.00     0.026 C 
BRANCH  14  16
HETATM   16  C   UNK N   1      17.664  17.358   9.139  0.00  0.00     0.148 C 
HETATM   17  O   UNK N   1      17.098  16.590   8.375  0.00  0.00    -0.649 OA
BRANCH  16  18
HETATM   18  O   UNK N   1      16.938  18.244   9.847  0.00  0.00    -0.776 OA
HETATM   19  H   UNK N   1      16.068  18.588   9.788  0.00  0.00     0.167 HD
ENDBRANCH  16  18
ENDBRANCH  14  16
ENDBRANCH   1  14
TORSDOF 5
ENDMDL
MODEL 3
REMARK VINA RESULT:      -6.6     10.921     14.440
REMARK  5 active torsions:
REMARK  status: ('A' for Active; 'I' for Inactive)
REMARK    1  A    between atoms: O_1  and  C_9 
REMARK    2  A    between atoms: O_1  and  C_13 
REMARK    3  A    between atoms: O_2  and  C_10 
REMARK    4  A    between atoms: C_4  and  C_5 
REMARK    5  A    between atoms: C_4  and  C_10 
ROOT
HETATM    1  C   UNK N   1      35.269  12.156  16.555  0.00  0.00    -0.042 A 
HETATM    2  C   UNK N   1      35.159  11.111  17.485  0.00  0.00     0.045 A 
HETATM    3  C   UNK N   1      35.342  13.480  17.017  0.00  0.00     0.008 A 
HETATM    4  C   UNK N   1      35.125  11.376  18.861  0.00  0.00     0.076 A 
HETATM    5  C   UNK N   1      35.296  13.755  18.383  0.00  0.00     0.003 A 
HETATM    6  C   UNK N   1      35.196  12.709  19.299  0.00  0.00     0.037 A 
ENDROOT
BRANCH   4   7
HETATM    7  O   UNK N   1      35.100  10.329  19.730  0.00  0.00    -0.311 OA
BRANCH   7   8
HETATM    8  C   UNK N   1      34.006   9.677  20.211  0.00  0.00     0.076 A 
HETATM    9  C   UNK N   1      33.361   8.656  19.489  0.00  0.00     0.037 A 
HETATM   10  C   UNK N   1      32.227   8.027  20.010  0.00  0.00     0.003 A 
HETATM   11  C   UNK N   1      31.725   8.415  21.255  0.00  0.00     0.000 A 
HETATM   12  C   UNK N   1      32.366   9.420  21.983  0.00  0.00     0.003 A 
HETATM   13  C   UNK N   1      33.506  10.042  21.466  0.00  0.00     0.037 A 
ENDBRANCH   7   8
ENDBRANCH   4   7
BRANCH   1  14
HETATM   14  C   UNK N   1      35.345  11.832  15.083  0.00  0.00     0.112 C 
HETATM   15  C   UNK N   1      34.032  11.214  14.621  0.00  0.00     0.026 C 
BRANCH  14  16
HETATM   16  C   UNK N   1      35.754  13.000  14.215  0.00  0.00     0.148 C 
HETATM   17  O   UNK N   1      34.899  13.625  13.606  0.00  0.00    -0.649 OA
BRANCH  16  18
HETATM   18  O   UNK N   1      37.044  13.375  14.117  0.00  0.00    -0.776 OA
HETATM   19  H   UNK N   1      37.842  12.952  13.865  0.00  0.00     0.167 HD
ENDBRANCH  16  18
ENDBRANCH  14  16
ENDBRANCH   1  14
TORSDOF 5
ENDMDL
MODEL 4
REMARK VINA RESULT:      -6.5     11.025     13.473
REMARK  5 active torsions:
REMARK  status: ('A' for Active; 'I' for Inactive)
REMARK    1  A    between atoms: O_1  and  C_9 
REMARK    2  A    between atoms: O_1  and  C_13 
REMARK    3  A    between atoms: O_2  and  C_10 
REMARK    4  A    between atoms: C_4  and  C_5 
REMARK    5  A    between atoms: C_4  and  C_10 
ROOT
HETATM    1  C   UNK N   1      29.854  23.192  -4.788  0.00  0.00    -0.042 A 
HETATM    2  C   UNK N   1      28.561  23.675  -4.530  0.00  0.00     0.045 A 
HETATM    3  C   UNK N   1      30.088  22.452  -5.957  0.00  0.00     0.008 A 
HETATM    4  C   UNK N   1      27.512  23.428  -5.426  0.00  0.00     0.076 A 
HETATM    5  C   UNK N   1      29.048  22.190  -6.848  0.00  0.00     0.003 A 
HETATM    6  C   UNK N   1      27.771  22.682  -6.588  0.00  0.00     0.037 A 
ENDROOT
BRANCH   4   7
HETATM    7  O   UNK N   1      26.294  23.984  -5.178  0.00  0.00    -0.311 OA
BRANCH   7   8
HETATM    8  C   UNK N   1      26.022  25.285  -4.882  0.00  0.00     0.076 A 
HETATM    9  C   UNK N   1      26.447  25.888  -3.684  0.00  0.00     0.037 A 
HETATM   10  C   UNK N   1      26.128  27.221  -3.410  0.00  0.00     0.003 A 
HETATM   11  C   UNK N   1      25.378  27.961  -4.327  0.00  0.00     0.000 A 
HETATM   12  C   UNK N   1      24.962  27.373  -5.524  0.00  0.00     0.003 A 
HETATM   13  C   UNK N   1      25.289  26.043  -5.802  0.00  0.00     0.037 A 
ENDBRANCH   7   8
ENDBRANCH   4   7
BRANCH   1  14
HETATM   14  C   UNK N   1      30.969  23.511  -3.823  0.00  0.00     0.112 C 
HETATM   15  C   UNK N   1      30.939  24.992  -3.468  0.00  0.00     0.026 C 
BRANCH  14  16
HETATM   16  C   UNK N   1      30.987  22.637  -2.589  0.00  0.00     0.148 C 
HETATM   17  O   UNK N   1      30.482  23.047  -1.555  0.00  0.00    -0.649 OA
BRANCH  16  18
HETATM   18  O   UNK N   1      31.533  21.406  -2.618  0.00  0.00    -0.776 OA
HETATM   19  H   UNK N   1      32.396  21.060  -2.503  0.00  0.00     0.167 HD
ENDBRANCH  16  18
ENDBRANCH  14  16
ENDBRANCH   1  14
TORSDOF 5
ENDMDL
MODEL 5
REMARK VINA RESULT:      -6.5     10.718     14.326
REMARK  5 active torsions:
REMARK  status: ('A' for Active; 'I' for Inactive)
REMARK    1  A    between atoms: O_1  and  C_9 
REMARK    2  A    between atoms: O_1  and  C_13 
REMARK    3  A    between atoms: O_2  and  C_10 
REMARK    4  A    between atoms: C_4  and  C_5 
REMARK    5  A    between atoms: C_4  and  C_10 
ROOT
HETATM    1  C   UNK N   1      35.767  12.363  16.404  0.00  0.00    -0.042 A 
HETATM    2  C   UNK N   1      35.619  11.269  17.271  0.00  0.00     0.045 A 
HETATM    3  C   UNK N   1      35.596  13.663  16.906  0.00  0.00     0.008 A 
HETATM    4  C   UNK N   1      35.307  11.463  18.624  0.00  0.00     0.076 A 
HETATM    5  C   UNK N   1      35.272  13.866  18.247  0.00  0.00     0.003 A 
HETATM    6  C   UNK N   1      35.137  12.773  19.102  0.00  0.00     0.037 A 
ENDROOT
BRANCH   4   7
HETATM    7  O   UNK N   1      35.253  10.380  19.446  0.00  0.00    -0.311 OA
BRANCH   7   8
HETATM    8  C   UNK N   1      34.147   9.823  20.011  0.00  0.00     0.076 A 
HETATM    9  C   UNK N   1      33.701  10.174  21.299  0.00  0.00     0.037 A 
HETATM   10  C   UNK N   1      32.572   9.563  21.850  0.00  0.00     0.003 A 
HETATM   11  C   UNK N   1      31.881   8.590  21.122  0.00  0.00     0.000 A 
HETATM   12  C   UNK N   1      32.310   8.243  19.839  0.00  0.00     0.003 A 
HETATM   13  C   UNK N   1      33.434   8.863  19.284  0.00  0.00     0.037 A 
ENDBRANCH   7   8
ENDBRANCH   4   7
BRANCH   1  14
HETATM   14  C   UNK N   1      36.144  12.120  14.963  0.00  0.00     0.112 C 
HETATM   15  C   UNK N   1      35.450  10.865  14.452  0.00  0.00     0.026 C 
BRANCH  14  16
HETATM   16  C   UNK N   1      35.906  13.305  14.056  0.00  0.00     0.148 C 
HETATM   17  O   UNK N   1      34.791  13.496  13.596  0.00  0.00    -0.649 OA
BRANCH  16  18
HETATM   18  O   UNK N   1      36.901  14.165  13.761  0.00  0.00    -0.776 OA
HETATM   19  H   UNK N   1      36.945  15.058  13.482  0.00  0.00     0.167 HD
ENDBRANCH  16  18
ENDBRANCH  14  16
ENDBRANCH   1  14
TORSDOF 5
ENDMDL
MODEL 6
REMARK VINA RESULT:      -6.4      1.770      2.162
REMARK  5 active torsions:
REMARK  status: ('A' for Active; 'I' for Inactive)
REMARK    1  A    between atoms: O_1  and  C_9 
REMARK    2  A    between atoms: O_1  and  C_13 
REMARK    3  A    between atoms: O_2  and  C_10 
REMARK    4  A    between atoms: C_4  and  C_5 
REMARK    5  A    between atoms: C_4  and  C_10 
ROOT
HETATM    1  C   UNK N   1      32.830  16.754   6.150  0.00  0.00    -0.042 A 
HETATM    2  C   UNK N   1      31.441  16.798   6.351  0.00  0.00     0.045 A 
HETATM    3  C   UNK N   1      33.353  17.102   4.895  0.00  0.00     0.008 A 
HETATM    4  C   UNK N   1      30.580  17.188   5.316  0.00  0.00     0.076 A 
HETATM    5  C   UNK N   1      32.503  17.478   3.856  0.00  0.00     0.003 A 
HETATM    6  C   UNK N   1      31.127  17.529   4.068  0.00  0.00     0.037 A 
ENDROOT
BRANCH   4   7
HETATM    7  O   UNK N   1      29.248  17.296   5.577  0.00  0.00    -0.311 OA
BRANCH   7   8
HETATM    8  C   UNK N   1      28.517  18.439   5.690  0.00  0.00     0.076 A 
HETATM    9  C   UNK N   1      28.212  19.017   6.936  0.00  0.00     0.037 A 
HETATM   10  C   UNK N   1      27.440  20.180   7.008  0.00  0.00     0.003 A 
HETATM   11  C   UNK N   1      26.960  20.772   5.836  0.00  0.00     0.000 A 
HETATM   12  C   UNK N   1      27.267  20.210   4.595  0.00  0.00     0.003 A 
HETATM   13  C   UNK N   1      28.048  19.053   4.523  0.00  0.00     0.037 A 
ENDBRANCH   7   8
ENDBRANCH   4   7
BRANCH   1  14
HETATM   14  C   UNK N   1      33.732  16.370   7.298  0.00  0.00     0.112 C 
HETATM   15  C   UNK N   1      34.929  15.587   6.776  0.00  0.00     0.026 C 
BRANCH  14  16
HETATM   16  C   UNK N   1      34.154  17.533   8.166  0.00  0.00     0.148 C 
HETATM   17  O   UNK N   1      34.739  18.478   7.661  0.00  0.00    -0.649 OA
BRANCH  16  18
HETATM   18  O   UNK N   1      33.879  17.551   9.484  0.00  0.00    -0.776 OA
HETATM   19  H   UNK N   1      33.101  17.474  10.002  0.00  0.00     0.167 HD
ENDBRANCH  16  18
ENDBRANCH  14  16
ENDBRANCH   1  14
TORSDOF 5
ENDMDL
MODEL 7
REMARK VINA RESULT:      -6.4      1.365      2.203
REMARK  5 active torsions:
REMARK  status: ('A' for Active; 'I' for Inactive)
REMARK    1  A    between atoms: O_1  and  C_9 
REMARK    2  A    between atoms: O_1  and  C_13 
REMARK    3  A    between atoms: O_2  and  C_10 
REMARK    4  A    between atoms: C_4  and  C_5 
REMARK    5  A    between atoms: C_4  and  C_10 
ROOT
HETATM    1  C   UNK N   1      31.478  17.540   7.997  0.00  0.00    -0.042 A 
HETATM    2  C   UNK N   1      30.800  17.283   6.795  0.00  0.00     0.045 A 
HETATM    3  C   UNK N   1      30.802  18.192   9.039  0.00  0.00     0.008 A 
HETATM    4  C   UNK N   1      29.463  17.666   6.631  0.00  0.00     0.076 A 
HETATM    5  C   UNK N   1      29.475  18.590   8.880  0.00  0.00     0.003 A 
HETATM    6  C   UNK N   1      28.808  18.321   7.687  0.00  0.00     0.037 A 
ENDROOT
BRANCH   4   7
HETATM    7  O   UNK N   1      28.819  17.325   5.480  0.00  0.00    -0.311 OA
BRANCH   7   8
HETATM    8  C   UNK N   1      27.839  18.021   4.842  0.00  0.00     0.076 A 
HETATM    9  C   UNK N   1      26.602  17.440   4.502  0.00  0.00     0.037 A 
HETATM   10  C   UNK N   1      25.631  18.185   3.828  0.00  0.00     0.003 A 
HETATM   11  C   UNK N   1      25.888  19.514   3.481  0.00  0.00     0.000 A 
HETATM   12  C   UNK N   1      27.107  20.101   3.824  0.00  0.00     0.003 A 
HETATM   13  C   UNK N   1      28.075  19.359   4.508  0.00  0.00     0.037 A 
ENDBRANCH   7   8
ENDBRANCH   4   7
BRANCH   1  14
HETATM   14  C   UNK N   1      32.906  17.076   8.155  0.00  0.00     0.112 C 
HETATM   15  C   UNK N   1      33.049  15.653   7.631  0.00  0.00     0.026 C 
BRANCH  14  16
HETATM   16  C   UNK N   1      33.928  18.007   7.544  0.00  0.00     0.148 C 
HETATM   17  O   UNK N   1      34.189  17.915   6.354  0.00  0.00    -0.649 OA
BRANCH  16  18
HETATM   18  O   UNK N   1      34.542  18.948   8.287  0.00  0.00    -0.776 OA
HETATM   19  H   UNK N   1      35.419  19.091   8.586  0.00  0.00     0.167 HD
ENDBRANCH  16  18
ENDBRANCH  14  16
ENDBRANCH   1  14
TORSDOF 5
ENDMDL
MODEL 8
REMARK VINA RESULT:      -6.3      6.153     10.472
REMARK  5 active torsions:
REMARK  status: ('A' for Active; 'I' for Inactive)
REMARK    1  A    between atoms: O_1  and  C_9 
REMARK    2  A    between atoms: O_1  and  C_13 
REMARK    3  A    between atoms: O_2  and  C_10 
REMARK    4  A    between atoms: C_4  and  C_5 
REMARK    5  A    between atoms: C_4  and  C_10 
ROOT
HETATM    1  C   UNK N   1      35.740  14.159  10.911  0.00  0.00    -0.042 A 
HETATM    2  C   UNK N   1      34.963  14.040  12.074  0.00  0.00     0.045 A 
HETATM    3  C   UNK N   1      36.957  13.465  10.826  0.00  0.00     0.008 A 
HETATM    4  C   UNK N   1      35.388  13.237  13.141  0.00  0.00     0.076 A 
HETATM    5  C   UNK N   1      37.394  12.674  11.887  0.00  0.00     0.003 A 
HETATM    6  C   UNK N   1      36.611  12.555  13.034  0.00  0.00     0.037 A 
ENDROOT
BRANCH   4   7
HETATM    7  O   UNK N   1      34.565  13.084  14.215  0.00  0.00    -0.311 OA
BRANCH   7   8
HETATM    8  C   UNK N   1      34.730  12.241  15.271  0.00  0.00     0.076 A 
HETATM    9  C   UNK N   1      34.462  10.862  15.182  0.00  0.00     0.037 A 
HETATM   10  C   UNK N   1      34.625  10.035  16.296  0.00  0.00     0.003 A 
HETATM   11  C   UNK N   1      35.051  10.578  17.511  0.00  0.00     0.000 A 
HETATM   12  C   UNK N   1      35.329  11.943  17.606  0.00  0.00     0.003 A 
HETATM   13  C   UNK N   1      35.176  12.769  16.488  0.00  0.00     0.037 A 
ENDBRANCH   7   8
ENDBRANCH   4   7
BRANCH   1  14
HETATM   14  C   UNK N   1      35.232  15.000   9.765  0.00  0.00     0.112 C 
HETATM   15  C   UNK N   1      33.894  14.457   9.279  0.00  0.00     0.026 C 
BRANCH  14  16
HETATM   16  C   UNK N   1      35.164  16.479  10.067  0.00  0.00     0.148 C 
HETATM   17  O   UNK N   1      36.131  17.036  10.563  0.00  0.00    -0.649 OA
BRANCH  16  18
HETATM   18  O   UNK N   1      34.060  17.196   9.781  0.00  0.00    -0.776 OA
HETATM   19  H   UNK N   1      33.151  16.998   9.665  0.00  0.00     0.167 HD
ENDBRANCH  16  18
ENDBRANCH  14  16
ENDBRANCH   1  14
TORSDOF 5
ENDMDL
MODEL 9
REMARK VINA RESULT:      -6.2     11.246     14.628
REMARK  5 active torsions:
REMARK  status: ('A' for Active; 'I' for Inactive)
REMARK    1  A    between atoms: O_1  and  C_9 
REMARK    2  A    between atoms: O_1  and  C_13 
REMARK    3  A    between atoms: O_2  and  C_10 
REMARK    4  A    between atoms: C_4  and  C_5 
REMARK    5  A    between atoms: C_4  and  C_10 
ROOT
HETATM    1  C   UNK N   1      35.869  11.725  16.763  0.00  0.00    -0.042 A 
HETATM    2  C   UNK N   1      35.546  11.238  18.039  0.00  0.00     0.045 A 
HETATM    3  C   UNK N   1      36.573  10.900  15.872  0.00  0.00     0.008 A 
HETATM    4  C   UNK N   1      35.916   9.943  18.426  0.00  0.00     0.076 A 
HETATM    5  C   UNK N   1      36.957   9.615  16.253  0.00  0.00     0.003 A 
HETATM    6  C   UNK N   1      36.623   9.137  17.519  0.00  0.00     0.037 A 
ENDROOT
BRANCH   4   7
HETATM    7  O   UNK N   1      35.512   9.482  19.642  0.00  0.00    -0.311 OA
BRANCH   7   8
HETATM    8  C   UNK N   1      34.237   9.377  20.106  0.00  0.00     0.076 A 
HETATM    9  C   UNK N   1      33.802  10.041  21.269  0.00  0.00     0.037 A 
HETATM   10  C   UNK N   1      32.489   9.890  21.723  0.00  0.00     0.003 A 
HETATM   11  C   UNK N   1      31.600   9.071  21.023  0.00  0.00     0.000 A 
HETATM   12  C   UNK N   1      32.019   8.418  19.862  0.00  0.00     0.003 A 
HETATM   13  C   UNK N   1      33.330   8.577  19.402  0.00  0.00     0.037 A 
ENDBRANCH   7   8
ENDBRANCH   4   7
BRANCH   1  14
HETATM   14  C   UNK N   1      35.419  13.109  16.363  0.00  0.00     0.112 C 
HETATM   15  C   UNK N   1      35.346  14.005  17.593  0.00  0.00     0.026 C 
BRANCH  14  16
HETATM   16  C   UNK N   1      36.245  13.732  15.262  0.00  0.00     0.148 C 
HETATM   17  O   UNK N   1      35.775  13.831  14.139  0.00  0.00    -0.649 OA
BRANCH  16  18
HETATM   18  O   UNK N   1      37.486  14.198  15.504  0.00  0.00    -0.776 OA
HETATM   19  H   UNK N   1      37.842  14.999  15.836  0.00  0.00     0.167 HD
ENDBRANCH  16  18
ENDBRANCH  14  16
ENDBRANCH   1  14
TORSDOF 5
ENDMDL
