REMARK  5 active torsions:
REMARK  status: ('A' for Active; 'I' for Inactive)
REMARK    1  A    between atoms: O_1  and  C_9 
REMARK    2  A    between atoms: O_1  and  C_13 
REMARK    3  A    between atoms: O_2  and  C_10 
REMARK    4  A    between atoms: C_4  and  C_5 
REMARK    5  A    between atoms: C_4  and  C_10 
ROOT
HETATM    1  C   UNK N   1       3.948   1.854   0.044  0.00  0.00    -0.042 A 
HETATM    2  C   UNK N   1       2.788   1.105  -0.208  0.00  0.00     0.045 A 
HETATM    3  C   UNK N   1       5.108   1.195   0.480  0.00  0.00     0.008 A 
HETATM    4  C   UNK N   1       2.780  -0.285  -0.032  0.00  0.00     0.076 A 
HETATM    5  C   UNK N   1       5.106  -0.186   0.671  0.00  0.00     0.003 A 
HETATM    6  C   UNK N   1       3.952  -0.922   0.409  0.00  0.00     0.037 A 
ENDROOT
BRANCH   4   7
HETATM    7  O   UNK N   1       1.659  -0.982  -0.366  0.00  0.00    -0.311 OA
BRANCH   7   8
HETATM    8  C   UNK N   1       1.439  -2.317  -0.218  0.00  0.00     0.076 A 
HETATM    9  C   UNK N   1       2.141  -3.096   0.721  0.00  0.00     0.037 A 
HETATM   10  C   UNK N   1       1.899  -4.468   0.826  0.00  0.00     0.003 A 
HETATM   11  C   UNK N   1       0.958  -5.076  -0.009  0.00  0.00     0.000 A 
HETATM   12  C   UNK N   1       0.249  -4.309  -0.936  0.00  0.00     0.003 A 
HETATM   13  C   UNK N   1       0.484  -2.934  -1.034  0.00  0.00     0.037 A 
ENDBRANCH   7   8
ENDBRANCH   4   7
BRANCH   1  14
HETATM   14  C   UNK N   1       3.934   3.344  -0.196  0.00  0.00     0.112 C 
HETATM   15  C   UNK N   1       3.016   4.022   0.813  0.00  0.00     0.026 C 
BRANCH  14  16
HETATM   16  C   UNK N   1       5.306   3.977  -0.223  0.00  0.00     0.148 C 
HETATM   17  O   UNK N   1       6.119   3.615  -1.060  0.00  0.00    -0.649 OA
BRANCH  16  18
HETATM   18  O   UNK N   1       5.640   4.948   0.649  0.00  0.00    -0.776 OA
HETATM   19  H   UNK N   1       6.342   5.084   1.255  0.00  0.00     0.167 HD
ENDBRANCH  16  18
ENDBRANCH  14  16
ENDBRANCH   1  14
TORSDOF 5
