MODEL 1
REMARK VINA RESULT:      -5.7      0.000      0.000
REMARK  1 active torsions:
REMARK  status: ('A' for Active; 'I' for Inactive)
REMARK       I    between atoms: N_4  and  C_9 
REMARK    1  A    between atoms: N_4  and  C_10 
ROOT
HETATM    1  N   UNK N   1      37.301  13.762  11.922  0.00  0.00    -0.225 N 
HETATM    2  N   UNK N   1      36.936  13.680  14.358  0.00  0.00    -0.189 N 
HETATM    3  N   UNK N   1      35.227  13.805  12.695  0.00  0.00    -0.225 N 
ATOM      4  HN  UNK N   1      34.455  13.806  13.363  1.00  0.00     0.177 HD
HETATM    5  C   UNK N   1      36.511  13.836  10.721  0.00  0.00     0.158 A 
HETATM    6  C   UNK N   1      35.062  13.866  11.262  0.00  0.00     0.158 A 
HETATM    7  C   UNK N   1      36.445  13.750  13.016  0.00  0.00     0.674 A 
HETATM    8  H   UNK N   1      38.284  13.726  11.959  0.00  0.00     0.177 HD
HETATM    9  H   UNK N   1      37.918  13.644  14.394  0.00  0.00     0.184 HD
ENDROOT
BRANCH   2  10
HETATM   10  C   UNK N   1      36.340  13.650  15.667  0.00  0.00     0.092 A 
HETATM   11  C   UNK N   1      35.517  12.603  16.211  0.00  0.00     0.063 A 
HETATM   12 Cl   UNK N   1      35.035  11.115  15.427  0.00  0.00    -0.082 Cl
HETATM   13  C   UNK N   1      35.014  12.729  17.509  0.00  0.00     0.026 A 
HETATM   14  C   UNK N   1      35.289  13.844  18.289  0.00  0.00     0.003 A 
HETATM   15  C   UNK N   1      36.080  14.861  17.781  0.00  0.00     0.026 A 
HETATM   16  C   UNK N   1      36.602  14.773  16.491  0.00  0.00     0.063 A 
HETATM   17 Cl   UNK N   1      37.596  16.107  15.919  0.00  0.00    -0.082 Cl
ENDBRANCH   2  10
TORSDOF 1
ENDMDL
MODEL 2
REMARK VINA RESULT:      -5.4     15.745     17.694
REMARK  1 active torsions:
REMARK  status: ('A' for Active; 'I' for Inactive)
REMARK       I    between atoms: N_4  and  C_9 
REMARK    1  A    between atoms: N_4  and  C_10 
ROOT
HETATM    1  N   UNK N   1      45.634  25.438   2.575  0.00  0.00    -0.225 N 
HETATM    2  N   UNK N   1      43.804  23.817   2.886  0.00  0.00    -0.189 N 
HETATM    3  N   UNK N   1      45.366  23.826   1.080  0.00  0.00    -0.225 N 
ATOM      4  HN  UNK N   1      44.971  23.005   0.619  1.00  0.00     0.177 HD
HETATM    5  C   UNK N   1      46.692  25.694   1.631  0.00  0.00     0.158 A 
HETATM    6  C   UNK N   1      46.503  24.567   0.588  0.00  0.00     0.158 A 
HETATM    7  C   UNK N   1      44.922  24.322   2.151  0.00  0.00     0.674 A 
HETATM    8  H   UNK N   1      45.448  25.967   3.384  0.00  0.00     0.177 HD
HETATM    9  H   UNK N   1      43.619  24.346   3.694  0.00  0.00     0.184 HD
ENDROOT
BRANCH   2  10
HETATM   10  C   UNK N   1      42.884  22.722   2.728  0.00  0.00     0.092 A 
HETATM   11  C   UNK N   1      41.609  22.762   2.062  0.00  0.00     0.063 A 
HETATM   12 Cl   UNK N   1      40.862  24.137   1.281  0.00  0.00    -0.082 Cl
HETATM   13  C   UNK N   1      40.832  21.602   1.996  0.00  0.00     0.026 A 
HETATM   14  C   UNK N   1      41.260  20.409   2.561  0.00  0.00     0.003 A 
HETATM   15  C   UNK N   1      42.485  20.353   3.206  0.00  0.00     0.026 A 
HETATM   16  C   UNK N   1      43.290  21.487   3.293  0.00  0.00     0.063 A 
HETATM   17 Cl   UNK N   1      44.830  21.334   4.129  0.00  0.00    -0.082 Cl
ENDBRANCH   2  10
TORSDOF 1
ENDMDL
MODEL 3
REMARK VINA RESULT:      -5.4     13.725     15.297
REMARK  1 active torsions:
REMARK  status: ('A' for Active; 'I' for Inactive)
REMARK       I    between atoms: N_4  and  C_9 
REMARK    1  A    between atoms: N_4  and  C_10 
ROOT
HETATM    1  N   UNK N   1      20.340  14.844   7.003  0.00  0.00    -0.225 N 
HETATM    2  N   UNK N   1      21.742  13.450   8.474  0.00  0.00    -0.189 N 
HETATM    3  N   UNK N   1      20.843  15.592   9.026  0.00  0.00    -0.225 N 
ATOM      4  HN  UNK N   1      21.247  15.617   9.963  1.00  0.00     0.177 HD
HETATM    5  C   UNK N   1      19.677  16.122   7.049  0.00  0.00     0.158 A 
HETATM    6  C   UNK N   1      20.029  16.643   8.463  0.00  0.00     0.158 A 
HETATM    7  C   UNK N   1      20.991  14.638   8.214  0.00  0.00     0.674 A 
HETATM    8  H   UNK N   1      20.333  14.222   6.240  0.00  0.00     0.177 HD
HETATM    9  H   UNK N   1      21.734  12.829   7.711  0.00  0.00     0.184 HD
ENDROOT
BRANCH   2  10
HETATM   10  C   UNK N   1      22.508  12.943   9.581  0.00  0.00     0.092 A 
HETATM   11  C   UNK N   1      21.987  12.445  10.828  0.00  0.00     0.063 A 
HETATM   12 Cl   UNK N   1      20.309  12.332  11.308  0.00  0.00    -0.082 Cl
HETATM   13  C   UNK N   1      22.872  11.986  11.807  0.00  0.00     0.026 A 
HETATM   14  C   UNK N   1      24.245  11.997  11.607  0.00  0.00     0.003 A 
HETATM   15  C   UNK N   1      24.763  12.472  10.413  0.00  0.00     0.026 A 
HETATM   16  C   UNK N   1      23.914  12.940   9.411  0.00  0.00     0.063 A 
HETATM   17 Cl   UNK N   1      24.650  13.527   7.925  0.00  0.00    -0.082 Cl
ENDBRANCH   2  10
TORSDOF 1
ENDMDL
MODEL 4
REMARK VINA RESULT:      -5.4      6.487      9.252
REMARK  1 active torsions:
REMARK  status: ('A' for Active; 'I' for Inactive)
REMARK       I    between atoms: N_4  and  C_9 
REMARK    1  A    between atoms: N_4  and  C_10 
ROOT
HETATM    1  N   UNK N   1      34.937  17.181  10.455  0.00  0.00    -0.225 N 
HETATM    2  N   UNK N   1      33.159  17.633   8.809  0.00  0.00    -0.189 N 
HETATM    3  N   UNK N   1      33.561  15.541   9.888  0.00  0.00    -0.225 N 
ATOM      4  HN  UNK N   1      32.795  15.054   9.421  1.00  0.00     0.177 HD
HETATM    5  C   UNK N   1      35.412  16.074  11.244  0.00  0.00     0.158 A 
HETATM    6  C   UNK N   1      34.449  14.929  10.847  0.00  0.00     0.158 A 
HETATM    7  C   UNK N   1      33.851  16.754   9.700  0.00  0.00     0.674 A 
HETATM    8  H   UNK N   1      35.319  18.088  10.452  0.00  0.00     0.177 HD
HETATM    9  H   UNK N   1      33.542  18.539   8.807  0.00  0.00     0.184 HD
ENDROOT
BRANCH   2  10
HETATM   10  C   UNK N   1      32.038  17.513   7.916  0.00  0.00     0.092 A 
HETATM   11  C   UNK N   1      30.655  17.742   8.240  0.00  0.00     0.063 A 
HETATM   12 Cl   UNK N   1      29.991  18.219   9.786  0.00  0.00    -0.082 Cl
HETATM   13  C   UNK N   1      29.682  17.581   7.249  0.00  0.00     0.026 A 
HETATM   14  C   UNK N   1      30.017  17.205   5.956  0.00  0.00     0.003 A 
HETATM   15  C   UNK N   1      31.345  16.980   5.628  0.00  0.00     0.026 A 
HETATM   16  C   UNK N   1      32.345  17.130   6.586  0.00  0.00     0.063 A 
HETATM   17 Cl   UNK N   1      34.005  16.827   6.089  0.00  0.00    -0.082 Cl
ENDBRANCH   2  10
TORSDOF 1
ENDMDL
MODEL 5
REMARK VINA RESULT:      -5.3      7.945     10.387
REMARK  1 active torsions:
REMARK  status: ('A' for Active; 'I' for Inactive)
REMARK       I    between atoms: N_4  and  C_9 
REMARK    1  A    between atoms: N_4  and  C_10 
ROOT
HETATM    1  N   UNK N   1      33.463  16.508   9.330  0.00  0.00    -0.225 N 
HETATM    2  N   UNK N   1      31.234  16.920   8.362  0.00  0.00    -0.189 N 
HETATM    3  N   UNK N   1      33.198  18.208   7.936  0.00  0.00    -0.225 N 
ATOM      4  HN  UNK N   1      32.739  18.859   7.298  1.00  0.00     0.177 HD
HETATM    5  C   UNK N   1      34.781  17.083   9.268  0.00  0.00     0.158 A 
HETATM    6  C   UNK N   1      34.595  18.271   8.294  0.00  0.00     0.158 A 
HETATM    7  C   UNK N   1      32.618  17.248   8.511  0.00  0.00     0.674 A 
HETATM    8  H   UNK N   1      33.205  15.722   9.863  0.00  0.00     0.177 HD
HETATM    9  H   UNK N   1      30.977  16.134   8.895  0.00  0.00     0.184 HD
ENDROOT
BRANCH   2  10
HETATM   10  C   UNK N   1      30.126  17.461   7.620  0.00  0.00     0.092 A 
HETATM   11  C   UNK N   1      29.782  17.166   6.254  0.00  0.00     0.063 A 
HETATM   12 Cl   UNK N   1      30.615  16.085   5.159  0.00  0.00    -0.082 Cl
HETATM   13  C   UNK N   1      28.666  17.780   5.679  0.00  0.00     0.026 A 
HETATM   14  C   UNK N   1      27.879  18.671   6.394  0.00  0.00     0.003 A 
HETATM   15  C   UNK N   1      28.196  18.967   7.710  0.00  0.00     0.026 A 
HETATM   16  C   UNK N   1      29.300  18.375   8.321  0.00  0.00     0.063 A 
HETATM   17 Cl   UNK N   1      29.635  18.803   9.994  0.00  0.00    -0.082 Cl
ENDBRANCH   2  10
TORSDOF 1
ENDMDL
MODEL 6
REMARK VINA RESULT:      -5.2      6.704      9.524
REMARK  1 active torsions:
REMARK  status: ('A' for Active; 'I' for Inactive)
REMARK       I    between atoms: N_4  and  C_9 
REMARK    1  A    between atoms: N_4  and  C_10 
ROOT
HETATM    1  N   UNK N   1      34.650  17.070  10.354  0.00  0.00    -0.225 N 
HETATM    2  N   UNK N   1      32.819  17.452   8.748  0.00  0.00    -0.189 N 
HETATM    3  N   UNK N   1      34.379  15.646   8.680  0.00  0.00    -0.225 N 
ATOM      4  HN  UNK N   1      33.984  15.221   7.840  1.00  0.00     0.177 HD
HETATM    5  C   UNK N   1      35.707  16.116  10.568  0.00  0.00     0.158 A 
HETATM    6  C   UNK N   1      35.517  15.122   9.398  0.00  0.00     0.158 A 
HETATM    7  C   UNK N   1      33.937  16.696   9.221  0.00  0.00     0.674 A 
HETATM    8  H   UNK N   1      34.465  17.856  10.916  0.00  0.00     0.177 HD
HETATM    9  H   UNK N   1      32.635  18.237   9.312  0.00  0.00     0.184 HD
ENDROOT
BRANCH   2  10
HETATM   10  C   UNK N   1      31.898  17.342   7.648  0.00  0.00     0.092 A 
HETATM   11  C   UNK N   1      32.236  17.239   6.253  0.00  0.00     0.063 A 
HETATM   12 Cl   UNK N   1      33.837  17.221   5.547  0.00  0.00    -0.082 Cl
HETATM   13  C   UNK N   1      31.215  17.139   5.304  0.00  0.00     0.026 A 
HETATM   14  C   UNK N   1      29.878  17.137   5.675  0.00  0.00     0.003 A 
HETATM   15  C   UNK N   1      29.535  17.236   7.014  0.00  0.00     0.026 A 
HETATM   16  C   UNK N   1      30.523  17.337   7.991  0.00  0.00     0.063 A 
HETATM   17 Cl   UNK N   1      30.005  17.458   9.668  0.00  0.00    -0.082 Cl
ENDBRANCH   2  10
TORSDOF 1
ENDMDL
MODEL 7
REMARK VINA RESULT:      -5.2      2.061      2.893
REMARK  1 active torsions:
REMARK  status: ('A' for Active; 'I' for Inactive)
REMARK       I    between atoms: N_4  and  C_9 
REMARK    1  A    between atoms: N_4  and  C_10 
ROOT
HETATM    1  N   UNK N   1      36.500  15.262  12.799  0.00  0.00    -0.225 N 
HETATM    2  N   UNK N   1      36.693  13.563  14.574  0.00  0.00    -0.189 N 
HETATM    3  N   UNK N   1      35.140  13.515  12.761  0.00  0.00    -0.225 N 
ATOM      4  HN  UNK N   1      34.706  12.635  13.041  1.00  0.00     0.177 HD
HETATM    5  C   UNK N   1      35.701  15.501  11.626  0.00  0.00     0.158 A 
HETATM    6  C   UNK N   1      34.751  14.280  11.600  0.00  0.00     0.158 A 
HETATM    7  C   UNK N   1      36.085  14.072  13.384  0.00  0.00     0.674 A 
HETATM    8  H   UNK N   1      37.220  15.846  13.131  0.00  0.00     0.177 HD
HETATM    9  H   UNK N   1      37.412  14.147  14.904  0.00  0.00     0.184 HD
ENDROOT
BRANCH   2  10
HETATM   10  C   UNK N   1      36.507  12.404  15.406  0.00  0.00     0.092 A 
HETATM   11  C   UNK N   1      35.774  12.344  16.642  0.00  0.00     0.063 A 
HETATM   12 Cl   UNK N   1      34.930  13.651  17.442  0.00  0.00    -0.082 Cl
HETATM   13  C   UNK N   1      35.688  11.131  17.332  0.00  0.00     0.026 A 
HETATM   14  C   UNK N   1      36.295   9.979  16.852  0.00  0.00     0.003 A 
HETATM   15  C   UNK N   1      37.005  10.019  15.663  0.00  0.00     0.026 A 
HETATM   16  C   UNK N   1      37.114  11.209  14.945  0.00  0.00     0.063 A 
HETATM   17 Cl   UNK N   1      38.032  11.177  13.445  0.00  0.00    -0.082 Cl
ENDBRANCH   2  10
TORSDOF 1
ENDMDL
MODEL 8
REMARK VINA RESULT:      -5.1     24.249     25.576
REMARK  1 active torsions:
REMARK  status: ('A' for Active; 'I' for Inactive)
REMARK       I    between atoms: N_4  and  C_9 
REMARK    1  A    between atoms: N_4  and  C_10 
ROOT
HETATM    1  N   UNK N   1      27.010  22.108  -7.737  0.00  0.00    -0.225 N 
HETATM    2  N   UNK N   1      26.965  24.172  -6.391  0.00  0.00    -0.189 N 
HETATM    3  N   UNK N   1      25.123  22.693  -6.737  0.00  0.00    -0.225 N 
ATOM      4  HN  UNK N   1      24.468  23.235  -6.171  1.00  0.00     0.177 HD
HETATM    5  C   UNK N   1      26.104  21.056  -8.118  0.00  0.00     0.158 A 
HETATM    6  C   UNK N   1      24.785  21.465  -7.418  0.00  0.00     0.158 A 
HETATM    7  C   UNK N   1      26.328  23.011  -6.930  0.00  0.00     0.674 A 
HETATM    8  H   UNK N   1      27.954  22.176  -8.006  0.00  0.00     0.177 HD
HETATM    9  H   UNK N   1      27.909  24.238  -6.659  0.00  0.00     0.184 HD
ENDROOT
BRANCH   2  10
HETATM   10  C   UNK N   1      26.559  25.267  -5.550  0.00  0.00     0.092 A 
HETATM   11  C   UNK N   1      26.671  25.335  -4.117  0.00  0.00     0.063 A 
HETATM   12 Cl   UNK N   1      27.322  24.117  -3.043  0.00  0.00    -0.082 Cl
HETATM   13  C   UNK N   1      26.227  26.478  -3.447  0.00  0.00     0.026 A 
HETATM   14  C   UNK N   1      25.678  27.553  -4.131  0.00  0.00     0.003 A 
HETATM   15  C   UNK N   1      25.563  27.504  -5.511  0.00  0.00     0.026 A 
HETATM   16  C   UNK N   1      25.994  26.382  -6.217  0.00  0.00     0.063 A 
HETATM   17 Cl   UNK N   1      25.813  26.397  -7.966  0.00  0.00    -0.082 Cl
ENDBRANCH   2  10
TORSDOF 1
ENDMDL
MODEL 9
REMARK VINA RESULT:      -5.1      1.749      3.399
REMARK  1 active torsions:
REMARK  status: ('A' for Active; 'I' for Inactive)
REMARK       I    between atoms: N_4  and  C_9 
REMARK    1  A    between atoms: N_4  and  C_10 
ROOT
HETATM    1  N   UNK N   1      37.210  14.690  10.483  0.00  0.00    -0.225 N 
HETATM    2  N   UNK N   1      36.150  14.018  12.604  0.00  0.00    -0.189 N 
HETATM    3  N   UNK N   1      38.004  12.929  11.566  0.00  0.00    -0.225 N 
ATOM      4  HN  UNK N   1      38.100  12.214  12.288  1.00  0.00     0.177 HD
HETATM    5  C   UNK N   1      38.293  14.254   9.640  0.00  0.00     0.158 A 
HETATM    6  C   UNK N   1      38.847  13.023  10.398  0.00  0.00     0.158 A 
HETATM    7  C   UNK N   1      37.133  13.841  11.581  0.00  0.00     0.674 A 
HETATM    8  H   UNK N   1      36.624  15.461  10.309  0.00  0.00     0.177 HD
HETATM    9  H   UNK N   1      35.565  14.789  12.429  0.00  0.00     0.184 HD
ENDROOT
BRANCH   2  10
HETATM   10  C   UNK N   1      35.810  13.342  13.828  0.00  0.00     0.092 A 
HETATM   11  C   UNK N   1      36.217  13.716  15.156  0.00  0.00     0.063 A 
HETATM   12 Cl   UNK N   1      37.218  15.075  15.617  0.00  0.00    -0.082 Cl
HETATM   13  C   UNK N   1      35.798  12.947  16.245  0.00  0.00     0.026 A 
HETATM   14  C   UNK N   1      34.996  11.827  16.077  0.00  0.00     0.003 A 
HETATM   15  C   UNK N   1      34.595  11.453  14.805  0.00  0.00     0.026 A 
HETATM   16  C   UNK N   1      34.992  12.193  13.693  0.00  0.00     0.063 A 
HETATM   17 Cl   UNK N   1      34.440  11.652  12.112  0.00  0.00    -0.082 Cl
ENDBRANCH   2  10
TORSDOF 1
ENDMDL
