REMARK  4 active torsions:
REMARK  status: ('A' for Active; 'I' for Inactive)
REMARK    1  A    between atoms: S_1  and  N_5 
REMARK    2  A    between atoms: S_1  and  C_11 
REMARK    3  A    between atoms: N_5  and  C_17 
REMARK    4  A    between atoms: N_8  and  C_14 
ROOT
HETATM    1  S   UNK N   1       1.363   1.174  -0.513  0.00  0.00     0.264 S 
HETATM    2  O   UNK N   1      -0.050   1.365   0.061  0.00  0.00    -0.200 OA
HETATM    3  O   UNK N   1       1.046   1.369  -2.002  0.00  0.00    -0.200 OA
ENDROOT
BRANCH   1   4
HETATM    4  N   UNK N   1       2.160   2.676  -0.046  0.00  0.00    -0.259 N 
HETATM    5  H   UNK N   1       1.574   3.432   0.185  0.00  0.00     0.181 HD
BRANCH   4   6
HETATM    6  C   UNK N   1       3.553   2.907   0.030  0.00  0.00     0.174 A 
HETATM    7  S   UNK N   1       4.778   1.811  -0.099  0.00  0.00    -0.038 SA
HETATM    8  C   UNK N   1       5.985   2.899   0.189  0.00  0.00     0.066 A 
HETATM    9  N   UNK N   1       5.431   4.128   0.381  0.00  0.00    -0.296 N 
HETATM   10  C   UNK N   1       7.439   2.608   0.274  0.00  0.00     0.078 C 
HETATM   11  N   UNK N   1       4.087   4.132   0.294  0.00  0.00    -0.278 N 
ATOM     12  HN  UNK N   1       5.981   4.965   0.571  1.00  0.00     0.187 HD
ATOM     13  HN  UNK N   1       3.522   4.972   0.416  1.00  0.00     0.189 HD
ENDBRANCH   4   6
ENDBRANCH   1   4
BRANCH   1  14
HETATM   14  C   UNK N   1       1.858  -0.533  -0.230  0.00  0.00     0.080 A 
HETATM   15  C   UNK N   1       0.878  -1.530  -0.312  0.00  0.00     0.027 A 
HETATM   16  C   UNK N   1       1.232  -2.879  -0.235  0.00  0.00     0.030 A 
HETATM   17  C   UNK N   1       2.572  -3.240  -0.084  0.00  0.00     0.025 A 
HETATM   18  C   UNK N   1       3.555  -2.250   0.010  0.00  0.00     0.030 A 
HETATM   19  C   UNK N   1       3.199  -0.898  -0.070  0.00  0.00     0.027 A 
BRANCH  17  20
HETATM   20  N   UNK N   1       2.932  -4.601  -0.046  0.00  0.00    -0.399 N 
HETATM   21  H   UNK N   1       2.235  -5.295  -0.019  0.00  0.00     0.156 HD
HETATM   22  H   UNK N   1       3.883  -4.859  -0.046  0.00  0.00     0.156 HD
ENDBRANCH  17  20
ENDBRANCH   1  14
TORSDOF 4
