MODEL 1
REMARK VINA RESULT:      -6.4      0.000      0.000
REMARK  4 active torsions:
REMARK  status: ('A' for Active; 'I' for Inactive)
REMARK    1  A    between atoms: S_1  and  N_5 
REMARK    2  A    between atoms: S_1  and  C_11 
REMARK    3  A    between atoms: N_5  and  C_17 
REMARK    4  A    between atoms: N_8  and  C_14 
ROOT
HETATM    1  S   UNK N   1      33.264  16.926   7.015  0.00  0.00     0.264 S 
HETATM    2  O   UNK N   1      34.177  18.139   6.780  0.00  0.00    -0.200 OA
HETATM    3  O   UNK N   1      33.175  16.408   5.573  0.00  0.00    -0.200 OA
ENDROOT
BRANCH   1   4
HETATM    4  N   UNK N   1      34.354  15.789   7.810  0.00  0.00    -0.259 N 
HETATM    5  H   UNK N   1      34.683  15.040   7.264  0.00  0.00     0.181 HD
BRANCH   4   6
HETATM    6  C   UNK N   1      34.803  15.843   9.150  0.00  0.00     0.174 A 
HETATM    7  S   UNK N   1      35.452  14.630  10.058  0.00  0.00    -0.038 SA
HETATM    8  C   UNK N   1      35.586  15.528  11.436  0.00  0.00     0.066 A 
HETATM    9  N   UNK N   1      35.127  16.785  11.186  0.00  0.00    -0.296 N 
HETATM   10  C   UNK N   1      36.080  15.058  12.756  0.00  0.00     0.078 C 
HETATM   11  N   UNK N   1      34.694  16.959   9.923  0.00  0.00    -0.278 N 
ATOM     12  HN  UNK N   1      35.114  17.525  11.888  1.00  0.00     0.187 HD
ATOM     13  HN  UNK N   1      34.317  17.842   9.578  1.00  0.00     0.189 HD
ENDBRANCH   4   6
ENDBRANCH   1   4
BRANCH   1  14
HETATM   14  C   UNK N   1      31.649  17.530   7.530  0.00  0.00     0.080 A 
HETATM   15  C   UNK N   1      30.524  17.110   6.811  0.00  0.00     0.027 A 
HETATM   16  C   UNK N   1      29.239  17.439   7.249  0.00  0.00     0.030 A 
HETATM   17  C   UNK N   1      29.072  18.185   8.417  0.00  0.00     0.025 A 
HETATM   18  C   UNK N   1      30.191  18.618   9.135  0.00  0.00     0.030 A 
HETATM   19  C   UNK N   1      31.478  18.285   8.696  0.00  0.00     0.027 A 
BRANCH  17  20
HETATM   20  N   UNK N   1      27.775  18.484   8.880  0.00  0.00    -0.399 N 
HETATM   21  H   UNK N   1      27.649  18.876   9.773  0.00  0.00     0.156 HD
HETATM   22  H   UNK N   1      26.994  18.299   8.308  0.00  0.00     0.156 HD
ENDBRANCH  17  20
ENDBRANCH   1  14
TORSDOF 4
ENDMDL
MODEL 2
REMARK VINA RESULT:      -6.2      2.401      2.950
REMARK  4 active torsions:
REMARK  status: ('A' for Active; 'I' for Inactive)
REMARK    1  A    between atoms: S_1  and  N_5 
REMARK    2  A    between atoms: S_1  and  C_11 
REMARK    3  A    between atoms: N_5  and  C_17 
REMARK    4  A    between atoms: N_8  and  C_14 
ROOT
HETATM    1  S   UNK N   1      34.015  17.342   7.720  0.00  0.00     0.264 S 
HETATM    2  O   UNK N   1      34.875  18.610   7.596  0.00  0.00    -0.200 OA
HETATM    3  O   UNK N   1      35.079  16.295   7.363  0.00  0.00    -0.200 OA
ENDROOT
BRANCH   1   4
HETATM    4  N   UNK N   1      33.833  17.186   9.467  0.00  0.00    -0.259 N 
HETATM    5  H   UNK N   1      33.339  17.905   9.924  0.00  0.00     0.181 HD
BRANCH   4   6
HETATM    6  C   UNK N   1      34.323  16.138  10.279  0.00  0.00     0.174 A 
HETATM    7  S   UNK N   1      35.840  15.949  10.897  0.00  0.00    -0.038 SA
HETATM    8  C   UNK N   1      35.537  14.486  11.598  0.00  0.00     0.066 A 
HETATM    9  N   UNK N   1      34.241  14.144  11.355  0.00  0.00    -0.296 N 
HETATM   10  C   UNK N   1      36.507  13.640  12.339  0.00  0.00     0.078 C 
HETATM   11  N   UNK N   1      33.571  15.056  10.626  0.00  0.00    -0.278 N 
ATOM     12  HN  UNK N   1      33.819  13.280  11.694  1.00  0.00     0.187 HD
ATOM     13  HN  UNK N   1      32.594  14.947  10.356  1.00  0.00     0.189 HD
ENDBRANCH   4   6
ENDBRANCH   1   4
BRANCH   1  14
HETATM   14  C   UNK N   1      32.764  17.383   6.427  0.00  0.00     0.080 A 
HETATM   15  C   UNK N   1      33.183  17.577   5.105  0.00  0.00     0.027 A 
HETATM   16  C   UNK N   1      32.271  17.482   4.051  0.00  0.00     0.030 A 
HETATM   17  C   UNK N   1      30.933  17.184   4.314  0.00  0.00     0.025 A 
HETATM   18  C   UNK N   1      30.504  17.000   5.632  0.00  0.00     0.030 A 
HETATM   19  C   UNK N   1      31.421  17.093   6.687  0.00  0.00     0.027 A 
BRANCH  17  20
HETATM   20  N   UNK N   1      30.022  17.049   3.249  0.00  0.00    -0.399 N 
HETATM   21  H   UNK N   1      29.353  17.751   3.080  0.00  0.00     0.156 HD
HETATM   22  H   UNK N   1      30.053  16.252   2.671  0.00  0.00     0.156 HD
ENDBRANCH  17  20
ENDBRANCH   1  14
TORSDOF 4
ENDMDL
MODEL 3
REMARK VINA RESULT:      -6.1      7.371      9.591
REMARK  4 active torsions:
REMARK  status: ('A' for Active; 'I' for Inactive)
REMARK    1  A    between atoms: S_1  and  N_5 
REMARK    2  A    between atoms: S_1  and  C_11 
REMARK    3  A    between atoms: N_5  and  C_17 
REMARK    4  A    between atoms: N_8  and  C_14 
ROOT
HETATM    1  S   UNK N   1      36.121  13.221  14.679  0.00  0.00     0.264 S 
HETATM    2  O   UNK N   1      36.738  14.627  14.756  0.00  0.00    -0.200 OA
HETATM    3  O   UNK N   1      34.834  13.564  13.916  0.00  0.00    -0.200 OA
ENDROOT
BRANCH   1   4
HETATM    4  N   UNK N   1      37.137  12.435  13.470  0.00  0.00    -0.259 N 
HETATM    5  H   UNK N   1      37.601  11.615  13.752  0.00  0.00     0.181 HD
BRANCH   4   6
HETATM    6  C   UNK N   1      37.353  12.862  12.139  0.00  0.00     0.174 A 
HETATM    7  S   UNK N   1      37.876  11.971  10.854  0.00  0.00    -0.038 SA
HETATM    8  C   UNK N   1      37.916  13.239   9.798  0.00  0.00     0.066 A 
HETATM    9  N   UNK N   1      37.512  14.365  10.449  0.00  0.00    -0.296 N 
HETATM   10  C   UNK N   1      38.355  13.198   8.380  0.00  0.00     0.078 C 
HETATM   11  N   UNK N   1      37.202  14.156  11.743  0.00  0.00    -0.278 N 
ATOM     12  HN  UNK N   1      37.449  15.278  10.000  1.00  0.00     0.187 HD
ATOM     13  HN  UNK N   1      36.886  14.897  12.368  1.00  0.00     0.189 HD
ENDBRANCH   4   6
ENDBRANCH   1   4
BRANCH   1  14
HETATM   14  C   UNK N   1      35.700  12.700  16.349  0.00  0.00     0.080 A 
HETATM   15  C   UNK N   1      35.891  11.356  16.693  0.00  0.00     0.027 A 
HETATM   16  C   UNK N   1      35.709  10.930  18.011  0.00  0.00     0.030 A 
HETATM   17  C   UNK N   1      35.343  11.848  18.996  0.00  0.00     0.025 A 
HETATM   18  C   UNK N   1      35.139  13.190  18.658  0.00  0.00     0.030 A 
HETATM   19  C   UNK N   1      35.325  13.617  17.338  0.00  0.00     0.027 A 
BRANCH  17  20
HETATM   20  N   UNK N   1      35.198  11.424  20.331  0.00  0.00    -0.399 N 
HETATM   21  H   UNK N   1      34.830  12.038  21.006  0.00  0.00     0.156 HD
HETATM   22  H   UNK N   1      35.466  10.512  20.590  0.00  0.00     0.156 HD
ENDBRANCH  17  20
ENDBRANCH   1  14
TORSDOF 4
ENDMDL
MODEL 4
REMARK VINA RESULT:      -6.1      3.557      4.488
REMARK  4 active torsions:
REMARK  status: ('A' for Active; 'I' for Inactive)
REMARK    1  A    between atoms: S_1  and  N_5 
REMARK    2  A    between atoms: S_1  and  C_11 
REMARK    3  A    between atoms: N_5  and  C_17 
REMARK    4  A    between atoms: N_8  and  C_14 
ROOT
HETATM    1  S   UNK N   1      35.187  15.874  10.097  0.00  0.00     0.264 S 
HETATM    2  O   UNK N   1      35.308  17.167  10.919  0.00  0.00    -0.200 OA
HETATM    3  O   UNK N   1      36.679  15.543   9.948  0.00  0.00    -0.200 OA
ENDROOT
BRANCH   1   4
HETATM    4  N   UNK N   1      34.613  14.721  11.301  0.00  0.00    -0.259 N 
HETATM    5  H   UNK N   1      33.685  14.407  11.203  0.00  0.00     0.181 HD
BRANCH   4   6
HETATM    6  C   UNK N   1      35.346  14.202  12.394  0.00  0.00     0.174 A 
HETATM    7  S   UNK N   1      35.155  12.751  13.154  0.00  0.00    -0.038 SA
HETATM    8  C   UNK N   1      36.313  13.026  14.296  0.00  0.00     0.066 A 
HETATM    9  N   UNK N   1      36.858  14.255  14.081  0.00  0.00    -0.296 N 
HETATM   10  C   UNK N   1      36.690  12.121  15.412  0.00  0.00     0.078 C 
HETATM   11  N   UNK N   1      36.323  14.905  13.030  0.00  0.00    -0.278 N 
ATOM     12  HN  UNK N   1      37.602  14.645  14.660  1.00  0.00     0.187 HD
ATOM     13  HN  UNK N   1      36.620  15.836  12.740  1.00  0.00     0.189 HD
ENDBRANCH   4   6
ENDBRANCH   1   4
BRANCH   1  14
HETATM   14  C   UNK N   1      34.509  16.294   8.484  0.00  0.00     0.080 A 
HETATM   15  C   UNK N   1      33.779  17.483   8.361  0.00  0.00     0.027 A 
HETATM   16  C   UNK N   1      33.347  17.923   7.107  0.00  0.00     0.030 A 
HETATM   17  C   UNK N   1      33.652  17.179   5.966  0.00  0.00     0.025 A 
HETATM   18  C   UNK N   1      34.370  15.985   6.082  0.00  0.00     0.030 A 
HETATM   19  C   UNK N   1      34.805  15.547   7.339  0.00  0.00     0.027 A 
BRANCH  17  20
HETATM   20  N   UNK N   1      33.250  17.643   4.698  0.00  0.00    -0.399 N 
HETATM   21  H   UNK N   1      32.678  18.440   4.624  0.00  0.00     0.156 HD
HETATM   22  H   UNK N   1      33.542  17.169   3.885  0.00  0.00     0.156 HD
ENDBRANCH  17  20
ENDBRANCH   1  14
TORSDOF 4
ENDMDL
MODEL 5
REMARK VINA RESULT:      -6.0      4.643      8.203
REMARK  4 active torsions:
REMARK  status: ('A' for Active; 'I' for Inactive)
REMARK    1  A    between atoms: S_1  and  N_5 
REMARK    2  A    between atoms: S_1  and  C_11 
REMARK    3  A    between atoms: N_5  and  C_17 
REMARK    4  A    between atoms: N_8  and  C_14 
ROOT
HETATM    1  S   UNK N   1      35.475  13.504  12.783  0.00  0.00     0.264 S 
HETATM    2  O   UNK N   1      36.647  12.881  12.007  0.00  0.00    -0.200 OA
HETATM    3  O   UNK N   1      36.144  14.815  13.218  0.00  0.00    -0.200 OA
ENDROOT
BRANCH   1   4
HETATM    4  N   UNK N   1      34.386  13.990  11.484  0.00  0.00    -0.259 N 
HETATM    5  H   UNK N   1      33.665  13.361  11.255  0.00  0.00     0.181 HD
BRANCH   4   6
HETATM    6  C   UNK N   1      34.441  15.190  10.738  0.00  0.00     0.174 A 
HETATM    7  S   UNK N   1      33.957  15.449   9.183  0.00  0.00    -0.038 SA
HETATM    8  C   UNK N   1      34.454  17.021   9.130  0.00  0.00     0.066 A 
HETATM    9  N   UNK N   1      34.997  17.351  10.334  0.00  0.00    -0.296 N 
HETATM   10  C   UNK N   1      34.376  17.936   7.962  0.00  0.00     0.078 C 
HETATM   11  N   UNK N   1      34.990  16.339  11.222  0.00  0.00    -0.278 N 
ATOM     12  HN  UNK N   1      35.370  18.276  10.544  1.00  0.00     0.187 HD
ATOM     13  HN  UNK N   1      35.363  16.423  12.168  1.00  0.00     0.189 HD
ENDBRANCH   4   6
ENDBRANCH   1   4
BRANCH   1  14
HETATM   14  C   UNK N   1      35.160  12.488  14.235  0.00  0.00     0.080 A 
HETATM   15  C   UNK N   1      34.299  11.391  14.103  0.00  0.00     0.027 A 
HETATM   16  C   UNK N   1      34.128  10.494  15.160  0.00  0.00     0.030 A 
HETATM   17  C   UNK N   1      34.824  10.684  16.355  0.00  0.00     0.025 A 
HETATM   18  C   UNK N   1      35.677  11.783  16.498  0.00  0.00     0.030 A 
HETATM   19  C   UNK N   1      35.850  12.680  15.436  0.00  0.00     0.027 A 
BRANCH  17  20
HETATM   20  N   UNK N   1      34.680   9.758  17.406  0.00  0.00    -0.399 N 
HETATM   21  H   UNK N   1      33.792   9.582  17.790  0.00  0.00     0.156 HD
HETATM   22  H   UNK N   1      35.471   9.286  17.757  0.00  0.00     0.156 HD
ENDBRANCH  17  20
ENDBRANCH   1  14
TORSDOF 4
ENDMDL
MODEL 6
REMARK VINA RESULT:      -5.9      5.701      9.389
REMARK  4 active torsions:
REMARK  status: ('A' for Active; 'I' for Inactive)
REMARK    1  A    between atoms: S_1  and  N_5 
REMARK    2  A    between atoms: S_1  and  C_11 
REMARK    3  A    between atoms: N_5  and  C_17 
REMARK    4  A    between atoms: N_8  and  C_14 
ROOT
HETATM    1  S   UNK N   1      35.830  12.388  14.550  0.00  0.00     0.264 S 
HETATM    2  O   UNK N   1      34.443  12.647  13.939  0.00  0.00    -0.200 OA
HETATM    3  O   UNK N   1      35.989  10.910  14.166  0.00  0.00    -0.200 OA
ENDROOT
BRANCH   1   4
HETATM    4  N   UNK N   1      36.894  13.237  13.429  0.00  0.00    -0.259 N 
HETATM    5  H   UNK N   1      37.848  13.275  13.671  0.00  0.00     0.181 HD
BRANCH   4   6
HETATM    6  C   UNK N   1      36.520  13.869  12.221  0.00  0.00     0.174 A 
HETATM    7  S   UNK N   1      36.135  13.169  10.779  0.00  0.00    -0.038 SA
HETATM    8  C   UNK N   1      35.933  14.593   9.969  0.00  0.00     0.066 A 
HETATM    9  N   UNK N   1      36.161  15.623  10.830  0.00  0.00    -0.296 N 
HETATM   10  C   UNK N   1      35.601  14.754   8.530  0.00  0.00     0.078 C 
HETATM   11  N   UNK N   1      36.486  15.223  12.074  0.00  0.00    -0.278 N 
ATOM     12  HN  UNK N   1      36.091  16.603  10.558  1.00  0.00     0.187 HD
ATOM     13  HN  UNK N   1      36.690  15.872  12.834  1.00  0.00     0.189 HD
ENDBRANCH   4   6
ENDBRANCH   1   4
BRANCH   1  14
HETATM   14  C   UNK N   1      35.690  12.525  16.339  0.00  0.00     0.080 A 
HETATM   15  C   UNK N   1      35.541  13.801  16.897  0.00  0.00     0.027 A 
HETATM   16  C   UNK N   1      35.293  13.952  18.263  0.00  0.00     0.030 A 
HETATM   17  C   UNK N   1      35.184  12.825  19.080  0.00  0.00     0.025 A 
HETATM   18  C   UNK N   1      35.344  11.548  18.532  0.00  0.00     0.030 A 
HETATM   19  C   UNK N   1      35.589  11.398  17.162  0.00  0.00     0.027 A 
BRANCH  17  20
HETATM   20  N   UNK N   1      34.896  12.977  20.450  0.00  0.00    -0.399 N 
HETATM   21  H   UNK N   1      33.986  12.807  20.784  0.00  0.00     0.156 HD
HETATM   22  H   UNK N   1      35.605  13.255  21.075  0.00  0.00     0.156 HD
ENDBRANCH  17  20
ENDBRANCH   1  14
TORSDOF 4
ENDMDL
MODEL 7
REMARK VINA RESULT:      -5.8     10.258     13.367
REMARK  4 active torsions:
REMARK  status: ('A' for Active; 'I' for Inactive)
REMARK    1  A    between atoms: S_1  and  N_5 
REMARK    2  A    between atoms: S_1  and  C_11 
REMARK    3  A    between atoms: N_5  and  C_17 
REMARK    4  A    between atoms: N_8  and  C_14 
ROOT
HETATM    1  S   UNK N   1      21.632  19.678   3.302  0.00  0.00     0.264 S 
HETATM    2  O   UNK N   1      21.246  21.154   3.116  0.00  0.00    -0.200 OA
HETATM    3  O   UNK N   1      21.055  19.454   4.707  0.00  0.00    -0.200 OA
ENDROOT
BRANCH   1   4
HETATM    4  N   UNK N   1      20.490  18.859   2.236  0.00  0.00    -0.259 N 
HETATM    5  H   UNK N   1      20.010  19.423   1.588  0.00  0.00     0.181 HD
BRANCH   4   6
HETATM    6  C   UNK N   1      20.191  17.477   2.218  0.00  0.00     0.174 A 
HETATM    7  S   UNK N   1      20.311  16.423   0.956  0.00  0.00    -0.038 SA
HETATM    8  C   UNK N   1      19.704  15.129   1.781  0.00  0.00     0.066 A 
HETATM    9  N   UNK N   1      19.410  15.518   3.052  0.00  0.00    -0.296 N 
HETATM   10  C   UNK N   1      19.464  13.767   1.240  0.00  0.00     0.078 C 
HETATM   11  N   UNK N   1      19.679  16.816   3.293  0.00  0.00    -0.278 N 
ATOM     12  HN  UNK N   1      19.026  14.887   3.754  1.00  0.00     0.187 HD
ATOM     13  HN  UNK N   1      19.513  17.262   4.195  1.00  0.00     0.189 HD
ENDBRANCH   4   6
ENDBRANCH   1   4
BRANCH   1  14
HETATM   14  C   UNK N   1      23.427  19.570   3.372  0.00  0.00     0.080 A 
HETATM   15  C   UNK N   1      24.176  20.546   2.703  0.00  0.00     0.027 A 
HETATM   16  C   UNK N   1      25.566  20.587   2.837  0.00  0.00     0.030 A 
HETATM   17  C   UNK N   1      26.215  19.656   3.651  0.00  0.00     0.025 A 
HETATM   18  C   UNK N   1      25.474  18.673   4.314  0.00  0.00     0.030 A 
HETATM   19  C   UNK N   1      24.081  18.634   4.180  0.00  0.00     0.027 A 
BRANCH  17  20
HETATM   20  N   UNK N   1      27.612  19.723   3.817  0.00  0.00    -0.399 N 
HETATM   21  H   UNK N   1      28.155  20.275   3.210  0.00  0.00     0.156 HD
HETATM   22  H   UNK N   1      28.046  19.216   4.542  0.00  0.00     0.156 HD
ENDBRANCH  17  20
ENDBRANCH   1  14
TORSDOF 4
ENDMDL
MODEL 8
REMARK VINA RESULT:      -5.6      7.394     10.311
REMARK  4 active torsions:
REMARK  status: ('A' for Active; 'I' for Inactive)
REMARK    1  A    between atoms: S_1  and  N_5 
REMARK    2  A    between atoms: S_1  and  C_11 
REMARK    3  A    between atoms: N_5  and  C_17 
REMARK    4  A    between atoms: N_8  and  C_14 
ROOT
HETATM    1  S   UNK N   1      35.998  10.472  15.484  0.00  0.00     0.264 S 
HETATM    2  O   UNK N   1      35.428   9.056  15.662  0.00  0.00    -0.200 OA
HETATM    3  O   UNK N   1      37.485  10.117  15.344  0.00  0.00    -0.200 OA
ENDROOT
BRANCH   1   4
HETATM    4  N   UNK N   1      35.497  10.870  13.841  0.00  0.00    -0.259 N 
HETATM    5  H   UNK N   1      34.787  10.313  13.450  0.00  0.00     0.181 HD
BRANCH   4   6
HETATM    6  C   UNK N   1      36.012  11.905  13.026  0.00  0.00     0.174 A 
HETATM    7  S   UNK N   1      35.256  12.716  11.806  0.00  0.00    -0.038 SA
HETATM    8  C   UNK N   1      36.569  13.625  11.391  0.00  0.00     0.066 A 
HETATM    9  N   UNK N   1      37.604  13.300  12.214  0.00  0.00    -0.296 N 
HETATM   10  C   UNK N   1      36.651  14.609  10.282  0.00  0.00     0.078 C 
HETATM   11  N   UNK N   1      37.297  12.350  13.117  0.00  0.00    -0.278 N 
ATOM     12  HN  UNK N   1      38.524  13.736  12.153  1.00  0.00     0.187 HD
ATOM     13  HN  UNK N   1      37.962  11.994  13.803  1.00  0.00     0.189 HD
ENDBRANCH   4   6
ENDBRANCH   1   4
BRANCH   1  14
HETATM   14  C   UNK N   1      35.746  11.376  17.020  0.00  0.00     0.080 A 
HETATM   15  C   UNK N   1      35.399  12.730  16.943  0.00  0.00     0.027 A 
HETATM   16  C   UNK N   1      35.060  13.441  18.096  0.00  0.00     0.030 A 
HETATM   17  C   UNK N   1      35.058  12.798  19.335  0.00  0.00     0.025 A 
HETATM   18  C   UNK N   1      35.415  11.449  19.422  0.00  0.00     0.030 A 
HETATM   19  C   UNK N   1      35.751  10.737  18.264  0.00  0.00     0.027 A 
BRANCH  17  20
HETATM   20  N   UNK N   1      34.679  13.506  20.492  0.00  0.00    -0.399 N 
HETATM   21  H   UNK N   1      34.452  13.019  21.317  0.00  0.00     0.156 HD
HETATM   22  H   UNK N   1      34.640  14.490  20.477  0.00  0.00     0.156 HD
ENDBRANCH  17  20
ENDBRANCH   1  14
TORSDOF 4
ENDMDL
MODEL 9
REMARK VINA RESULT:      -5.6      3.535      4.206
REMARK  4 active torsions:
REMARK  status: ('A' for Active; 'I' for Inactive)
REMARK    1  A    between atoms: S_1  and  N_5 
REMARK    2  A    between atoms: S_1  and  C_11 
REMARK    3  A    between atoms: N_5  and  C_17 
REMARK    4  A    between atoms: N_8  and  C_14 
ROOT
HETATM    1  S   UNK N   1      34.997  16.021   9.112  0.00  0.00     0.264 S 
HETATM    2  O   UNK N   1      33.745  15.608   9.904  0.00  0.00    -0.200 OA
HETATM    3  O   UNK N   1      35.279  17.367   9.793  0.00  0.00    -0.200 OA
ENDROOT
BRANCH   1   4
HETATM    4  N   UNK N   1      36.226  14.942   9.771  0.00  0.00    -0.259 N 
HETATM    5  H   UNK N   1      36.864  14.557   9.129  0.00  0.00     0.181 HD
BRANCH   4   6
HETATM    6  C   UNK N   1      36.390  14.574  11.127  0.00  0.00     0.174 A 
HETATM    7  S   UNK N   1      36.749  13.088  11.744  0.00  0.00    -0.038 SA
HETATM    8  C   UNK N   1      36.657  13.554  13.324  0.00  0.00     0.066 A 
HETATM    9  N   UNK N   1      36.351  14.880  13.373  0.00  0.00    -0.296 N 
HETATM   10  C   UNK N   1      36.832  12.686  14.517  0.00  0.00     0.078 C 
HETATM   11  N   UNK N   1      36.202  15.443  12.158  0.00  0.00    -0.278 N 
ATOM     12  HN  UNK N   1      36.246  15.398  14.245  1.00  0.00     0.187 HD
ATOM     13  HN  UNK N   1      35.970  16.427  12.023  1.00  0.00     0.189 HD
ENDBRANCH   4   6
ENDBRANCH   1   4
BRANCH   1  14
HETATM   14  C   UNK N   1      34.510  16.310   7.404  0.00  0.00     0.080 A 
HETATM   15  C   UNK N   1      34.786  15.316   6.458  0.00  0.00     0.027 A 
HETATM   16  C   UNK N   1      34.311  15.431   5.149  0.00  0.00     0.030 A 
HETATM   17  C   UNK N   1      33.547  16.540   4.781  0.00  0.00     0.025 A 
HETATM   18  C   UNK N   1      33.276  17.542   5.717  0.00  0.00     0.030 A 
HETATM   19  C   UNK N   1      33.751  17.424   7.029  0.00  0.00     0.027 A 
BRANCH  17  20
HETATM   20  N   UNK N   1      33.035  16.636   3.473  0.00  0.00    -0.399 N 
HETATM   21  H   UNK N   1      32.684  15.835   3.020  0.00  0.00     0.156 HD
HETATM   22  H   UNK N   1      33.028  17.505   3.009  0.00  0.00     0.156 HD
ENDBRANCH  17  20
ENDBRANCH   1  14
TORSDOF 4
ENDMDL
