REMARK  9 active torsions:
REMARK  status: ('A' for Active; 'I' for Inactive)
REMARK    1  A    between atoms: O_1  and  C_17 
REMARK    2  A    between atoms: O_1  and  C_20 
REMARK    3  A    between atoms: O_2  and  C_19 
REMARK    4  A    between atoms: O_2  and  C_22 
REMARK    5  A    between atoms: N_5  and  C_19 
REMARK    6  A    between atoms: C_14  and  N_6 
REMARK       I    between atoms: N_12  and  C_25 
REMARK    7  A    between atoms: C_13  and  C_14 
REMARK    8  A    between atoms: C_14  and  C_17 
REMARK    9  A    between atoms: C_20  and  C_22 
ROOT
HETATM    1  O   UNK N   1       2.011  -5.666   0.001  0.00  0.00    -0.265 OA
HETATM    2  N   UNK N   1       4.358  -1.875  -0.003  0.00  0.00    -0.305 N 
HETATM    3  N   UNK N   1       1.947  -1.674  -0.003  0.00  0.00    -0.174 N 
HETATM    4  N   UNK N   1       4.443  -4.122   0.000  0.00  0.00    -0.345 N 
ATOM      5  HN  UNK N   1       4.793  -5.080   0.001  1.00  0.00     0.167 HD
HETATM    6  N   UNK N   1       0.799  -3.762  -0.000  0.00  0.00    -0.154 N 
ATOM      7  HN  UNK N   1      -0.080  -4.280   0.001  1.00  0.00     0.187 HD
HETATM    8  N   UNK N   1      -0.458  -1.708  -0.001  0.00  0.00    -0.234 N 
HETATM    9  C   UNK N   1       3.112  -2.362  -0.003  0.00  0.00     0.158 A 
HETATM   10  C   UNK N   1       3.163  -3.710  -0.001  0.00  0.00     0.147 A 
HETATM   11  C   UNK N   1       5.167  -2.966  -0.001  0.00  0.00     0.187 A 
HETATM   12  C   UNK N   1       1.992  -4.448   0.000  0.00  0.00     0.290 A 
HETATM   13  C   UNK N   1       0.775  -2.386  -0.001  0.00  0.00     0.680 A 
HETATM   14  H   UNK N   1       1.941  -0.689  -0.004  0.00  0.00     0.186 HD
HETATM   15  H   UNK N   1      -0.478  -0.724  -0.001  0.00  0.00     0.174 HD
HETATM   16  H   UNK N   1      -1.300  -2.217  -0.001  0.00  0.00     0.174 HD
ENDROOT
BRANCH   2  17
HETATM   17  C   UNK N   1       4.762  -0.471  -0.003  0.00  0.00     0.301 C 
BRANCH  17  18
HETATM   18  O   UNK N   1       6.157  -0.382   0.018  0.00  0.00    -0.369 OA
BRANCH  18  19
HETATM   19  C   UNK N   1       6.468   0.976  -0.042  0.00  0.00     0.196 C 
BRANCH  19  20
HETATM   20  C   UNK N   1       7.970   1.093  -0.205  0.00  0.00     0.205 C 
BRANCH  20  21
HETATM   21  O   UNK N   1       8.395   2.396  -0.076  0.00  0.00    -0.318 OA
BRANCH  21  22
HETATM   22  C   UNK N   1       9.708   2.689   0.125  0.00  0.00     0.281 C 
HETATM   23  O   UNK N   1      10.532   1.787   0.187  0.00  0.00    -0.263 OA
BRANCH  22  24
HETATM   24  C   UNK N   1      10.142   4.116   0.379  0.00  0.00     0.178 C 
BRANCH  24  25
HETATM   25  N   UNK N   1       9.042   5.026   0.087  0.00  0.00    -0.418 N 
HETATM   26  H   UNK N   1       9.208   6.011  -0.117  0.00  0.00     0.150 HD
HETATM   27  H   UNK N   1       8.086   4.670   0.087  0.00  0.00     0.150 HD
ENDBRANCH  24  25
BRANCH  24  28
HETATM   28  C   UNK N   1      11.403   4.539  -0.394  0.00  0.00     0.009 C 
HETATM   29  C   UNK N   1      12.602   3.697   0.014  0.00  0.00     0.012 C 
HETATM   30  C   UNK N   1      11.751   5.984  -0.080  0.00  0.00     0.012 C 
ENDBRANCH  24  28
ENDBRANCH  22  24
ENDBRANCH  21  22
ENDBRANCH  20  21
ENDBRANCH  19  20
ENDBRANCH  18  19
ENDBRANCH  17  18
ENDBRANCH   2  17
TORSDOF 9
