MODEL 1
REMARK VINA RESULT:      -6.1      0.000      0.000
REMARK  9 active torsions:
REMARK  status: ('A' for Active; 'I' for Inactive)
REMARK    1  A    between atoms: O_1  and  C_17 
REMARK    2  A    between atoms: O_1  and  C_20 
REMARK    3  A    between atoms: O_2  and  C_19 
REMARK    4  A    between atoms: O_2  and  C_22 
REMARK    5  A    between atoms: N_5  and  C_19 
REMARK    6  A    between atoms: C_14  and  N_6 
REMARK       I    between atoms: N_12  and  C_25 
REMARK    7  A    between atoms: C_13  and  C_14 
REMARK    8  A    between atoms: C_14  and  C_17 
REMARK    9  A    between atoms: C_20  and  C_22 
ROOT
HETATM    1  O   UNK N   1      20.257  17.344  -0.195  0.00  0.00    -0.265 OA
HETATM    2  N   UNK N   1      19.858  16.373   4.139  0.00  0.00    -0.305 N 
HETATM    3  N   UNK N   1      20.314  18.679   3.568  0.00  0.00    -0.174 N 
HETATM    4  N   UNK N   1      19.815  15.576   2.036  0.00  0.00    -0.345 N 
ATOM      5  HN  UNK N   1      19.739  14.944   1.239  1.00  0.00     0.167 HD
HETATM    6  N   UNK N   1      20.506  19.080   1.227  0.00  0.00    -0.154 N 
ATOM      7  HN  UNK N   1      20.665  19.732   0.458  1.00  0.00     0.187 HD
HETATM    8  N   UNK N   1      20.765  20.905   2.776  0.00  0.00    -0.234 N 
HETATM    9  C   UNK N   1      20.087  17.376   3.284  0.00  0.00     0.158 A 
HETATM   10  C   UNK N   1      20.062  16.898   2.023  0.00  0.00     0.147 A 
HETATM   11  C   UNK N   1      19.692  15.272   3.360  0.00  0.00     0.187 A 
HETATM   12  C   UNK N   1      20.274  17.751   0.953  0.00  0.00     0.290 A 
HETATM   13  C   UNK N   1      20.526  19.542   2.523  0.00  0.00     0.680 A 
HETATM   14  H   UNK N   1      20.326  18.999   4.499  0.00  0.00     0.186 HD
HETATM   15  H   UNK N   1      20.779  21.238   3.702  0.00  0.00     0.174 HD
HETATM   16  H   UNK N   1      20.918  21.525   2.028  0.00  0.00     0.174 HD
ENDROOT
BRANCH   2  17
HETATM   17  C   UNK N   1      19.796  16.446   5.596  0.00  0.00     0.301 C 
BRANCH  17  18
HETATM   18  O   UNK N   1      21.025  16.882   6.099  0.00  0.00    -0.369 OA
BRANCH  18  19
HETATM   19  C   UNK N   1      21.083  16.460   7.426  0.00  0.00     0.196 C 
BRANCH  19  20
HETATM   20  C   UNK N   1      21.651  15.055   7.434  0.00  0.00     0.205 C 
BRANCH  20  21
HETATM   21  O   UNK N   1      21.375  14.402   8.614  0.00  0.00    -0.318 OA
BRANCH  21  22
HETATM   22  C   UNK N   1      21.348  13.043   8.674  0.00  0.00     0.281 C 
HETATM   23  O   UNK N   1      21.014  12.395   7.692  0.00  0.00    -0.263 OA
BRANCH  22  24
HETATM   24  C   UNK N   1      21.627  12.331   9.980  0.00  0.00     0.178 C 
BRANCH  24  25
HETATM   25  N   UNK N   1      20.580  12.643  10.945  0.00  0.00    -0.418 N 
HETATM   26  H   UNK N   1      20.723  13.340  11.675  0.00  0.00     0.150 HD
HETATM   27  H   UNK N   1      19.687  12.153  10.889  0.00  0.00     0.150 HD
ENDBRANCH  24  25
BRANCH  24  28
HETATM   28  C   UNK N   1      23.011  12.631  10.579  0.00  0.00     0.009 C 
HETATM   29  C   UNK N   1      24.121  12.130   9.668  0.00  0.00     0.012 C 
HETATM   30  C   UNK N   1      23.174  11.914  11.909  0.00  0.00     0.012 C 
ENDBRANCH  24  28
ENDBRANCH  22  24
ENDBRANCH  21  22
ENDBRANCH  20  21
ENDBRANCH  19  20
ENDBRANCH  18  19
ENDBRANCH  17  18
ENDBRANCH   2  17
TORSDOF 9
ENDMDL
MODEL 2
REMARK VINA RESULT:      -5.9      3.787      5.854
REMARK  9 active torsions:
REMARK  status: ('A' for Active; 'I' for Inactive)
REMARK    1  A    between atoms: O_1  and  C_17 
REMARK    2  A    between atoms: O_1  and  C_20 
REMARK    3  A    between atoms: O_2  and  C_19 
REMARK    4  A    between atoms: O_2  and  C_22 
REMARK    5  A    between atoms: N_5  and  C_19 
REMARK    6  A    between atoms: C_14  and  N_6 
REMARK       I    between atoms: N_12  and  C_25 
REMARK    7  A    between atoms: C_13  and  C_14 
REMARK    8  A    between atoms: C_14  and  C_17 
REMARK    9  A    between atoms: C_20  and  C_22 
ROOT
HETATM    1  O   UNK N   1      19.949  17.211  -0.062  0.00  0.00    -0.265 OA
HETATM    2  N   UNK N   1      20.480  16.736   4.340  0.00  0.00    -0.305 N 
HETATM    3  N   UNK N   1      20.784  18.957   3.430  0.00  0.00    -0.174 N 
HETATM    4  N   UNK N   1      20.003  15.710   2.397  0.00  0.00    -0.345 N 
ATOM      5  HN  UNK N   1      19.767  14.994   1.709  1.00  0.00     0.167 HD
HETATM    6  N   UNK N   1      20.475  19.090   1.071  0.00  0.00    -0.154 N 
ATOM      7  HN  UNK N   1      20.463  19.650   0.218  1.00  0.00     0.187 HD
HETATM    8  N   UNK N   1      21.037  21.073   2.316  0.00  0.00    -0.234 N 
HETATM    9  C   UNK N   1      20.515  17.633   3.349  0.00  0.00     0.158 A 
HETATM   10  C   UNK N   1      20.229  17.018   2.183  0.00  0.00     0.147 A 
HETATM   11  C   UNK N   1      20.164  15.557   3.742  0.00  0.00     0.187 A 
HETATM   12  C   UNK N   1      20.203  17.743   1.004  0.00  0.00     0.290 A 
HETATM   13  C   UNK N   1      20.763  19.694   2.274  0.00  0.00     0.680 A 
HETATM   14  H   UNK N   1      20.989  19.379   4.296  0.00  0.00     0.186 HD
HETATM   15  H   UNK N   1      21.243  21.508   3.175  0.00  0.00     0.174 HD
HETATM   16  H   UNK N   1      21.024  21.604   1.488  0.00  0.00     0.174 HD
ENDROOT
BRANCH   2  17
HETATM   17  C   UNK N   1      20.725  16.972   5.760  0.00  0.00     0.301 C 
BRANCH  17  18
HETATM   18  O   UNK N   1      21.946  17.634   5.924  0.00  0.00    -0.369 OA
BRANCH  18  19
HETATM   19  C   UNK N   1      22.943  16.694   5.664  0.00  0.00     0.196 C 
BRANCH  19  20
HETATM   20  C   UNK N   1      24.058  17.404   4.924  0.00  0.00     0.205 C 
BRANCH  20  21
HETATM   21  O   UNK N   1      24.042  18.760   5.161  0.00  0.00    -0.318 OA
BRANCH  21  22
HETATM   22  C   UNK N   1      24.530  19.639   4.244  0.00  0.00     0.281 C 
HETATM   23  O   UNK N   1      23.897  19.870   3.223  0.00  0.00    -0.263 OA
BRANCH  22  24
HETATM   24  C   UNK N   1      25.901  20.252   4.428  0.00  0.00     0.178 C 
BRANCH  24  25
HETATM   25  N   UNK N   1      26.868  19.561   3.585  0.00  0.00    -0.418 N 
HETATM   26  H   UNK N   1      27.773  19.265   3.948  0.00  0.00     0.150 HD
HETATM   27  H   UNK N   1      26.634  19.370   2.610  0.00  0.00     0.150 HD
ENDBRANCH  24  25
BRANCH  24  28
HETATM   28  C   UNK N   1      26.389  20.280   5.886  0.00  0.00     0.009 C 
HETATM   29  C   UNK N   1      26.904  21.660   6.264  0.00  0.00     0.012 C 
HETATM   30  C   UNK N   1      27.545  19.312   6.071  0.00  0.00     0.012 C 
ENDBRANCH  24  28
ENDBRANCH  22  24
ENDBRANCH  21  22
ENDBRANCH  20  21
ENDBRANCH  19  20
ENDBRANCH  18  19
ENDBRANCH  17  18
ENDBRANCH   2  17
TORSDOF 9
ENDMDL
MODEL 3
REMARK VINA RESULT:      -5.9     10.965     13.013
REMARK  9 active torsions:
REMARK  status: ('A' for Active; 'I' for Inactive)
REMARK    1  A    between atoms: O_1  and  C_17 
REMARK    2  A    between atoms: O_1  and  C_20 
REMARK    3  A    between atoms: O_2  and  C_19 
REMARK    4  A    between atoms: O_2  and  C_22 
REMARK    5  A    between atoms: N_5  and  C_19 
REMARK    6  A    between atoms: C_14  and  N_6 
REMARK       I    between atoms: N_12  and  C_25 
REMARK    7  A    between atoms: C_13  and  C_14 
REMARK    8  A    between atoms: C_14  and  C_17 
REMARK    9  A    between atoms: C_20  and  C_22 
ROOT
HETATM    1  O   UNK N   1      35.381  15.766   9.800  0.00  0.00    -0.265 OA
HETATM    2  N   UNK N   1      34.067  15.689   5.541  0.00  0.00    -0.305 N 
HETATM    3  N   UNK N   1      32.638  16.851   7.110  0.00  0.00    -0.174 N 
HETATM    4  N   UNK N   1      35.637  15.057   7.020  0.00  0.00    -0.345 N 
ATOM      5  HN  UNK N   1      36.475  14.642   7.429  1.00  0.00     0.167 HD
HETATM    6  N   UNK N   1      33.440  16.828   9.354  0.00  0.00    -0.154 N 
ATOM      7  HN  UNK N   1      33.321  17.095  10.331  1.00  0.00     0.187 HD
HETATM    8  N   UNK N   1      31.373  17.950   8.836  0.00  0.00    -0.234 N 
HETATM    9  C   UNK N   1      33.729  16.133   6.757  0.00  0.00     0.158 A 
HETATM   10  C   UNK N   1      34.671  15.754   7.644  0.00  0.00     0.147 A 
HETATM   11  C   UNK N   1      35.241  15.030   5.715  0.00  0.00     0.187 A 
HETATM   12  C   UNK N   1      34.545  16.097   8.979  0.00  0.00     0.290 A 
HETATM   13  C   UNK N   1      32.494  17.203   8.427  0.00  0.00     0.680 A 
HETATM   14  H   UNK N   1      31.967  17.114   6.439  0.00  0.00     0.186 HD
HETATM   15  H   UNK N   1      30.695  18.220   8.175  0.00  0.00     0.174 HD
HETATM   16  H   UNK N   1      31.267  18.202   9.781  0.00  0.00     0.174 HD
ENDROOT
BRANCH   2  17
HETATM   17  C   UNK N   1      33.331  15.876   4.292  0.00  0.00     0.301 C 
BRANCH  17  18
HETATM   18  O   UNK N   1      32.986  17.223   4.145  0.00  0.00    -0.369 OA
BRANCH  18  19
HETATM   19  C   UNK N   1      31.865  17.256   3.316  0.00  0.00     0.196 C 
BRANCH  19  20
HETATM   20  C   UNK N   1      30.671  16.830   4.146  0.00  0.00     0.205 C 
BRANCH  20  21
HETATM   21  O   UNK N   1      30.250  17.837   4.985  0.00  0.00    -0.318 OA
BRANCH  21  22
HETATM   22  C   UNK N   1      29.340  17.597   5.967  0.00  0.00     0.281 C 
HETATM   23  O   UNK N   1      29.451  16.605   6.674  0.00  0.00    -0.263 OA
BRANCH  22  24
HETATM   24  C   UNK N   1      28.129  18.492   6.121  0.00  0.00     0.178 C 
BRANCH  24  25
HETATM   25  N   UNK N   1      26.914  17.689   6.083  0.00  0.00    -0.418 N 
HETATM   26  H   UNK N   1      26.829  16.883   5.465  0.00  0.00     0.150 HD
HETATM   27  H   UNK N   1      26.132  17.939   6.689  0.00  0.00     0.150 HD
ENDBRANCH  24  25
BRANCH  24  28
HETATM   28  C   UNK N   1      28.049  19.628   5.086  0.00  0.00     0.009 C 
HETATM   29  C   UNK N   1      27.535  20.910   5.722  0.00  0.00     0.012 C 
HETATM   30  C   UNK N   1      27.075  19.263   3.980  0.00  0.00     0.012 C 
ENDBRANCH  24  28
ENDBRANCH  22  24
ENDBRANCH  21  22
ENDBRANCH  20  21
ENDBRANCH  19  20
ENDBRANCH  18  19
ENDBRANCH  17  18
ENDBRANCH   2  17
TORSDOF 9
ENDMDL
MODEL 4
REMARK VINA RESULT:      -5.9     12.111     13.790
REMARK  9 active torsions:
REMARK  status: ('A' for Active; 'I' for Inactive)
REMARK    1  A    between atoms: O_1  and  C_17 
REMARK    2  A    between atoms: O_1  and  C_20 
REMARK    3  A    between atoms: O_2  and  C_19 
REMARK    4  A    between atoms: O_2  and  C_22 
REMARK    5  A    between atoms: N_5  and  C_19 
REMARK    6  A    between atoms: C_14  and  N_6 
REMARK       I    between atoms: N_12  and  C_25 
REMARK    7  A    between atoms: C_13  and  C_14 
REMARK    8  A    between atoms: C_14  and  C_17 
REMARK    9  A    between atoms: C_20  and  C_22 
ROOT
HETATM    1  O   UNK N   1      29.762  16.391   5.782  0.00  0.00    -0.265 OA
HETATM    2  N   UNK N   1      33.305  15.515   8.343  0.00  0.00    -0.305 N 
HETATM    3  N   UNK N   1      31.686  17.091   9.210  0.00  0.00    -0.174 N 
HETATM    4  N   UNK N   1      32.257  15.090   6.400  0.00  0.00    -0.345 N 
ATOM      5  HN  UNK N   1      32.033  14.708   5.481  1.00  0.00     0.167 HD
HETATM    6  N   UNK N   1      29.838  17.480   7.758  0.00  0.00    -0.154 N 
ATOM      7  HN  UNK N   1      28.955  17.956   7.569  1.00  0.00     0.187 HD
HETATM    8  N   UNK N   1      29.955  18.622   9.874  0.00  0.00    -0.234 N 
HETATM    9  C   UNK N   1      32.177  16.233   8.286  0.00  0.00     0.158 A 
HETATM   10  C   UNK N   1      31.548  15.977   7.120  0.00  0.00     0.147 A 
HETATM   11  C   UNK N   1      33.343  14.817   7.179  0.00  0.00     0.187 A 
HETATM   12  C   UNK N   1      30.349  16.604   6.828  0.00  0.00     0.290 A 
HETATM   13  C   UNK N   1      30.499  17.722   8.940  0.00  0.00     0.680 A 
HETATM   14  H   UNK N   1      32.168  17.257  10.052  0.00  0.00     0.186 HD
HETATM   15  H   UNK N   1      30.426  18.797  10.721  0.00  0.00     0.174 HD
HETATM   16  H   UNK N   1      29.104  19.077   9.682  0.00  0.00     0.174 HD
ENDROOT
BRANCH   2  17
HETATM   17  C   UNK N   1      34.285  15.488   9.426  0.00  0.00     0.301 C 
BRANCH  17  18
HETATM   18  O   UNK N   1      34.773  16.778   9.654  0.00  0.00    -0.369 OA
BRANCH  18  19
HETATM   19  C   UNK N   1      35.417  16.745  10.890  0.00  0.00     0.196 C 
BRANCH  19  20
HETATM   20  C   UNK N   1      35.764  15.300  11.186  0.00  0.00     0.205 C 
BRANCH  20  21
HETATM   21  O   UNK N   1      36.016  15.102  12.525  0.00  0.00    -0.318 OA
BRANCH  21  22
HETATM   22  C   UNK N   1      35.645  13.951  13.146  0.00  0.00     0.281 C 
HETATM   23  O   UNK N   1      34.531  13.485  12.953  0.00  0.00    -0.263 OA
BRANCH  22  24
HETATM   24  C   UNK N   1      36.562  13.298  14.157  0.00  0.00     0.178 C 
BRANCH  24  25
HETATM   25  N   UNK N   1      37.558  12.486  13.469  0.00  0.00    -0.418 N 
HETATM   26  H   UNK N   1      37.425  12.191  12.503  0.00  0.00     0.150 HD
HETATM   27  H   UNK N   1      38.404  12.207  13.966  0.00  0.00     0.150 HD
ENDBRANCH  24  25
BRANCH  24  28
HETATM   28  C   UNK N   1      35.834  12.460  15.221  0.00  0.00     0.009 C 
HETATM   29  C   UNK N   1      35.656  13.248  16.510  0.00  0.00     0.012 C 
HETATM   30  C   UNK N   1      36.650  11.226  15.567  0.00  0.00     0.012 C 
ENDBRANCH  24  28
ENDBRANCH  22  24
ENDBRANCH  21  22
ENDBRANCH  20  21
ENDBRANCH  19  20
ENDBRANCH  18  19
ENDBRANCH  17  18
ENDBRANCH   2  17
TORSDOF 9
ENDMDL
MODEL 5
REMARK VINA RESULT:      -5.8      5.332      6.316
REMARK  9 active torsions:
REMARK  status: ('A' for Active; 'I' for Inactive)
REMARK    1  A    between atoms: O_1  and  C_17 
REMARK    2  A    between atoms: O_1  and  C_20 
REMARK    3  A    between atoms: O_2  and  C_19 
REMARK    4  A    between atoms: O_2  and  C_22 
REMARK    5  A    between atoms: N_5  and  C_19 
REMARK    6  A    between atoms: C_14  and  N_6 
REMARK       I    between atoms: N_12  and  C_25 
REMARK    7  A    between atoms: C_13  and  C_14 
REMARK    8  A    between atoms: C_14  and  C_17 
REMARK    9  A    between atoms: C_20  and  C_22 
ROOT
HETATM    1  O   UNK N   1      20.841  21.324   1.285  0.00  0.00    -0.265 OA
HETATM    2  N   UNK N   1      23.669  19.125   3.940  0.00  0.00    -0.305 N 
HETATM    3  N   UNK N   1      21.466  18.169   3.651  0.00  0.00    -0.174 N 
HETATM    4  N   UNK N   1      23.363  20.917   2.616  0.00  0.00    -0.345 N 
ATOM      5  HN  UNK N   1      23.524  21.785   2.105  1.00  0.00     0.167 HD
HETATM    6  N   UNK N   1      20.042  19.427   2.213  0.00  0.00    -0.154 N 
ATOM      7  HN  UNK N   1      19.138  19.542   1.755  1.00  0.00     0.187 HD
HETATM    8  N   UNK N   1      19.228  17.398   3.222  0.00  0.00    -0.234 N 
HETATM    9  C   UNK N   1      22.429  19.095   3.439  0.00  0.00     0.158 A 
HETATM   10  C   UNK N   1      22.245  20.170   2.645  0.00  0.00     0.147 A 
HETATM   11  C   UNK N   1      24.234  20.249   3.426  0.00  0.00     0.187 A 
HETATM   12  C   UNK N   1      21.032  20.361   2.007  0.00  0.00     0.290 A 
HETATM   13  C   UNK N   1      20.256  18.339   3.028  0.00  0.00     0.680 A 
HETATM   14  H   UNK N   1      21.629  17.393   4.236  0.00  0.00     0.186 HD
HETATM   15  H   UNK N   1      19.379  16.618   3.804  0.00  0.00     0.174 HD
HETATM   16  H   UNK N   1      18.359  17.518   2.777  0.00  0.00     0.174 HD
ENDROOT
BRANCH   2  17
HETATM   17  C   UNK N   1      24.286  18.156   4.843  0.00  0.00     0.301 C 
BRANCH  17  18
HETATM   18  O   UNK N   1      24.558  16.973   4.150  0.00  0.00    -0.369 OA
BRANCH  18  19
HETATM   19  C   UNK N   1      25.944  16.823   4.152  0.00  0.00     0.196 C 
BRANCH  19  20
HETATM   20  C   UNK N   1      26.366  16.503   5.571  0.00  0.00     0.205 C 
BRANCH  20  21
HETATM   21  O   UNK N   1      27.660  16.903   5.819  0.00  0.00    -0.318 OA
BRANCH  21  22
HETATM   22  C   UNK N   1      27.931  17.877   6.729  0.00  0.00     0.281 C 
HETATM   23  O   UNK N   1      28.029  19.041   6.365  0.00  0.00    -0.263 OA
BRANCH  22  24
HETATM   24  C   UNK N   1      28.217  17.518   8.171  0.00  0.00     0.178 C 
BRANCH  24  25
HETATM   25  N   UNK N   1      27.561  18.472   9.056  0.00  0.00    -0.418 N 
HETATM   26  H   UNK N   1      27.734  19.473   8.979  0.00  0.00     0.150 HD
HETATM   27  H   UNK N   1      26.914  18.130   9.768  0.00  0.00     0.150 HD
ENDBRANCH  24  25
BRANCH  24  28
HETATM   28  C   UNK N   1      29.713  17.418   8.511  0.00  0.00     0.009 C 
HETATM   29  C   UNK N   1      30.217  18.704   9.147  0.00  0.00     0.012 C 
HETATM   30  C   UNK N   1      30.526  17.203   7.245  0.00  0.00     0.012 C 
ENDBRANCH  24  28
ENDBRANCH  22  24
ENDBRANCH  21  22
ENDBRANCH  20  21
ENDBRANCH  19  20
ENDBRANCH  18  19
ENDBRANCH  17  18
ENDBRANCH   2  17
TORSDOF 9
ENDMDL
MODEL 6
REMARK VINA RESULT:      -5.7      5.260      8.720
REMARK  9 active torsions:
REMARK  status: ('A' for Active; 'I' for Inactive)
REMARK    1  A    between atoms: O_1  and  C_17 
REMARK    2  A    between atoms: O_1  and  C_20 
REMARK    3  A    between atoms: O_2  and  C_19 
REMARK    4  A    between atoms: O_2  and  C_22 
REMARK    5  A    between atoms: N_5  and  C_19 
REMARK    6  A    between atoms: C_14  and  N_6 
REMARK       I    between atoms: N_12  and  C_25 
REMARK    7  A    between atoms: C_13  and  C_14 
REMARK    8  A    between atoms: C_14  and  C_17 
REMARK    9  A    between atoms: C_20  and  C_22 
ROOT
HETATM    1  O   UNK N   1      20.417  12.899  10.535  0.00  0.00    -0.265 OA
HETATM    2  N   UNK N   1      22.884  14.147   7.037  0.00  0.00    -0.305 N 
HETATM    3  N   UNK N   1      24.069  13.309   8.973  0.00  0.00    -0.174 N 
HETATM    4  N   UNK N   1      20.808  13.933   7.875  0.00  0.00    -0.345 N 
ATOM      5  HN  UNK N   1      19.793  13.953   7.970  1.00  0.00     0.167 HD
HETATM    6  N   UNK N   1      22.650  12.673  10.779  0.00  0.00    -0.154 N 
ATOM      7  HN  UNK N   1      22.545  12.303  11.724  1.00  0.00     0.187 HD
HETATM    8  N   UNK N   1      25.037  12.447  10.999  0.00  0.00    -0.234 N 
HETATM    9  C   UNK N   1      22.960  13.650   8.277  0.00  0.00     0.158 A 
HETATM   10  C   UNK N   1      21.715  13.522   8.780  0.00  0.00     0.147 A 
HETATM   11  C   UNK N   1      21.557  14.316   6.801  0.00  0.00     0.187 A 
HETATM   12  C   UNK N   1      21.531  13.024  10.058  0.00  0.00     0.290 A 
HETATM   13  C   UNK N   1      23.909  12.813  10.242  0.00  0.00     0.680 A 
HETATM   14  H   UNK N   1      24.965  13.414   8.580  0.00  0.00     0.186 HD
HETATM   15  H   UNK N   1      25.939  12.545  10.617  0.00  0.00     0.174 HD
HETATM   16  H   UNK N   1      24.925  12.092  11.910  0.00  0.00     0.174 HD
ENDROOT
BRANCH   2  17
HETATM   17  C   UNK N   1      23.991  14.442   6.130  0.00  0.00     0.301 C 
BRANCH  17  18
HETATM   18  O   UNK N   1      24.880  15.329   6.744  0.00  0.00    -0.369 OA
BRANCH  18  19
HETATM   19  C   UNK N   1      26.163  14.857   6.470  0.00  0.00     0.196 C 
BRANCH  19  20
HETATM   20  C   UNK N   1      26.981  16.029   5.965  0.00  0.00     0.205 C 
BRANCH  20  21
HETATM   21  O   UNK N   1      27.521  16.756   7.002  0.00  0.00    -0.318 OA
BRANCH  21  22
HETATM   22  C   UNK N   1      28.429  17.742   6.769  0.00  0.00     0.281 C 
HETATM   23  O   UNK N   1      29.548  17.458   6.367  0.00  0.00    -0.263 OA
BRANCH  22  24
HETATM   24  C   UNK N   1      28.098  19.179   7.106  0.00  0.00     0.178 C 
BRANCH  24  25
HETATM   25  N   UNK N   1      27.453  19.245   8.411  0.00  0.00    -0.418 N 
HETATM   26  H   UNK N   1      26.769  18.546   8.701  0.00  0.00     0.150 HD
HETATM   27  H   UNK N   1      27.691  20.005   9.048  0.00  0.00     0.150 HD
ENDBRANCH  24  25
BRANCH  24  28
HETATM   28  C   UNK N   1      27.238  19.893   6.050  0.00  0.00     0.009 C 
HETATM   29  C   UNK N   1      27.935  19.911   4.698  0.00  0.00     0.012 C 
HETATM   30  C   UNK N   1      27.012  21.342   6.449  0.00  0.00     0.012 C 
ENDBRANCH  24  28
ENDBRANCH  22  24
ENDBRANCH  21  22
ENDBRANCH  20  21
ENDBRANCH  19  20
ENDBRANCH  18  19
ENDBRANCH  17  18
ENDBRANCH   2  17
TORSDOF 9
ENDMDL
MODEL 7
REMARK VINA RESULT:      -5.6      8.966     10.037
REMARK  9 active torsions:
REMARK  status: ('A' for Active; 'I' for Inactive)
REMARK    1  A    between atoms: O_1  and  C_17 
REMARK    2  A    between atoms: O_1  and  C_20 
REMARK    3  A    between atoms: O_2  and  C_19 
REMARK    4  A    between atoms: O_2  and  C_22 
REMARK    5  A    between atoms: N_5  and  C_19 
REMARK    6  A    between atoms: C_14  and  N_6 
REMARK       I    between atoms: N_12  and  C_25 
REMARK    7  A    between atoms: C_13  and  C_14 
REMARK    8  A    between atoms: C_14  and  C_17 
REMARK    9  A    between atoms: C_20  and  C_22 
ROOT
HETATM    1  O   UNK N   1      26.676  21.785   6.631  0.00  0.00    -0.265 OA
HETATM    2  N   UNK N   1      27.446  17.960   4.471  0.00  0.00    -0.305 N 
HETATM    3  N   UNK N   1      27.677  17.928   6.880  0.00  0.00    -0.174 N 
HETATM    4  N   UNK N   1      26.877  20.128   4.283  0.00  0.00    -0.345 N 
ATOM      5  HN  UNK N   1      26.612  21.031   3.890  1.00  0.00     0.167 HD
HETATM    6  N   UNK N   1      27.242  20.024   7.925  0.00  0.00    -0.154 N 
ATOM      7  HN  UNK N   1      27.178  20.584   8.775  1.00  0.00     0.187 HD
HETATM    8  N   UNK N   1      27.848  18.122   9.271  0.00  0.00    -0.234 N 
HETATM    9  C   UNK N   1      27.419  18.515   5.689  0.00  0.00     0.158 A 
HETATM   10  C   UNK N   1      27.077  19.815   5.575  0.00  0.00     0.147 A 
HETATM   11  C   UNK N   1      27.111  18.961   3.616  0.00  0.00     0.187 A 
HETATM   12  C   UNK N   1      26.981  20.608   6.706  0.00  0.00     0.290 A 
HETATM   13  C   UNK N   1      27.587  18.695   8.013  0.00  0.00     0.680 A 
HETATM   14  H   UNK N   1      27.924  16.976   6.931  0.00  0.00     0.186 HD
HETATM   15  H   UNK N   1      28.095  17.171   9.336  0.00  0.00     0.174 HD
HETATM   16  H   UNK N   1      27.785  18.671  10.085  0.00  0.00     0.174 HD
ENDROOT
BRANCH   2  17
HETATM   17  C   UNK N   1      27.765  16.575   4.135  0.00  0.00     0.301 C 
BRANCH  17  18
HETATM   18  O   UNK N   1      29.116  16.327   4.391  0.00  0.00    -0.369 OA
BRANCH  18  19
HETATM   19  C   UNK N   1      29.774  16.416   3.164  0.00  0.00     0.196 C 
BRANCH  19  20
HETATM   20  C   UNK N   1      31.235  16.701   3.450  0.00  0.00     0.205 C 
BRANCH  20  21
HETATM   21  O   UNK N   1      31.385  17.588   4.492  0.00  0.00    -0.318 OA
BRANCH  21  22
HETATM   22  C   UNK N   1      32.429  17.483   5.358  0.00  0.00     0.281 C 
HETATM   23  O   UNK N   1      33.553  17.807   5.002  0.00  0.00    -0.263 OA
BRANCH  22  24
HETATM   24  C   UNK N   1      32.227  16.866   6.725  0.00  0.00     0.178 C 
BRANCH  24  25
HETATM   25  N   UNK N   1      30.855  16.394   6.856  0.00  0.00    -0.418 N 
HETATM   26  H   UNK N   1      30.632  15.399   6.847  0.00  0.00     0.150 HD
HETATM   27  H   UNK N   1      30.101  17.074   6.959  0.00  0.00     0.150 HD
ENDBRANCH  24  25
BRANCH  24  28
HETATM   28  C   UNK N   1      32.584  17.798   7.896  0.00  0.00     0.009 C 
HETATM   29  C   UNK N   1      33.641  17.169   8.791  0.00  0.00     0.012 C 
HETATM   30  C   UNK N   1      31.361  18.044   8.763  0.00  0.00     0.012 C 
ENDBRANCH  24  28
ENDBRANCH  22  24
ENDBRANCH  21  22
ENDBRANCH  20  21
ENDBRANCH  19  20
ENDBRANCH  18  19
ENDBRANCH  17  18
ENDBRANCH   2  17
TORSDOF 9
ENDMDL
MODEL 8
REMARK VINA RESULT:      -5.6      3.929      6.257
REMARK  9 active torsions:
REMARK  status: ('A' for Active; 'I' for Inactive)
REMARK    1  A    between atoms: O_1  and  C_17 
REMARK    2  A    between atoms: O_1  and  C_20 
REMARK    3  A    between atoms: O_2  and  C_19 
REMARK    4  A    between atoms: O_2  and  C_22 
REMARK    5  A    between atoms: N_5  and  C_19 
REMARK    6  A    between atoms: C_14  and  N_6 
REMARK       I    between atoms: N_12  and  C_25 
REMARK    7  A    between atoms: C_13  and  C_14 
REMARK    8  A    between atoms: C_14  and  C_17 
REMARK    9  A    between atoms: C_20  and  C_22 
ROOT
HETATM    1  O   UNK N   1      22.485  21.174   2.672  0.00  0.00    -0.265 OA
HETATM    2  N   UNK N   1      22.297  17.275   4.825  0.00  0.00    -0.305 N 
HETATM    3  N   UNK N   1      20.334  17.935   3.575  0.00  0.00    -0.174 N 
HETATM    4  N   UNK N   1      23.546  19.081   4.343  0.00  0.00    -0.345 N 
ATOM      5  HN  UNK N   1      24.320  19.744   4.306  1.00  0.00     0.167 HD
HETATM    6  N   UNK N   1      20.549  20.033   2.466  0.00  0.00    -0.154 N 
ATOM      7  HN  UNK N   1      20.145  20.756   1.871  1.00  0.00     0.187 HD
HETATM    8  N   UNK N   1      18.499  18.784   2.272  0.00  0.00    -0.234 N 
HETATM    9  C   UNK N   1      21.593  18.099   4.041  0.00  0.00     0.158 A 
HETATM   10  C   UNK N   1      22.343  19.182   3.751  0.00  0.00     0.147 A 
HETATM   11  C   UNK N   1      23.495  17.889   5.003  0.00  0.00     0.187 A 
HETATM   12  C   UNK N   1      21.829  20.186   2.948  0.00  0.00     0.290 A 
HETATM   13  C   UNK N   1      19.806  18.917   2.776  0.00  0.00     0.680 A 
HETATM   14  H   UNK N   1      19.810  17.132   3.804  0.00  0.00     0.186 HD
HETATM   15  H   UNK N   1      17.966  17.987   2.492  0.00  0.00     0.174 HD
HETATM   16  H   UNK N   1      18.118  19.488   1.700  0.00  0.00     0.174 HD
ENDROOT
BRANCH   2  17
HETATM   17  C   UNK N   1      21.869  15.989   5.371  0.00  0.00     0.301 C 
BRANCH  17  18
HETATM   18  O   UNK N   1      21.194  15.260   4.388  0.00  0.00    -0.369 OA
BRANCH  18  19
HETATM   19  C   UNK N   1      21.936  14.099   4.175  0.00  0.00     0.196 C 
BRANCH  19  20
HETATM   20  C   UNK N   1      22.786  14.321   2.940  0.00  0.00     0.205 C 
BRANCH  20  21
HETATM   21  O   UNK N   1      22.071  14.930   1.934  0.00  0.00    -0.318 OA
BRANCH  21  22
HETATM   22  C   UNK N   1      21.416  14.195   0.995  0.00  0.00     0.281 C 
HETATM   23  O   UNK N   1      22.038  13.410   0.293  0.00  0.00    -0.263 OA
BRANCH  22  24
HETATM   24  C   UNK N   1      19.942  14.419   0.740  0.00  0.00     0.178 C 
BRANCH  24  25
HETATM   25  N   UNK N   1      19.357  15.164   1.848  0.00  0.00    -0.418 N 
HETATM   26  H   UNK N   1      18.459  15.638   1.754  0.00  0.00     0.150 HD
HETATM   27  H   UNK N   1      19.857  15.212   2.736  0.00  0.00     0.150 HD
ENDBRANCH  24  25
BRANCH  24  28
HETATM   28  C   UNK N   1      19.143  13.130   0.484  0.00  0.00     0.009 C 
HETATM   29  C   UNK N   1      17.710  13.446   0.083  0.00  0.00     0.012 C 
HETATM   30  C   UNK N   1      19.072  12.295   1.751  0.00  0.00     0.012 C 
ENDBRANCH  24  28
ENDBRANCH  22  24
ENDBRANCH  21  22
ENDBRANCH  20  21
ENDBRANCH  19  20
ENDBRANCH  18  19
ENDBRANCH  17  18
ENDBRANCH   2  17
TORSDOF 9
ENDMDL
MODEL 9
REMARK VINA RESULT:      -5.6     12.878     16.469
REMARK  9 active torsions:
REMARK  status: ('A' for Active; 'I' for Inactive)
REMARK    1  A    between atoms: O_1  and  C_17 
REMARK    2  A    between atoms: O_1  and  C_20 
REMARK    3  A    between atoms: O_2  and  C_19 
REMARK    4  A    between atoms: O_2  and  C_22 
REMARK    5  A    between atoms: N_5  and  C_19 
REMARK    6  A    between atoms: C_14  and  N_6 
REMARK       I    between atoms: N_12  and  C_25 
REMARK    7  A    between atoms: C_13  and  C_14 
REMARK    8  A    between atoms: C_14  and  C_17 
REMARK    9  A    between atoms: C_20  and  C_22 
ROOT
HETATM    1  O   UNK N   1      35.509   9.047  11.185  0.00  0.00    -0.265 OA
HETATM    2  N   UNK N   1      36.098  13.289  12.426  0.00  0.00    -0.305 N 
HETATM    3  N   UNK N   1      34.438  12.865  10.718  0.00  0.00    -0.174 N 
HETATM    4  N   UNK N   1      36.733  11.153  12.724  0.00  0.00    -0.345 N 
ATOM      5  HN  UNK N   1      37.213  10.322  13.070  1.00  0.00     0.167 HD
HETATM    6  N   UNK N   1      34.210  10.566  10.136  0.00  0.00    -0.154 N 
ATOM      7  HN  UNK N   1      33.757   9.843   9.576  1.00  0.00     0.187 HD
HETATM    8  N   UNK N   1      32.842  12.217   9.040  0.00  0.00    -0.234 N 
HETATM    9  C   UNK N   1      35.393  12.503  11.605  0.00  0.00     0.158 A 
HETATM   10  C   UNK N   1      35.774  11.221  11.784  0.00  0.00     0.147 A 
HETATM   11  C   UNK N   1      36.918  12.448  13.108  0.00  0.00     0.187 A 
HETATM   12  C   UNK N   1      35.183  10.212  11.043  0.00  0.00     0.290 A 
HETATM   13  C   UNK N   1      33.839  11.881   9.974  0.00  0.00     0.680 A 
HETATM   14  H   UNK N   1      34.180  13.810  10.609  0.00  0.00     0.186 HD
HETATM   15  H   UNK N   1      32.574  13.156   8.922  0.00  0.00     0.174 HD
HETATM   16  H   UNK N   1      32.412  11.512   8.504  0.00  0.00     0.174 HD
ENDROOT
BRANCH   2  17
HETATM   17  C   UNK N   1      36.005  14.741  12.561  0.00  0.00     0.301 C 
BRANCH  17  18
HETATM   18  O   UNK N   1      36.313  15.349  11.341  0.00  0.00    -0.369 OA
BRANCH  18  19
HETATM   19  C   UNK N   1      35.388  16.378  11.167  0.00  0.00     0.196 C 
BRANCH  19  20
HETATM   20  C   UNK N   1      34.947  16.355   9.717  0.00  0.00     0.205 C 
BRANCH  20  21
HETATM   21  O   UNK N   1      34.075  17.381   9.435  0.00  0.00    -0.318 OA
BRANCH  21  22
HETATM   22  C   UNK N   1      34.212  18.129   8.307  0.00  0.00     0.281 C 
HETATM   23  O   UNK N   1      35.063  19.007   8.257  0.00  0.00    -0.263 OA
BRANCH  22  24
HETATM   24  C   UNK N   1      33.251  17.954   7.152  0.00  0.00     0.178 C 
BRANCH  24  25
HETATM   25  N   UNK N   1      32.112  17.148   7.575  0.00  0.00    -0.418 N 
HETATM   26  H   UNK N   1      31.222  17.185   7.079  0.00  0.00     0.150 HD
HETATM   27  H   UNK N   1      32.208  16.535   8.385  0.00  0.00     0.150 HD
ENDBRANCH  24  25
BRANCH  24  28
HETATM   28  C   UNK N   1      33.887  17.353   5.887  0.00  0.00     0.009 C 
HETATM   29  C   UNK N   1      32.923  17.408   4.712  0.00  0.00     0.012 C 
HETATM   30  C   UNK N   1      34.224  15.889   6.113  0.00  0.00     0.012 C 
ENDBRANCH  24  28
ENDBRANCH  22  24
ENDBRANCH  21  22
ENDBRANCH  20  21
ENDBRANCH  19  20
ENDBRANCH  18  19
ENDBRANCH  17  18
ENDBRANCH   2  17
TORSDOF 9
ENDMDL
