MODEL 1
REMARK VINA RESULT:      -7.5      0.000      0.000
REMARK  7 active torsions:
REMARK  status: ('A' for Active; 'I' for Inactive)
REMARK    1  A    between atoms: O_3  and  C_17 
REMARK    2  A    between atoms: O_6  and  C_21 
REMARK    3  A    between atoms: C_13  and  N_9 
REMARK       I    between atoms: N_9  and  C_18 
REMARK    4  A    between atoms: C_12  and  C_17 
REMARK    5  A    between atoms: C_18  and  C_19 
REMARK    6  A    between atoms: C_19  and  C_20 
REMARK    7  A    between atoms: C_19  and  C_21 
ROOT
HETATM    1  O   UNK N   1      34.468  13.084  13.166  0.00  0.00    -0.272 OA
HETATM    2  N   UNK N   1      35.647  14.696  12.162  0.00  0.00    -0.344 N 
HETATM    3  C   UNK N   1      35.521  13.702  13.071  0.00  0.00     0.237 C 
HETATM    4  H   UNK N   1      36.497  15.192  12.116  0.00  0.00     0.163 HD
ENDROOT
BRANCH   2   5
HETATM    5  C   UNK N   1      34.583  15.058  11.257  0.00  0.00     0.210 A 
HETATM    6  C   UNK N   1      34.740  14.243   9.866  0.00  0.00     0.183 A 
HETATM    7  S   UNK N   1      33.254  13.809   8.912  0.00  0.00    -0.129 SA
HETATM    8  N   UNK N   1      35.166  15.452   9.266  0.00  0.00    -0.318 N 
HETATM    9  C   UNK N   1      34.105  14.476   7.418  0.00  0.00     0.033 C 
HETATM   10  C   UNK N   1      34.886  15.744   7.869  0.00  0.00     0.204 C 
HETATM   11  C   UNK N   1      35.098  13.433   6.934  0.00  0.00     0.029 C 
HETATM   12  C   UNK N   1      33.095  14.690   6.300  0.00  0.00     0.029 C 
HETATM   13  C   UNK N   1      35.058  16.151  10.365  0.00  0.00     0.247 A 
HETATM   14  O   UNK N   1      35.086  17.360  10.514  0.00  0.00    -0.271 OA
BRANCH  10  15
HETATM   15  C   UNK N   1      34.156  17.049   7.556  0.00  0.00     0.165 C 
HETATM   16  O   UNK N   1      34.588  17.767   6.669  0.00  0.00    -0.648 OA
BRANCH  15  17
HETATM   17  O   UNK N   1      33.054  17.440   8.219  0.00  0.00    -0.775 OA
HETATM   18  H   UNK N   1      32.480  18.159   8.045  0.00  0.00     0.167 HD
ENDBRANCH  15  17
ENDBRANCH  10  15
ENDBRANCH   2   5
BRANCH   3  19
HETATM   19  C   UNK N   1      36.691  13.373  13.972  0.00  0.00     0.208 C 
BRANCH  19  20
HETATM   20  C   UNK N   1      36.529  13.977  15.358  0.00  0.00    -0.035 A 
HETATM   21  C   UNK N   1      37.262  15.134  15.669  0.00  0.00     0.008 A 
HETATM   22  C   UNK N   1      37.155  15.727  16.929  0.00  0.00     0.001 A 
HETATM   23  C   UNK N   1      36.314  15.169  17.894  0.00  0.00     0.000 A 
HETATM   24  C   UNK N   1      35.582  14.017  17.599  0.00  0.00     0.001 A 
HETATM   25  C   UNK N   1      35.690  13.423  16.339  0.00  0.00     0.008 A 
ENDBRANCH  19  20
BRANCH  19  26
HETATM   26  C   UNK N   1      37.022  11.891  13.867  0.00  0.00     0.157 C 
HETATM   27  O   UNK N   1      37.951  11.438  14.517  0.00  0.00    -0.649 OA
BRANCH  26  28
HETATM   28  O   UNK N   1      36.308  11.059  13.086  0.00  0.00    -0.775 OA
HETATM   29  H   UNK N   1      35.381  10.937  13.150  0.00  0.00     0.167 HD
ENDBRANCH  26  28
ENDBRANCH  19  26
ENDBRANCH   3  19
TORSDOF 7
ENDMDL
MODEL 2
REMARK VINA RESULT:      -6.8      4.696      9.988
REMARK  7 active torsions:
REMARK  status: ('A' for Active; 'I' for Inactive)
REMARK    1  A    between atoms: O_3  and  C_17 
REMARK    2  A    between atoms: O_6  and  C_21 
REMARK    3  A    between atoms: C_13  and  N_9 
REMARK       I    between atoms: N_9  and  C_18 
REMARK    4  A    between atoms: C_12  and  C_17 
REMARK    5  A    between atoms: C_18  and  C_19 
REMARK    6  A    between atoms: C_19  and  C_20 
REMARK    7  A    between atoms: C_19  and  C_21 
ROOT
HETATM    1  O   UNK N   1      31.257  17.974   4.388  0.00  0.00    -0.272 OA
HETATM    2  N   UNK N   1      31.065  16.778   6.268  0.00  0.00    -0.344 N 
HETATM    3  C   UNK N   1      30.540  17.344   5.156  0.00  0.00     0.237 C 
HETATM    4  H   UNK N   1      30.465  16.292   6.880  0.00  0.00     0.163 HD
ENDROOT
BRANCH   2   5
HETATM    5  C   UNK N   1      32.468  16.860   6.590  0.00  0.00     0.210 A 
HETATM    6  C   UNK N   1      32.968  15.465   7.244  0.00  0.00     0.183 A 
HETATM    7  S   UNK N   1      34.686  14.926   6.995  0.00  0.00    -0.129 SA
HETATM    8  N   UNK N   1      33.017  16.130   8.493  0.00  0.00    -0.318 N 
HETATM    9  C   UNK N   1      34.777  14.615   8.810  0.00  0.00     0.033 C 
HETATM   10  C   UNK N   1      33.994  15.764   9.507  0.00  0.00     0.204 C 
HETATM   11  C   UNK N   1      34.079  13.296   9.100  0.00  0.00     0.029 C 
HETATM   12  C   UNK N   1      36.230  14.458   9.235  0.00  0.00     0.029 C 
HETATM   13  C   UNK N   1      32.615  17.275   8.011  0.00  0.00     0.247 A 
HETATM   14  O   UNK N   1      32.624  18.375   8.535  0.00  0.00    -0.271 OA
BRANCH  10  15
HETATM   15  C   UNK N   1      34.897  16.872  10.046  0.00  0.00     0.165 C 
HETATM   16  O   UNK N   1      35.204  16.859  11.227  0.00  0.00    -0.648 OA
BRANCH  15  17
HETATM   17  O   UNK N   1      35.368  17.865   9.271  0.00  0.00    -0.775 OA
HETATM   18  H   UNK N   1      35.681  17.831   8.389  0.00  0.00     0.167 HD
ENDBRANCH  15  17
ENDBRANCH  10  15
ENDBRANCH   2   5
BRANCH   3  19
HETATM   19  C   UNK N   1      29.059  17.196   4.881  0.00  0.00     0.208 C 
BRANCH  19  20
HETATM   20  C   UNK N   1      28.295  18.475   5.185  0.00  0.00    -0.035 A 
HETATM   21  C   UNK N   1      27.739  19.189   4.111  0.00  0.00     0.008 A 
HETATM   22  C   UNK N   1      27.032  20.372   4.334  0.00  0.00     0.001 A 
HETATM   23  C   UNK N   1      26.873  20.858   5.633  0.00  0.00     0.000 A 
HETATM   24  C   UNK N   1      27.424  20.159   6.711  0.00  0.00     0.001 A 
HETATM   25  C   UNK N   1      28.132  18.975   6.487  0.00  0.00     0.008 A 
ENDBRANCH  19  20
BRANCH  19  26
HETATM   26  C   UNK N   1      28.849  16.537   3.526  0.00  0.00     0.157 C 
HETATM   27  O   UNK N   1      27.889  15.801   3.361  0.00  0.00    -0.649 OA
BRANCH  26  28
HETATM   28  O   UNK N   1      29.688  16.754   2.494  0.00  0.00    -0.775 OA
HETATM   29  H   UNK N   1      30.360  16.158   2.224  0.00  0.00     0.167 HD
ENDBRANCH  26  28
ENDBRANCH  19  26
ENDBRANCH   3  19
TORSDOF 7
ENDMDL
MODEL 3
REMARK VINA RESULT:      -6.8      4.307      7.078
REMARK  7 active torsions:
REMARK  status: ('A' for Active; 'I' for Inactive)
REMARK    1  A    between atoms: O_3  and  C_17 
REMARK    2  A    between atoms: O_6  and  C_21 
REMARK    3  A    between atoms: C_13  and  N_9 
REMARK       I    between atoms: N_9  and  C_18 
REMARK    4  A    between atoms: C_12  and  C_17 
REMARK    5  A    between atoms: C_18  and  C_19 
REMARK    6  A    between atoms: C_19  and  C_20 
REMARK    7  A    between atoms: C_19  and  C_21 
ROOT
HETATM    1  O   UNK N   1      32.362  15.395   8.963  0.00  0.00    -0.272 OA
HETATM    2  N   UNK N   1      31.697  17.304   8.010  0.00  0.00    -0.344 N 
HETATM    3  C   UNK N   1      32.607  16.561   8.681  0.00  0.00     0.237 C 
HETATM    4  H   UNK N   1      31.909  18.245   7.810  0.00  0.00     0.163 HD
ENDROOT
BRANCH   2   5
HETATM    5  C   UNK N   1      30.428  16.770   7.577  0.00  0.00     0.210 A 
HETATM    6  C   UNK N   1      30.461  16.492   5.982  0.00  0.00     0.183 A 
HETATM    7  S   UNK N   1      29.463  15.138   5.290  0.00  0.00    -0.129 SA
HETATM    8  N   UNK N   1      29.625  17.623   5.820  0.00  0.00    -0.318 N 
HETATM    9  C   UNK N   1      28.851  16.331   4.024  0.00  0.00     0.033 C 
HETATM   10  C   UNK N   1      28.648  17.694   4.746  0.00  0.00     0.204 C 
HETATM   11  C   UNK N   1      29.930  16.492   2.966  0.00  0.00     0.029 C 
HETATM   12  C   UNK N   1      27.621  15.764   3.332  0.00  0.00     0.029 C 
HETATM   13  C   UNK N   1      29.571  17.889   7.098  0.00  0.00     0.247 A 
HETATM   14  O   UNK N   1      28.833  18.653   7.694  0.00  0.00    -0.271 OA
BRANCH  10  15
HETATM   15  C   UNK N   1      27.194  17.962   5.135  0.00  0.00     0.165 C 
HETATM   16  O   UNK N   1      26.570  18.816   4.526  0.00  0.00    -0.648 OA
BRANCH  15  17
HETATM   17  O   UNK N   1      26.573  17.294   6.123  0.00  0.00    -0.775 OA
HETATM   18  H   UNK N   1      26.889  17.067   6.975  0.00  0.00     0.167 HD
ENDBRANCH  15  17
ENDBRANCH  10  15
ENDBRANCH   2   5
BRANCH   3  19
HETATM   19  C   UNK N   1      33.923  17.191   9.083  0.00  0.00     0.208 C 
BRANCH  19  20
HETATM   20  C   UNK N   1      34.895  16.165   9.645  0.00  0.00    -0.035 A 
HETATM   21  C   UNK N   1      35.190  16.210  11.017  0.00  0.00     0.008 A 
HETATM   22  C   UNK N   1      36.081  15.295  11.583  0.00  0.00     0.001 A 
HETATM   23  C   UNK N   1      36.689  14.326  10.784  0.00  0.00     0.000 A 
HETATM   24  C   UNK N   1      36.407  14.272   9.417  0.00  0.00     0.001 A 
HETATM   25  C   UNK N   1      35.516  15.188   8.850  0.00  0.00     0.008 A 
ENDBRANCH  19  20
BRANCH  19  26
HETATM   26  C   UNK N   1      34.411  18.116   7.979  0.00  0.00     0.157 C 
HETATM   27  O   UNK N   1      34.981  19.155   8.276  0.00  0.00    -0.649 OA
BRANCH  26  28
HETATM   28  O   UNK N   1      34.245  17.816   6.677  0.00  0.00    -0.775 OA
HETATM   29  H   UNK N   1      34.807  18.115   5.988  0.00  0.00     0.167 HD
ENDBRANCH  26  28
ENDBRANCH  19  26
ENDBRANCH   3  19
TORSDOF 7
ENDMDL
MODEL 4
REMARK VINA RESULT:      -6.7      2.168      2.631
REMARK  7 active torsions:
REMARK  status: ('A' for Active; 'I' for Inactive)
REMARK    1  A    between atoms: O_3  and  C_17 
REMARK    2  A    between atoms: O_6  and  C_21 
REMARK    3  A    between atoms: C_13  and  N_9 
REMARK       I    between atoms: N_9  and  C_18 
REMARK    4  A    between atoms: C_12  and  C_17 
REMARK    5  A    between atoms: C_18  and  C_19 
REMARK    6  A    between atoms: C_19  and  C_20 
REMARK    7  A    between atoms: C_19  and  C_21 
ROOT
HETATM    1  O   UNK N   1      35.331  14.525  13.598  0.00  0.00    -0.272 OA
HETATM    2  N   UNK N   1      35.453  13.823  11.479  0.00  0.00    -0.344 N 
HETATM    3  C   UNK N   1      35.806  13.744  12.783  0.00  0.00     0.237 C 
HETATM    4  H   UNK N   1      35.862  13.196  10.839  0.00  0.00     0.163 HD
ENDROOT
BRANCH   2   5
HETATM    5  C   UNK N   1      34.501  14.791  10.991  0.00  0.00     0.210 A 
HETATM    6  C   UNK N   1      33.896  14.304   9.570  0.00  0.00     0.183 A 
HETATM    7  S   UNK N   1      32.198  14.768   9.115  0.00  0.00    -0.129 SA
HETATM    8  N   UNK N   1      34.681  15.307   8.952  0.00  0.00    -0.318 N 
HETATM    9  C   UNK N   1      32.858  15.302   7.478  0.00  0.00     0.033 C 
HETATM   10  C   UNK N   1      34.233  15.980   7.743  0.00  0.00     0.204 C 
HETATM   11  C   UNK N   1      33.077  14.061   6.629  0.00  0.00     0.029 C 
HETATM   12  C   UNK N   1      31.828  16.163   6.761  0.00  0.00     0.029 C 
HETATM   13  C   UNK N   1      35.198  15.733  10.073  0.00  0.00     0.247 A 
HETATM   14  O   UNK N   1      35.835  16.749  10.289  0.00  0.00    -0.271 OA
BRANCH  10  15
HETATM   15  C   UNK N   1      34.160  17.506   7.773  0.00  0.00     0.165 C 
HETATM   16  O   UNK N   1      34.610  18.135   6.828  0.00  0.00    -0.648 OA
BRANCH  15  17
HETATM   17  O   UNK N   1      33.620  18.185   8.799  0.00  0.00    -0.775 OA
HETATM   18  H   UNK N   1      32.743  18.167   9.128  0.00  0.00     0.167 HD
ENDBRANCH  15  17
ENDBRANCH  10  15
ENDBRANCH   2   5
BRANCH   3  19
HETATM   19  C   UNK N   1      36.798  12.687  13.217  0.00  0.00     0.208 C 
BRANCH  19  20
HETATM   20  C   UNK N   1      36.170  11.670  14.156  0.00  0.00    -0.035 A 
HETATM   21  C   UNK N   1      34.823  11.326  13.960  0.00  0.00     0.008 A 
HETATM   22  C   UNK N   1      34.195  10.401  14.798  0.00  0.00     0.001 A 
HETATM   23  C   UNK N   1      34.906   9.810  15.844  0.00  0.00     0.000 A 
HETATM   24  C   UNK N   1      36.246  10.146  16.053  0.00  0.00     0.001 A 
HETATM   25  C   UNK N   1      36.873  11.072  15.215  0.00  0.00     0.008 A 
ENDBRANCH  19  20
BRANCH  19  26
HETATM   26  C   UNK N   1      37.564  12.171  12.007  0.00  0.00     0.157 C 
HETATM   27  O   UNK N   1      37.351  11.039  11.601  0.00  0.00    -0.649 OA
BRANCH  26  28
HETATM   28  O   UNK N   1      38.466  12.935  11.361  0.00  0.00    -0.775 OA
HETATM   29  H   UNK N   1      39.291  13.199  11.721  0.00  0.00     0.167 HD
ENDBRANCH  26  28
ENDBRANCH  19  26
ENDBRANCH   3  19
TORSDOF 7
ENDMDL
MODEL 5
REMARK VINA RESULT:      -6.5     12.904     14.971
REMARK  7 active torsions:
REMARK  status: ('A' for Active; 'I' for Inactive)
REMARK    1  A    between atoms: O_3  and  C_17 
REMARK    2  A    between atoms: O_6  and  C_21 
REMARK    3  A    between atoms: C_13  and  N_9 
REMARK       I    between atoms: N_9  and  C_18 
REMARK    4  A    between atoms: C_12  and  C_17 
REMARK    5  A    between atoms: C_18  and  C_19 
REMARK    6  A    between atoms: C_19  and  C_20 
REMARK    7  A    between atoms: C_19  and  C_21 
ROOT
HETATM    1  O   UNK N   1      21.157  11.588   7.163  0.00  0.00    -0.272 OA
HETATM    2  N   UNK N   1      20.980  13.668   6.363  0.00  0.00    -0.344 N 
HETATM    3  C   UNK N   1      21.049  12.787   7.387  0.00  0.00     0.237 C 
HETATM    4  H   UNK N   1      20.875  14.626   6.568  0.00  0.00     0.163 HD
ENDROOT
BRANCH   2   5
HETATM    5  C   UNK N   1      21.056  13.257   4.982  0.00  0.00     0.210 A 
HETATM    6  C   UNK N   1      22.445  13.773   4.327  0.00  0.00     0.183 A 
HETATM    7  S   UNK N   1      23.223  12.802   3.002  0.00  0.00    -0.129 SA
HETATM    8  N   UNK N   1      21.690  14.739   3.617  0.00  0.00    -0.318 N 
HETATM    9  C   UNK N   1      23.390  14.370   2.047  0.00  0.00     0.033 C 
HETATM   10  C   UNK N   1      22.095  15.194   2.297  0.00  0.00     0.204 C 
HETATM   11  C   UNK N   1      24.577  15.139   2.604  0.00  0.00     0.029 C 
HETATM   12  C   UNK N   1      23.700  14.057   0.590  0.00  0.00     0.029 C 
HETATM   13  C   UNK N   1      20.546  14.359   4.121  0.00  0.00     0.247 A 
HETATM   14  O   UNK N   1      19.417  14.657   3.774  0.00  0.00    -0.271 OA
BRANCH  10  15
HETATM   15  C   UNK N   1      21.073  15.072   1.167  0.00  0.00     0.165 C 
HETATM   16  O   UNK N   1      20.828  16.055   0.487  0.00  0.00    -0.648 OA
BRANCH  15  17
HETATM   17  O   UNK N   1      20.430  13.924   0.892  0.00  0.00    -0.775 OA
HETATM   18  H   UNK N   1      19.517  13.726   0.951  0.00  0.00     0.167 HD
ENDBRANCH  15  17
ENDBRANCH  10  15
ENDBRANCH   2   5
BRANCH   3  19
HETATM   19  C   UNK N   1      20.980  13.301   8.809  0.00  0.00     0.208 C 
BRANCH  19  20
HETATM   20  C   UNK N   1      22.219  12.928   9.608  0.00  0.00    -0.035 A 
HETATM   21  C   UNK N   1      22.044  12.340  10.870  0.00  0.00     0.008 A 
HETATM   22  C   UNK N   1      23.148  11.982  11.649  0.00  0.00     0.001 A 
HETATM   23  C   UNK N   1      24.440  12.212  11.174  0.00  0.00     0.000 A 
HETATM   24  C   UNK N   1      24.629  12.800   9.921  0.00  0.00     0.001 A 
HETATM   25  C   UNK N   1      23.525  13.158   9.144  0.00  0.00     0.008 A 
ENDBRANCH  19  20
BRANCH  19  26
HETATM   26  C   UNK N   1      20.534  14.756   8.811  0.00  0.00     0.157 C 
HETATM   27  O   UNK N   1      19.451  15.049   9.295  0.00  0.00    -0.649 OA
BRANCH  26  28
HETATM   28  O   UNK N   1      21.306  15.735   8.304  0.00  0.00    -0.775 OA
HETATM   29  H   UNK N   1      22.199  15.886   8.549  0.00  0.00     0.167 HD
ENDBRANCH  26  28
ENDBRANCH  19  26
ENDBRANCH   3  19
TORSDOF 7
ENDMDL
MODEL 6
REMARK VINA RESULT:      -6.5      2.501      3.471
REMARK  7 active torsions:
REMARK  status: ('A' for Active; 'I' for Inactive)
REMARK    1  A    between atoms: O_3  and  C_17 
REMARK    2  A    between atoms: O_6  and  C_21 
REMARK    3  A    between atoms: C_13  and  N_9 
REMARK       I    between atoms: N_9  and  C_18 
REMARK    4  A    between atoms: C_12  and  C_17 
REMARK    5  A    between atoms: C_18  and  C_19 
REMARK    6  A    between atoms: C_19  and  C_20 
REMARK    7  A    between atoms: C_19  and  C_21 
ROOT
HETATM    1  O   UNK N   1      37.649  12.223  14.453  0.00  0.00    -0.272 OA
HETATM    2  N   UNK N   1      35.643  12.548  13.522  0.00  0.00    -0.344 N 
HETATM    3  C   UNK N   1      36.447  11.986  14.454  0.00  0.00     0.237 C 
HETATM    4  H   UNK N   1      34.682  12.328  13.531  0.00  0.00     0.163 HD
ENDROOT
BRANCH   2   5
HETATM    5  C   UNK N   1      36.138  13.456  12.517  0.00  0.00     0.210 A 
HETATM    6  C   UNK N   1      34.900  14.090  11.686  0.00  0.00     0.183 A 
HETATM    7  S   UNK N   1      35.050  15.766  10.999  0.00  0.00    -0.129 SA
HETATM    8  N   UNK N   1      35.274  13.262  10.600  0.00  0.00    -0.318 N 
HETATM    9  C   UNK N   1      34.430  15.090   9.400  0.00  0.00     0.033 C 
HETATM   10  C   UNK N   1      35.072  13.684   9.223  0.00  0.00     0.204 C 
HETATM   11  C   UNK N   1      32.922  14.933   9.505  0.00  0.00     0.029 C 
HETATM   12  C   UNK N   1      34.703  16.082   8.279  0.00  0.00     0.029 C 
HETATM   13  C   UNK N   1      36.282  12.721  11.231  0.00  0.00     0.247 A 
HETATM   14  O   UNK N   1      37.188  12.036  10.789  0.00  0.00    -0.271 OA
BRANCH  10  15
HETATM   15  C   UNK N   1      36.291  13.685   8.301  0.00  0.00     0.165 C 
HETATM   16  O   UNK N   1      36.175  13.240   7.171  0.00  0.00    -0.648 OA
BRANCH  15  17
HETATM   17  O   UNK N   1      37.489  14.158   8.686  0.00  0.00    -0.775 OA
HETATM   18  H   UNK N   1      37.745  15.038   8.883  0.00  0.00     0.167 HD
ENDBRANCH  15  17
ENDBRANCH  10  15
ENDBRANCH   2   5
BRANCH   3  19
HETATM   19  C   UNK N   1      35.846  11.058  15.486  0.00  0.00     0.208 C 
BRANCH  19  20
HETATM   20  C   UNK N   1      35.602  11.763  16.811  0.00  0.00    -0.035 A 
HETATM   21  C   UNK N   1      35.633  10.998  17.987  0.00  0.00     0.008 A 
HETATM   22  C   UNK N   1      35.411  11.595  19.231  0.00  0.00     0.001 A 
HETATM   23  C   UNK N   1      35.152  12.964  19.312  0.00  0.00     0.000 A 
HETATM   24  C   UNK N   1      35.114  13.736  18.149  0.00  0.00     0.001 A 
HETATM   25  C   UNK N   1      35.336  13.139  16.905  0.00  0.00     0.008 A 
ENDBRANCH  19  20
BRANCH  19  26
HETATM   26  C   UNK N   1      34.699  10.272  14.867  0.00  0.00     0.157 C 
HETATM   27  O   UNK N   1      34.921   9.177  14.374  0.00  0.00    -0.649 OA
BRANCH  26  28
HETATM   28  O   UNK N   1      33.438  10.745  14.860  0.00  0.00    -0.775 OA
HETATM   29  H   UNK N   1      33.090  11.315  14.201  0.00  0.00     0.167 HD
ENDBRANCH  26  28
ENDBRANCH  19  26
ENDBRANCH   3  19
TORSDOF 7
ENDMDL
MODEL 7
REMARK VINA RESULT:      -6.4     14.150     17.891
REMARK  7 active torsions:
REMARK  status: ('A' for Active; 'I' for Inactive)
REMARK    1  A    between atoms: O_3  and  C_17 
REMARK    2  A    between atoms: O_6  and  C_21 
REMARK    3  A    between atoms: C_13  and  N_9 
REMARK       I    between atoms: N_9  and  C_18 
REMARK    4  A    between atoms: C_12  and  C_17 
REMARK    5  A    between atoms: C_18  and  C_19 
REMARK    6  A    between atoms: C_19  and  C_20 
REMARK    7  A    between atoms: C_19  and  C_21 
ROOT
HETATM    1  O   UNK N   1      21.476  17.427   3.056  0.00  0.00    -0.272 OA
HETATM    2  N   UNK N   1      21.440  15.282   3.687  0.00  0.00    -0.344 N 
HETATM    3  C   UNK N   1      21.318  16.252   2.750  0.00  0.00     0.237 C 
HETATM    4  H   UNK N   1      21.290  14.345   3.421  0.00  0.00     0.163 HD
ENDROOT
BRANCH   2   5
HETATM    5  C   UNK N   1      21.779  15.569   5.059  0.00  0.00     0.210 A 
HETATM    6  C   UNK N   1      22.211  14.205   5.818  0.00  0.00     0.183 A 
HETATM    7  S   UNK N   1      23.426  14.280   7.169  0.00  0.00    -0.129 SA
HETATM    8  N   UNK N   1      20.970  14.254   6.499  0.00  0.00    -0.318 N 
HETATM    9  C   UNK N   1      22.270  13.250   8.171  0.00  0.00     0.033 C 
HETATM   10  C   UNK N   1      20.830  13.746   7.854  0.00  0.00     0.204 C 
HETATM   11  C   UNK N   1      22.405  11.807   7.714  0.00  0.00     0.029 C 
HETATM   12  C   UNK N   1      22.674  13.298   9.637  0.00  0.00     0.029 C 
HETATM   13  C   UNK N   1      20.578  15.352   5.910  0.00  0.00     0.247 A 
HETATM   14  O   UNK N   1      19.641  16.080   6.187  0.00  0.00    -0.271 OA
BRANCH  10  15
HETATM   15  C   UNK N   1      20.273  14.701   8.909  0.00  0.00     0.165 C 
HETATM   16  O   UNK N   1      19.404  14.299   9.666  0.00  0.00    -0.648 OA
BRANCH  15  17
HETATM   17  O   UNK N   1      20.701  15.969   9.037  0.00  0.00    -0.775 OA
HETATM   18  H   UNK N   1      21.260  16.466   8.474  0.00  0.00     0.167 HD
ENDBRANCH  15  17
ENDBRANCH  10  15
ENDBRANCH   2   5
BRANCH   3  19
HETATM   19  C   UNK N   1      20.977  15.865   1.328  0.00  0.00     0.208 C 
BRANCH  19  20
HETATM   20  C   UNK N   1      20.537  14.413   1.224  0.00  0.00    -0.035 A 
HETATM   21  C   UNK N   1      19.202  14.100   1.524  0.00  0.00     0.008 A 
HETATM   22  C   UNK N   1      18.746  12.782   1.450  0.00  0.00     0.001 A 
HETATM   23  C   UNK N   1      19.620  11.760   1.076  0.00  0.00     0.000 A 
HETATM   24  C   UNK N   1      20.952  12.057   0.777  0.00  0.00     0.001 A 
HETATM   25  C   UNK N   1      21.408  13.376   0.852  0.00  0.00     0.008 A 
ENDBRANCH  19  20
BRANCH  19  26
HETATM   26  C   UNK N   1      20.092  16.932   0.701  0.00  0.00     0.157 C 
HETATM   27  O   UNK N   1      20.284  17.263  -0.459  0.00  0.00    -0.649 OA
BRANCH  26  28
HETATM   28  O   UNK N   1      19.091  17.515   1.387  0.00  0.00    -0.775 OA
HETATM   29  H   UNK N   1      18.284  17.801   1.004  0.00  0.00     0.167 HD
ENDBRANCH  26  28
ENDBRANCH  19  26
ENDBRANCH   3  19
TORSDOF 7
ENDMDL
MODEL 8
REMARK VINA RESULT:      -6.4      2.635      3.449
REMARK  7 active torsions:
REMARK  status: ('A' for Active; 'I' for Inactive)
REMARK    1  A    between atoms: O_3  and  C_17 
REMARK    2  A    between atoms: O_6  and  C_21 
REMARK    3  A    between atoms: C_13  and  N_9 
REMARK       I    between atoms: N_9  and  C_18 
REMARK    4  A    between atoms: C_12  and  C_17 
REMARK    5  A    between atoms: C_18  and  C_19 
REMARK    6  A    between atoms: C_19  and  C_20 
REMARK    7  A    between atoms: C_19  and  C_21 
ROOT
HETATM    1  O   UNK N   1      34.007  12.338  14.635  0.00  0.00    -0.272 OA
HETATM    2  N   UNK N   1      35.832  13.251  13.723  0.00  0.00    -0.344 N 
HETATM    3  C   UNK N   1      35.071  12.923  14.792  0.00  0.00     0.237 C 
HETATM    4  H   UNK N   1      36.676  13.737  13.873  0.00  0.00     0.163 HD
ENDROOT
BRANCH   2   5
HETATM    5  C   UNK N   1      35.455  12.916  12.372  0.00  0.00     0.210 A 
HETATM    6  C   UNK N   1      36.727  13.092  11.383  0.00  0.00     0.183 A 
HETATM    7  S   UNK N   1      36.870  12.031   9.914  0.00  0.00    -0.129 SA
HETATM    8  N   UNK N   1      36.106  14.259  10.878  0.00  0.00    -0.318 N 
HETATM    9  C   UNK N   1      37.209  13.555   8.934  0.00  0.00     0.033 C 
HETATM   10  C   UNK N   1      36.281  14.670   9.494  0.00  0.00     0.204 C 
HETATM   11  C   UNK N   1      38.656  13.956   9.167  0.00  0.00     0.029 C 
HETATM   12  C   UNK N   1      37.057  13.259   7.449  0.00  0.00     0.029 C 
HETATM   13  C   UNK N   1      35.062  14.161  11.657  0.00  0.00     0.247 A 
HETATM   14  O   UNK N   1      34.003  14.761  11.603  0.00  0.00    -0.271 OA
BRANCH  10  15
HETATM   15  C   UNK N   1      35.018  14.885   8.660  0.00  0.00     0.165 C 
HETATM   16  O   UNK N   1      34.903  15.919   8.022  0.00  0.00    -0.648 OA
BRANCH  15  17
HETATM   17  O   UNK N   1      34.028  13.978   8.599  0.00  0.00    -0.775 OA
HETATM   18  H   UNK N   1      33.928  13.175   9.070  0.00  0.00     0.167 HD
ENDBRANCH  15  17
ENDBRANCH  10  15
ENDBRANCH   2   5
BRANCH   3  19
HETATM   19  C   UNK N   1      35.547  13.295  16.180  0.00  0.00     0.208 C 
BRANCH  19  20
HETATM   20  C   UNK N   1      35.703  12.074  17.073  0.00  0.00    -0.035 A 
HETATM   21  C   UNK N   1      35.238  12.153  18.395  0.00  0.00     0.008 A 
HETATM   22  C   UNK N   1      35.361  11.063  19.260  0.00  0.00     0.001 A 
HETATM   23  C   UNK N   1      35.954   9.880  18.813  0.00  0.00     0.000 A 
HETATM   24  C   UNK N   1      36.424   9.789  17.500  0.00  0.00     0.001 A 
HETATM   25  C   UNK N   1      36.302  10.880  16.636  0.00  0.00     0.008 A 
ENDBRANCH  19  20
BRANCH  19  26
HETATM   26  C   UNK N   1      36.712  14.268  16.082  0.00  0.00     0.157 C 
HETATM   27  O   UNK N   1      36.708  15.277  16.770  0.00  0.00    -0.649 OA
BRANCH  26  28
HETATM   28  O   UNK N   1      37.758  14.043  15.265  0.00  0.00    -0.775 OA
HETATM   29  H   UNK N   1      37.836  14.388  14.397  0.00  0.00     0.167 HD
ENDBRANCH  26  28
ENDBRANCH  19  26
ENDBRANCH   3  19
TORSDOF 7
ENDMDL
MODEL 9
REMARK VINA RESULT:      -6.4      2.728      7.634
REMARK  7 active torsions:
REMARK  status: ('A' for Active; 'I' for Inactive)
REMARK    1  A    between atoms: O_3  and  C_17 
REMARK    2  A    between atoms: O_6  and  C_21 
REMARK    3  A    between atoms: C_13  and  N_9 
REMARK       I    between atoms: N_9  and  C_18 
REMARK    4  A    between atoms: C_12  and  C_17 
REMARK    5  A    between atoms: C_18  and  C_19 
REMARK    6  A    between atoms: C_19  and  C_20 
REMARK    7  A    between atoms: C_19  and  C_21 
ROOT
HETATM    1  O   UNK N   1      35.509  12.880   8.711  0.00  0.00    -0.272 OA
HETATM    2  N   UNK N   1      34.460  13.635  10.535  0.00  0.00    -0.344 N 
HETATM    3  C   UNK N   1      34.528  13.426   9.200  0.00  0.00     0.237 C 
HETATM    4  H   UNK N   1      33.670  14.094  10.903  0.00  0.00     0.163 HD
ENDROOT
BRANCH   2   5
HETATM    5  C   UNK N   1      35.502  13.213  11.439  0.00  0.00     0.210 A 
HETATM    6  C   UNK N   1      34.917  12.123  12.485  0.00  0.00     0.183 A 
HETATM    7  S   UNK N   1      36.019  10.836  13.144  0.00  0.00    -0.129 SA
HETATM    8  N   UNK N   1      34.968  13.130  13.480  0.00  0.00    -0.318 N 
HETATM    9  C   UNK N   1      35.391  11.258  14.825  0.00  0.00     0.033 C 
HETATM   10  C   UNK N   1      35.227  12.804  14.873  0.00  0.00     0.204 C 
HETATM   11  C   UNK N   1      34.025  10.613  14.996  0.00  0.00     0.029 C 
HETATM   12  C   UNK N   1      36.306  10.661  15.884  0.00  0.00     0.029 C 
HETATM   13  C   UNK N   1      35.438  14.043  12.673  0.00  0.00     0.247 A 
HETATM   14  O   UNK N   1      35.911  15.134  12.938  0.00  0.00    -0.271 OA
BRANCH  10  15
HETATM   15  C   UNK N   1      36.393  13.517  15.557  0.00  0.00     0.165 C 
HETATM   16  O   UNK N   1      36.202  14.059  16.634  0.00  0.00    -0.648 OA
BRANCH  15  17
HETATM   17  O   UNK N   1      37.624  13.570  15.020  0.00  0.00    -0.775 OA
HETATM   18  H   UNK N   1      38.289  14.223  15.122  0.00  0.00     0.167 HD
ENDBRANCH  15  17
ENDBRANCH  10  15
ENDBRANCH   2   5
BRANCH   3  19
HETATM   19  C   UNK N   1      33.384  13.884   8.322  0.00  0.00     0.208 C 
BRANCH  19  20
HETATM   20  C   UNK N   1      33.300  15.400   8.242  0.00  0.00    -0.035 A 
HETATM   21  C   UNK N   1      34.484  16.121   8.017  0.00  0.00     0.008 A 
HETATM   22  C   UNK N   1      34.465  17.516   7.940  0.00  0.00     0.001 A 
HETATM   23  C   UNK N   1      33.261  18.207   8.091  0.00  0.00     0.000 A 
HETATM   24  C   UNK N   1      32.077  17.502   8.320  0.00  0.00     0.001 A 
HETATM   25  C   UNK N   1      32.097  16.107   8.397  0.00  0.00     0.008 A 
ENDBRANCH  19  20
BRANCH  19  26
HETATM   26  C   UNK N   1      33.384  13.095   7.021  0.00  0.00     0.157 C 
HETATM   27  O   UNK N   1      32.570  12.198   6.865  0.00  0.00    -0.649 OA
BRANCH  26  28
HETATM   28  O   UNK N   1      34.250  13.366   6.026  0.00  0.00    -0.775 OA
HETATM   29  H   UNK N   1      34.451  14.230   5.720  0.00  0.00     0.167 HD
ENDBRANCH  26  28
ENDBRANCH  19  26
ENDBRANCH   3  19
TORSDOF 7
ENDMDL
