REMARK  2 active torsions:
REMARK  status: ('A' for Active; 'I' for Inactive)
REMARK    1  A    between atoms: O_2  and  C_6 
REMARK    2  A    between atoms: C_6  and  C_11 
ROOT
HETATM    1  N   UNK N   1       3.925  -1.414  -0.656  0.00  0.00    -0.325 N 
HETATM    2  N   UNK N   1       2.699  -3.026   0.212  0.00  0.00    -0.374 N 
ATOM      3  HN  UNK N   1       1.928  -3.481   0.701  1.00  0.00     0.161 HD
HETATM    4  C   UNK N   1       4.001   0.021  -0.879  0.00  0.00     0.194 A 
HETATM    5  C   UNK N   1       2.701   0.455  -0.177  0.00  0.00     0.016 A 
HETATM    6  C   UNK N   1       2.818  -1.782   0.028  0.00  0.00     0.113 A 
HETATM    7  C   UNK N   1       4.706  -2.556  -1.026  0.00  0.00     0.148 A 
HETATM    8  C   UNK N   1       2.023  -0.643   0.342  0.00  0.00     0.019 A 
HETATM    9  C   UNK N   1       3.843  -3.708  -0.387  0.00  0.00     0.141 A 
HETATM   10  C   UNK N   1       2.154   1.734  -0.063  0.00  0.00     0.013 A 
HETATM   11  C   UNK N   1       0.796  -0.530   0.986  0.00  0.00     0.016 A 
HETATM   12  C   UNK N   1       0.915   1.879   0.590  0.00  0.00     0.001 A 
HETATM   13  C   UNK N   1       0.240   0.754   1.110  0.00  0.00     0.001 A 
ENDROOT
BRANCH   4  14
HETATM   14  O   UNK N   1       3.921   0.291  -2.247  0.00  0.00    -0.362 OA
HETATM   15  H   UNK N   1       4.055   0.434  -3.197  0.00  0.00     0.213 HD
ENDBRANCH   4  14
BRANCH   4  16
HETATM   16  C   UNK N   1       5.267   0.636  -0.312  0.00  0.00     0.002 A 
HETATM   17  C   UNK N   1       5.495   2.016  -0.445  0.00  0.00     0.014 A 
HETATM   18  C   UNK N   1       6.702   2.578  -0.014  0.00  0.00     0.024 A 
HETATM   19  C   UNK N   1       7.691   1.767   0.550  0.00  0.00     0.034 A 
HETATM   20 Cl   UNK N   1       9.220   2.461   1.045  0.00  0.00    -0.084 Cl
HETATM   21  C   UNK N   1       7.467   0.397   0.701  0.00  0.00     0.024 A 
HETATM   22  C   UNK N   1       6.263  -0.165   0.271  0.00  0.00     0.014 A 
ENDBRANCH   4  16
TORSDOF 2
