MODEL 1
REMARK VINA RESULT:      -7.1      0.000      0.000
REMARK  2 active torsions:
REMARK  status: ('A' for Active; 'I' for Inactive)
REMARK    1  A    between atoms: O_2  and  C_6 
REMARK    2  A    between atoms: C_6  and  C_11 
ROOT
HETATM    1  N   UNK N   1      34.318  15.922   7.306  0.00  0.00    -0.325 N 
HETATM    2  N   UNK N   1      35.322  14.002   6.904  0.00  0.00    -0.374 N 
ATOM      3  HN  UNK N   1      35.658  13.191   6.384  1.00  0.00     0.161 HD
HETATM    4  C   UNK N   1      33.572  17.013   6.699  0.00  0.00     0.194 A 
HETATM    5  C   UNK N   1      33.505  16.499   5.250  0.00  0.00     0.016 A 
HETATM    6  C   UNK N   1      34.643  14.952   6.421  0.00  0.00     0.113 A 
HETATM    7  C   UNK N   1      34.848  15.635   8.605  0.00  0.00     0.148 A 
HETATM    8  C   UNK N   1      34.157  15.277   5.123  0.00  0.00     0.019 A 
HETATM    9  C   UNK N   1      35.547  14.251   8.325  0.00  0.00     0.141 A 
HETATM   10  C   UNK N   1      32.942  17.112   4.129  0.00  0.00     0.013 A 
HETATM   11  C   UNK N   1      34.281  14.617   3.905  0.00  0.00     0.016 A 
HETATM   12  C   UNK N   1      33.047  16.463   2.884  0.00  0.00     0.001 A 
HETATM   13  C   UNK N   1      33.714  15.224   2.773  0.00  0.00     0.001 A 
ENDROOT
BRANCH   4  14
HETATM   14  O   UNK N   1      34.324  18.189   6.757  0.00  0.00    -0.362 OA
HETATM   15  H   UNK N   1      34.942  18.914   6.940  0.00  0.00     0.213 HD
ENDBRANCH   4  14
BRANCH   4  16
HETATM   16  C   UNK N   1      32.224  17.239   7.358  0.00  0.00     0.002 A 
HETATM   17  C   UNK N   1      31.079  16.607   6.845  0.00  0.00     0.014 A 
HETATM   18  C   UNK N   1      29.817  16.884   7.383  0.00  0.00     0.024 A 
HETATM   19  C   UNK N   1      29.688  17.796   8.434  0.00  0.00     0.034 A 
HETATM   20 Cl   UNK N   1      28.105  18.180   9.075  0.00  0.00    -0.084 Cl
HETATM   21  C   UNK N   1      30.822  18.417   8.962  0.00  0.00     0.024 A 
HETATM   22  C   UNK N   1      32.082  18.142   8.426  0.00  0.00     0.014 A 
ENDBRANCH   4  16
TORSDOF 2
ENDMDL
MODEL 2
REMARK VINA RESULT:      -6.8      3.839      6.130
REMARK  2 active torsions:
REMARK  status: ('A' for Active; 'I' for Inactive)
REMARK    1  A    between atoms: O_2  and  C_6 
REMARK    2  A    between atoms: C_6  and  C_11 
ROOT
HETATM    1  N   UNK N   1      30.111  16.864   5.264  0.00  0.00    -0.325 N 
HETATM    2  N   UNK N   1      32.188  17.224   5.906  0.00  0.00    -0.374 N 
ATOM      3  HN  UNK N   1      32.970  17.475   6.510  1.00  0.00     0.161 HD
HETATM    4  C   UNK N   1      28.724  16.869   5.701  0.00  0.00     0.194 A 
HETATM    5  C   UNK N   1      28.917  17.347   7.152  0.00  0.00     0.016 A 
HETATM    6  C   UNK N   1      30.969  17.248   6.236  0.00  0.00     0.113 A 
HETATM    7  C   UNK N   1      30.813  16.501   4.070  0.00  0.00     0.148 A 
HETATM    8  C   UNK N   1      30.263  17.554   7.434  0.00  0.00     0.019 A 
HETATM    9  C   UNK N   1      32.297  16.778   4.519  0.00  0.00     0.141 A 
HETATM   10  C   UNK N   1      27.956  17.529   8.147  0.00  0.00     0.013 A 
HETATM   11  C   UNK N   1      30.713  17.944   8.691  0.00  0.00     0.016 A 
HETATM   12  C   UNK N   1      28.383  17.931   9.428  0.00  0.00     0.001 A 
HETATM   13  C   UNK N   1      29.753  18.135   9.698  0.00  0.00     0.001 A 
ENDROOT
BRANCH   4  14
HETATM   14  O   UNK N   1      28.219  15.567   5.687  0.00  0.00    -0.362 OA
HETATM   15  H   UNK N   1      27.696  14.750   5.688  0.00  0.00     0.213 HD
ENDBRANCH   4  14
BRANCH   4  16
HETATM   16  C   UNK N   1      27.844  17.764   4.847  0.00  0.00     0.002 A 
HETATM   17  C   UNK N   1      28.141  19.133   4.733  0.00  0.00     0.014 A 
HETATM   18  C   UNK N   1      27.283  19.986   4.029  0.00  0.00     0.024 A 
HETATM   19  C   UNK N   1      26.122  19.480   3.438  0.00  0.00     0.034 A 
HETATM   20 Cl   UNK N   1      25.023  20.555   2.599  0.00  0.00    -0.084 Cl
HETATM   21  C   UNK N   1      25.827  18.119   3.533  0.00  0.00     0.024 A 
HETATM   22  C   UNK N   1      26.682  17.267   4.234  0.00  0.00     0.014 A 
ENDBRANCH   4  16
TORSDOF 2
ENDMDL
MODEL 3
REMARK VINA RESULT:      -6.8      2.517      4.698
REMARK  2 active torsions:
REMARK  status: ('A' for Active; 'I' for Inactive)
REMARK    1  A    between atoms: O_2  and  C_6 
REMARK    2  A    between atoms: C_6  and  C_11 
ROOT
HETATM    1  N   UNK N   1      33.544  16.373   6.471  0.00  0.00    -0.325 N 
HETATM    2  N   UNK N   1      32.364  15.535   4.810  0.00  0.00    -0.374 N 
ATOM      3  HN  UNK N   1      31.552  15.301   4.239  1.00  0.00     0.161 HD
HETATM    4  C   UNK N   1      33.468  17.152   7.697  0.00  0.00     0.194 A 
HETATM    5  C   UNK N   1      31.948  17.388   7.753  0.00  0.00     0.016 A 
HETATM    6  C   UNK N   1      32.336  16.179   5.896  0.00  0.00     0.113 A 
HETATM    7  C   UNK N   1      34.590  15.799   5.680  0.00  0.00     0.148 A 
HETATM    8  C   UNK N   1      31.311  16.802   6.664  0.00  0.00     0.019 A 
HETATM    9  C   UNK N   1      33.747  15.179   4.503  0.00  0.00     0.141 A 
HETATM   10  C   UNK N   1      31.210  18.116   8.687  0.00  0.00     0.013 A 
HETATM   11  C   UNK N   1      29.941  16.907   6.452  0.00  0.00     0.016 A 
HETATM   12  C   UNK N   1      29.819  18.234   8.501  0.00  0.00     0.001 A 
HETATM   13  C   UNK N   1      29.189  17.634   7.389  0.00  0.00     0.001 A 
ENDROOT
BRANCH   4  14
HETATM   14  O   UNK N   1      34.137  18.366   7.527  0.00  0.00    -0.362 OA
HETATM   15  H   UNK N   1      34.653  19.134   7.238  0.00  0.00     0.213 HD
ENDBRANCH   4  14
BRANCH   4  16
HETATM   16  C   UNK N   1      34.043  16.417   8.894  0.00  0.00     0.002 A 
HETATM   17  C   UNK N   1      33.573  15.134   9.220  0.00  0.00     0.014 A 
HETATM   18  C   UNK N   1      34.024  14.488  10.376  0.00  0.00     0.024 A 
HETATM   19  C   UNK N   1      34.945  15.119  11.218  0.00  0.00     0.034 A 
HETATM   20 Cl   UNK N   1      35.473  14.332  12.690  0.00  0.00    -0.084 Cl
HETATM   21  C   UNK N   1      35.430  16.388  10.894  0.00  0.00     0.024 A 
HETATM   22  C   UNK N   1      34.980  17.033   9.740  0.00  0.00     0.014 A 
ENDBRANCH   4  16
TORSDOF 2
ENDMDL
MODEL 4
REMARK VINA RESULT:      -6.7     13.473     15.409
REMARK  2 active torsions:
REMARK  status: ('A' for Active; 'I' for Inactive)
REMARK    1  A    between atoms: O_2  and  C_6 
REMARK    2  A    between atoms: C_6  and  C_11 
ROOT
HETATM    1  N   UNK N   1      26.941  23.875  -5.267  0.00  0.00    -0.325 N 
HETATM    2  N   UNK N   1      27.502  22.541  -6.928  0.00  0.00    -0.374 N 
ATOM      3  HN  UNK N   1      28.074  21.925  -7.507  1.00  0.00     0.161 HD
HETATM    4  C   UNK N   1      27.408  24.478  -4.029  0.00  0.00     0.194 A 
HETATM    5  C   UNK N   1      28.843  23.920  -4.001  0.00  0.00     0.016 A 
HETATM    6  C   UNK N   1      27.881  23.110  -5.866  0.00  0.00     0.113 A 
HETATM    7  C   UNK N   1      25.709  23.842  -5.995  0.00  0.00     0.148 A 
HETATM    8  C   UNK N   1      29.084  23.107  -5.104  0.00  0.00     0.019 A 
HETATM    9  C   UNK N   1      26.114  22.907  -7.196  0.00  0.00     0.141 A 
HETATM   10  C   UNK N   1      29.831  24.096  -3.031  0.00  0.00     0.013 A 
HETATM   11  C   UNK N   1      30.290  22.442  -5.294  0.00  0.00     0.016 A 
HETATM   12  C   UNK N   1      31.064  23.439  -3.201  0.00  0.00     0.001 A 
HETATM   13  C   UNK N   1      31.292  22.616  -4.325  0.00  0.00     0.001 A 
ENDROOT
BRANCH   4  14
HETATM   14  O   UNK N   1      26.676  23.973  -2.952  0.00  0.00    -0.362 OA
HETATM   15  H   UNK N   1      26.026  23.599  -2.337  0.00  0.00     0.213 HD
ENDBRANCH   4  14
BRANCH   4  16
HETATM   16  C   UNK N   1      27.313  25.993  -4.043  0.00  0.00     0.002 A 
HETATM   17  C   UNK N   1      26.300  26.637  -3.313  0.00  0.00     0.014 A 
HETATM   18  C   UNK N   1      26.143  28.025  -3.397  0.00  0.00     0.024 A 
HETATM   19  C   UNK N   1      26.993  28.780  -4.210  0.00  0.00     0.034 A 
HETATM   20 Cl   UNK N   1      26.767  30.510  -4.353  0.00  0.00    -0.084 Cl
HETATM   21  C   UNK N   1      28.013  28.150  -4.926  0.00  0.00     0.024 A 
HETATM   22  C   UNK N   1      28.171  26.765  -4.844  0.00  0.00     0.014 A 
ENDBRANCH   4  16
TORSDOF 2
ENDMDL
MODEL 5
REMARK VINA RESULT:      -6.5     13.758     15.942
REMARK  2 active torsions:
REMARK  status: ('A' for Active; 'I' for Inactive)
REMARK    1  A    between atoms: O_2  and  C_6 
REMARK    2  A    between atoms: C_6  and  C_11 
ROOT
HETATM    1  N   UNK N   1      27.075  26.052  -4.818  0.00  0.00    -0.325 N 
HETATM    2  N   UNK N   1      26.830  27.637  -6.329  0.00  0.00    -0.374 N 
ATOM      3  HN  UNK N   1      26.610  28.079  -7.221  1.00  0.00     0.161 HD
HETATM    4  C   UNK N   1      26.910  24.630  -4.562  0.00  0.00     0.194 A 
HETATM    5  C   UNK N   1      26.396  24.182  -5.943  0.00  0.00     0.016 A 
HETATM    6  C   UNK N   1      26.732  26.402  -6.078  0.00  0.00     0.113 A 
HETATM    7  C   UNK N   1      27.462  27.197  -4.051  0.00  0.00     0.148 A 
HETATM    8  C   UNK N   1      26.297  25.263  -6.813  0.00  0.00     0.019 A 
HETATM    9  C   UNK N   1      27.309  28.329  -5.135  0.00  0.00     0.141 A 
HETATM   10  C   UNK N   1      26.004  22.909  -6.360  0.00  0.00     0.013 A 
HETATM   11  C   UNK N   1      25.815  25.138  -8.111  0.00  0.00     0.016 A 
HETATM   12  C   UNK N   1      25.517  22.752  -7.672  0.00  0.00     0.001 A 
HETATM   13  C   UNK N   1      25.422  23.860  -8.541  0.00  0.00     0.001 A 
ENDROOT
BRANCH   4  14
HETATM   14  O   UNK N   1      25.920  24.435  -3.596  0.00  0.00    -0.362 OA
HETATM   15  H   UNK N   1      25.356  24.396  -2.808  0.00  0.00     0.213 HD
ENDBRANCH   4  14
BRANCH   4  16
HETATM   16  C   UNK N   1      28.196  23.961  -4.114  0.00  0.00     0.002 A 
HETATM   17  C   UNK N   1      29.178  23.626  -5.062  0.00  0.00     0.014 A 
HETATM   18  C   UNK N   1      30.324  22.922  -4.674  0.00  0.00     0.024 A 
HETATM   19  C   UNK N   1      30.497  22.546  -3.339  0.00  0.00     0.034 A 
HETATM   20 Cl   UNK N   1      31.906  21.623  -2.863  0.00  0.00    -0.084 Cl
HETATM   21  C   UNK N   1      29.535  22.889  -2.387  0.00  0.00     0.024 A 
HETATM   22  C   UNK N   1      28.391  23.591  -2.773  0.00  0.00     0.014 A 
ENDBRANCH   4  16
TORSDOF 2
ENDMDL
MODEL 6
REMARK VINA RESULT:      -6.4      5.203      6.767
REMARK  2 active torsions:
REMARK  status: ('A' for Active; 'I' for Inactive)
REMARK    1  A    between atoms: O_2  and  C_6 
REMARK    2  A    between atoms: C_6  and  C_11 
ROOT
HETATM    1  N   UNK N   1      28.031  18.682   6.177  0.00  0.00    -0.325 N 
HETATM    2  N   UNK N   1      28.662  17.462   7.900  0.00  0.00    -0.374 N 
ATOM      3  HN  UNK N   1      29.025  16.666   8.424  1.00  0.00     0.161 HD
HETATM    4  C   UNK N   1      27.929  18.711   4.726  0.00  0.00     0.194 A 
HETATM    5  C   UNK N   1      28.465  17.304   4.406  0.00  0.00     0.016 A 
HETATM    6  C   UNK N   1      28.527  17.514   6.645  0.00  0.00     0.113 A 
HETATM    7  C   UNK N   1      27.787  19.604   7.245  0.00  0.00     0.148 A 
HETATM    8  C   UNK N   1      28.816  16.627   5.570  0.00  0.00     0.019 A 
HETATM    9  C   UNK N   1      28.216  18.726   8.480  0.00  0.00     0.141 A 
HETATM   10  C   UNK N   1      28.665  16.706   3.161  0.00  0.00     0.013 A 
HETATM   11  C   UNK N   1      29.371  15.352   5.556  0.00  0.00     0.016 A 
HETATM   12  C   UNK N   1      29.219  15.413   3.117  0.00  0.00     0.001 A 
HETATM   13  C   UNK N   1      29.571  14.740   4.307  0.00  0.00     0.001 A 
ENDROOT
BRANCH   4  14
HETATM   14  O   UNK N   1      28.791  19.682   4.212  0.00  0.00    -0.362 OA
HETATM   15  H   UNK N   1      29.527  20.220   3.881  0.00  0.00     0.213 HD
ENDBRANCH   4  14
BRANCH   4  16
HETATM   16  C   UNK N   1      26.515  18.979   4.244  0.00  0.00     0.002 A 
HETATM   17  C   UNK N   1      26.248  20.109   3.452  0.00  0.00     0.014 A 
HETATM   18  C   UNK N   1      24.935  20.420   3.084  0.00  0.00     0.024 A 
HETATM   19  C   UNK N   1      23.878  19.608   3.504  0.00  0.00     0.034 A 
HETATM   20 Cl   UNK N   1      22.230  20.022   3.085  0.00  0.00    -0.084 Cl
HETATM   21  C   UNK N   1      24.135  18.474   4.278  0.00  0.00     0.024 A 
HETATM   22  C   UNK N   1      25.445  18.163   4.646  0.00  0.00     0.014 A 
ENDBRANCH   4  16
TORSDOF 2
ENDMDL
MODEL 7
REMARK VINA RESULT:      -6.3      4.790      7.255
REMARK  2 active torsions:
REMARK  status: ('A' for Active; 'I' for Inactive)
REMARK    1  A    between atoms: O_2  and  C_6 
REMARK    2  A    between atoms: C_6  and  C_11 
ROOT
HETATM    1  N   UNK N   1      27.850  18.828   5.185  0.00  0.00    -0.325 N 
HETATM    2  N   UNK N   1      26.707  20.051   6.619  0.00  0.00    -0.374 N 
ATOM      3  HN  UNK N   1      26.405  20.443   7.511  1.00  0.00     0.161 HD
HETATM    4  C   UNK N   1      28.936  17.870   5.054  0.00  0.00     0.194 A 
HETATM    5  C   UNK N   1      29.322  17.721   6.537  0.00  0.00     0.016 A 
HETATM    6  C   UNK N   1      27.622  19.193   6.467  0.00  0.00     0.113 A 
HETATM    7  C   UNK N   1      26.985  19.533   4.287  0.00  0.00     0.148 A 
HETATM    8  C   UNK N   1      28.525  18.527   7.344  0.00  0.00     0.019 A 
HETATM    9  C   UNK N   1      26.151  20.391   5.312  0.00  0.00     0.141 A 
HETATM   10  C   UNK N   1      30.344  16.957   7.102  0.00  0.00     0.013 A 
HETATM   11  C   UNK N   1      28.698  18.612   8.721  0.00  0.00     0.016 A 
HETATM   12  C   UNK N   1      30.538  17.019   8.495  0.00  0.00     0.001 A 
HETATM   13  C   UNK N   1      29.721  17.843   9.299  0.00  0.00     0.001 A 
ENDROOT
BRANCH   4  14
HETATM   14  O   UNK N   1      29.989  18.445   4.340  0.00  0.00    -0.362 OA
HETATM   15  H   UNK N   1      30.739  18.959   4.000  0.00  0.00     0.213 HD
ENDBRANCH   4  14
BRANCH   4  16
HETATM   16  C   UNK N   1      28.504  16.584   4.376  0.00  0.00     0.002 A 
HETATM   17  C   UNK N   1      28.935  16.302   3.068  0.00  0.00     0.014 A 
HETATM   18  C   UNK N   1      28.464  15.168   2.397  0.00  0.00     0.024 A 
HETATM   19  C   UNK N   1      27.558  14.308   3.024  0.00  0.00     0.034 A 
HETATM   20 Cl   UNK N   1      26.931  12.916   2.168  0.00  0.00    -0.084 Cl
HETATM   21  C   UNK N   1      27.136  14.571   4.329  0.00  0.00     0.024 A 
HETATM   22  C   UNK N   1      27.605  15.702   5.000  0.00  0.00     0.014 A 
ENDBRANCH   4  16
TORSDOF 2
ENDMDL
MODEL 8
REMARK VINA RESULT:      -6.3      5.748      7.961
REMARK  2 active torsions:
REMARK  status: ('A' for Active; 'I' for Inactive)
REMARK    1  A    between atoms: O_2  and  C_6 
REMARK    2  A    between atoms: C_6  and  C_11 
ROOT
HETATM    1  N   UNK N   1      35.657  12.196  11.580  0.00  0.00    -0.325 N 
HETATM    2  N   UNK N   1      34.359  11.623   9.895  0.00  0.00    -0.374 N 
ATOM      3  HN  UNK N   1      33.747  11.722   9.084  1.00  0.00     0.161 HD
HETATM    4  C   UNK N   1      36.260  13.322  12.275  0.00  0.00     0.194 A 
HETATM    5  C   UNK N   1      35.671  14.477  11.444  0.00  0.00     0.016 A 
HETATM    6  C   UNK N   1      34.874  12.576  10.545  0.00  0.00     0.113 A 
HETATM    7  C   UNK N   1      35.724  10.769  11.680  0.00  0.00     0.148 A 
HETATM    8  C   UNK N   1      34.860  13.994  10.423  0.00  0.00     0.019 A 
HETATM    9  C   UNK N   1      34.778  10.357  10.490  0.00  0.00     0.141 A 
HETATM   10  C   UNK N   1      35.893  15.849  11.573  0.00  0.00     0.013 A 
HETATM   11  C   UNK N   1      34.241  14.829   9.499  0.00  0.00     0.016 A 
HETATM   12  C   UNK N   1      35.274  16.719  10.655  0.00  0.00     0.001 A 
HETATM   13  C   UNK N   1      34.455  16.212   9.624  0.00  0.00     0.001 A 
ENDROOT
BRANCH   4  14
HETATM   14  O   UNK N   1      37.648  13.282  12.124  0.00  0.00    -0.362 OA
HETATM   15  H   UNK N   1      38.601  13.447  12.045  0.00  0.00     0.213 HD
ENDBRANCH   4  14
BRANCH   4  16
HETATM   16  C   UNK N   1      35.910  13.356  13.751  0.00  0.00     0.002 A 
HETATM   17  C   UNK N   1      36.731  14.057  14.650  0.00  0.00     0.014 A 
HETATM   18  C   UNK N   1      36.474  14.014  16.025  0.00  0.00     0.024 A 
HETATM   19  C   UNK N   1      35.397  13.269  16.513  0.00  0.00     0.034 A 
HETATM   20 Cl   UNK N   1      35.103  13.174  18.236  0.00  0.00    -0.084 Cl
HETATM   21  C   UNK N   1      34.565  12.581  15.626  0.00  0.00     0.024 A 
HETATM   22  C   UNK N   1      34.822  12.624  14.254  0.00  0.00     0.014 A 
ENDBRANCH   4  16
TORSDOF 2
ENDMDL
MODEL 9
REMARK VINA RESULT:      -6.1      4.309      6.368
REMARK  2 active torsions:
REMARK  status: ('A' for Active; 'I' for Inactive)
REMARK    1  A    between atoms: O_2  and  C_6 
REMARK    2  A    between atoms: C_6  and  C_11 
ROOT
HETATM    1  N   UNK N   1      37.326  14.059   9.835  0.00  0.00    -0.325 N 
HETATM    2  N   UNK N   1      37.708  13.182   7.850  0.00  0.00    -0.374 N 
ATOM      3  HN  UNK N   1      37.557  12.927   6.874  1.00  0.00     0.161 HD
HETATM    4  C   UNK N   1      36.386  14.848  10.615  0.00  0.00     0.194 A 
HETATM    5  C   UNK N   1      35.289  15.055   9.555  0.00  0.00     0.016 A 
HETATM    6  C   UNK N   1      36.902  13.836   8.570  0.00  0.00     0.113 A 
HETATM    7  C   UNK N   1      38.626  13.497  10.050  0.00  0.00     0.148 A 
HETATM    8  C   UNK N   1      35.634  14.446   8.353  0.00  0.00     0.019 A 
HETATM    9  C   UNK N   1      38.891  12.850   8.639  0.00  0.00     0.141 A 
HETATM   10  C   UNK N   1      34.100  15.778   9.657  0.00  0.00     0.013 A 
HETATM   11  C   UNK N   1      34.835  14.523   7.218  0.00  0.00     0.016 A 
HETATM   12  C   UNK N   1      33.268  15.867   8.525  0.00  0.00     0.001 A 
HETATM   13  C   UNK N   1      33.634  15.244   7.313  0.00  0.00     0.001 A 
ENDROOT
BRANCH   4  14
HETATM   14  O   UNK N   1      36.965  16.074  10.953  0.00  0.00    -0.362 OA
HETATM   15  H   UNK N   1      37.447  16.824  11.334  0.00  0.00     0.213 HD
ENDBRANCH   4  14
BRANCH   4  16
HETATM   16  C   UNK N   1      35.929  14.137  11.875  0.00  0.00     0.002 A 
HETATM   17  C   UNK N   1      36.308  14.630  13.135  0.00  0.00     0.014 A 
HETATM   18  C   UNK N   1      35.975  13.928  14.299  0.00  0.00     0.024 A 
HETATM   19  C   UNK N   1      35.264  12.728  14.214  0.00  0.00     0.034 A 
HETATM   20 Cl   UNK N   1      34.889  11.825  15.666  0.00  0.00    -0.084 Cl
HETATM   21  C   UNK N   1      34.868  12.238  12.968  0.00  0.00     0.024 A 
HETATM   22  C   UNK N   1      35.200  12.937  11.806  0.00  0.00     0.014 A 
ENDBRANCH   4  16
TORSDOF 2
ENDMDL
