MODEL 1
REMARK VINA RESULT:      -6.1      0.000      0.000
REMARK  13 active torsions:
REMARK  status: ('A' for Active; 'I' for Inactive)
REMARK    1  A    between atoms: C_12  and  O_1 
REMARK    2  A    between atoms: C_16  and  O_1 
REMARK    3  A    between atoms: C_13  and  O_4 
REMARK    4  A    between atoms: C_15  and  O_5 
REMARK    5  A    between atoms: C_17  and  O_6 
REMARK    6  A    between atoms: C_18  and  O_7 
REMARK    7  A    between atoms: C_19  and  O_8 
REMARK    8  A    between atoms: O_9  and  C_21 
REMARK    9  A    between atoms: O_10  and  C_22 
REMARK   10  A    between atoms: O_11  and  C_23 
REMARK   11  A    between atoms: C_14  and  C_21 
REMARK   12  A    between atoms: C_15  and  C_22 
REMARK   13  A    between atoms: C_20  and  C_23 
ROOT
HETATM    1  O   UNK N   1      19.968  17.225   4.288  0.00  0.00    -0.348 OA
ENDROOT
BRANCH   1   2
HETATM    2  C   UNK N   1      20.321  15.873   4.124  0.00  0.00     0.190 C 
HETATM    3  C   UNK N   1      21.217  15.413   5.229  0.00  0.00     0.214 C 
HETATM    4  C   UNK N   1      20.240  15.178   6.360  0.00  0.00     0.213 C 
HETATM    5  O   UNK N   1      19.066  14.660   5.771  0.00  0.00    -0.341 OA
HETATM    6  C   UNK N   1      19.108  14.997   4.390  0.00  0.00     0.180 C 
BRANCH   3   7
HETATM    7  O   UNK N   1      22.224  16.330   5.549  0.00  0.00    -0.387 OA
HETATM    8  H   UNK N   1      22.328  17.146   5.033  0.00  0.00     0.210 HD
ENDBRANCH   3   7
BRANCH   4   9
HETATM    9  O   UNK N   1      19.933  16.378   7.016  0.00  0.00    -0.362 OA
HETATM   10  H   UNK N   1      19.218  17.007   7.200  0.00  0.00     0.213 HD
ENDBRANCH   4   9
BRANCH   4  11
HETATM   11  C   UNK N   1      20.841  14.187   7.346  0.00  0.00     0.235 C 
BRANCH  11  12
HETATM   12  O   UNK N   1      20.057  14.100   8.498  0.00  0.00    -0.395 OA
HETATM   13  H   UNK N   1      20.171  13.566   9.300  0.00  0.00     0.209 HD
ENDBRANCH  11  12
ENDBRANCH   4  11
BRANCH   6  14
HETATM   14  C   UNK N   1      19.192  13.730   3.554  0.00  0.00     0.198 C 
BRANCH  14  15
HETATM   15  O   UNK N   1      18.698  13.975   2.274  0.00  0.00    -0.398 OA
HETATM   16  H   UNK N   1      17.832  14.366   2.075  0.00  0.00     0.209 HD
ENDBRANCH  14  15
ENDBRANCH   6  14
ENDBRANCH   1   2
BRANCH   1  17
HETATM   17  C   UNK N   1      20.433  17.937   3.161  0.00  0.00     0.292 C 
HETATM   18  O   UNK N   1      21.853  18.050   3.116  0.00  0.00    -0.348 OA
HETATM   19  C   UNK N   1      22.227  19.370   3.444  0.00  0.00     0.179 C 
HETATM   20  C   UNK N   1      21.820  20.354   2.328  0.00  0.00     0.180 C 
HETATM   21  C   UNK N   1      20.412  20.036   1.795  0.00  0.00     0.183 C 
HETATM   22  C   UNK N   1      19.635  19.226   2.837  0.00  0.00     0.204 C 
BRANCH  19  23
HETATM   23  C   UNK N   1      23.705  19.457   3.794  0.00  0.00     0.198 C 
BRANCH  23  24
HETATM   24  O   UNK N   1      24.032  18.517   4.773  0.00  0.00    -0.398 OA
HETATM   25  H   UNK N   1      24.066  18.382   5.732  0.00  0.00     0.209 HD
ENDBRANCH  23  24
ENDBRANCH  19  23
BRANCH  20  26
HETATM   26  O   UNK N   1      21.856  21.656   2.828  0.00  0.00    -0.390 OA
HETATM   27  H   UNK N   1      21.911  22.624   2.844  0.00  0.00     0.210 HD
ENDBRANCH  20  26
BRANCH  21  28
HETATM   28  O   UNK N   1      20.522  19.303   0.610  0.00  0.00    -0.390 OA
HETATM   29  H   UNK N   1      20.888  18.562   0.103  0.00  0.00     0.210 HD
ENDBRANCH  21  28
BRANCH  22  30
HETATM   30  O   UNK N   1      18.353  18.912   2.383  0.00  0.00    -0.388 OA
HETATM   31  H   UNK N   1      18.214  18.645   1.461  0.00  0.00     0.210 HD
ENDBRANCH  22  30
ENDBRANCH   1  17
TORSDOF 13
ENDMDL
MODEL 2
REMARK VINA RESULT:      -6.1     14.912     18.078
REMARK  13 active torsions:
REMARK  status: ('A' for Active; 'I' for Inactive)
REMARK    1  A    between atoms: C_12  and  O_1 
REMARK    2  A    between atoms: C_16  and  O_1 
REMARK    3  A    between atoms: C_13  and  O_4 
REMARK    4  A    between atoms: C_15  and  O_5 
REMARK    5  A    between atoms: C_17  and  O_6 
REMARK    6  A    between atoms: C_18  and  O_7 
REMARK    7  A    between atoms: C_19  and  O_8 
REMARK    8  A    between atoms: O_9  and  C_21 
REMARK    9  A    between atoms: O_10  and  C_22 
REMARK   10  A    between atoms: O_11  and  C_23 
REMARK   11  A    between atoms: C_14  and  C_21 
REMARK   12  A    between atoms: C_15  and  C_22 
REMARK   13  A    between atoms: C_20  and  C_23 
ROOT
HETATM    1  O   UNK N   1      34.896  14.397  12.452  0.00  0.00    -0.348 OA
ENDROOT
BRANCH   1   2
HETATM    2  C   UNK N   1      34.933  14.018  11.098  0.00  0.00     0.190 C 
HETATM    3  C   UNK N   1      34.055  14.899  10.268  0.00  0.00     0.214 C 
HETATM    4  C   UNK N   1      34.906  16.138  10.102  0.00  0.00     0.213 C 
HETATM    5  O   UNK N   1      36.241  15.691   9.981  0.00  0.00    -0.341 OA
HETATM    6  C   UNK N   1      36.289  14.372  10.510  0.00  0.00     0.180 C 
BRANCH   3   7
HETATM    7  O   UNK N   1      32.811  15.155  10.853  0.00  0.00    -0.387 OA
HETATM    8  H   UNK N   1      32.070  14.544  10.721  0.00  0.00     0.210 HD
ENDBRANCH   3   7
BRANCH   4   9
HETATM    9  O   UNK N   1      34.802  16.973  11.221  0.00  0.00    -0.362 OA
HETATM   10  H   UNK N   1      34.465  17.024  12.130  0.00  0.00     0.213 HD
ENDBRANCH   4   9
BRANCH   4  11
HETATM   11  C   UNK N   1      34.464  16.887   8.852  0.00  0.00     0.235 C 
BRANCH  11  12
HETATM   12  O   UNK N   1      33.173  17.393   9.011  0.00  0.00    -0.395 OA
HETATM   13  H   UNK N   1      32.812  18.273   8.823  0.00  0.00     0.209 HD
ENDBRANCH  11  12
ENDBRANCH   4  11
BRANCH   6  14
HETATM   14  C   UNK N   1      36.648  13.389   9.407  0.00  0.00     0.198 C 
BRANCH  14  15
HETATM   15  O   UNK N   1      37.019  14.084   8.257  0.00  0.00    -0.398 OA
HETATM   16  H   UNK N   1      37.933  14.255   7.978  0.00  0.00     0.209 HD
ENDBRANCH  14  15
ENDBRANCH   6  14
ENDBRANCH   1   2
BRANCH   1  17
HETATM   17  C   UNK N   1      35.692  13.487  13.182  0.00  0.00     0.292 C 
HETATM   18  O   UNK N   1      35.173  12.160  13.176  0.00  0.00    -0.348 OA
HETATM   19  C   UNK N   1      34.618  11.870  14.440  0.00  0.00     0.179 C 
HETATM   20  C   UNK N   1      35.718  11.748  15.513  0.00  0.00     0.180 C 
HETATM   21  C   UNK N   1      36.779  12.849  15.346  0.00  0.00     0.183 C 
HETATM   22  C   UNK N   1      36.191  14.018  14.550  0.00  0.00     0.204 C 
BRANCH  19  23
HETATM   23  C   UNK N   1      33.715  10.645  14.381  0.00  0.00     0.198 C 
BRANCH  23  24
HETATM   24  O   UNK N   1      33.299  10.406  13.071  0.00  0.00    -0.398 OA
HETATM   25  H   UNK N   1      32.545  10.509  12.469  0.00  0.00     0.209 HD
ENDBRANCH  23  24
ENDBRANCH  19  23
BRANCH  20  26
HETATM   26  O   UNK N   1      35.136  11.837  16.779  0.00  0.00    -0.390 OA
HETATM   27  H   UNK N   1      34.487  11.734  17.492  0.00  0.00     0.210 HD
ENDBRANCH  20  26
BRANCH  21  28
HETATM   28  O   UNK N   1      37.885  12.325  14.672  0.00  0.00    -0.390 OA
HETATM   29  H   UNK N   1      38.843  12.219  14.569  0.00  0.00     0.210 HD
ENDBRANCH  21  28
BRANCH  22  30
HETATM   30  O   UNK N   1      37.131  15.035  14.371  0.00  0.00    -0.388 OA
HETATM   31  H   UNK N   1      37.990  14.838  13.966  0.00  0.00     0.210 HD
ENDBRANCH  22  30
ENDBRANCH   1  17
TORSDOF 13
ENDMDL
MODEL 3
REMARK VINA RESULT:      -5.9      8.988     12.119
REMARK  13 active torsions:
REMARK  status: ('A' for Active; 'I' for Inactive)
REMARK    1  A    between atoms: C_12  and  O_1 
REMARK    2  A    between atoms: C_16  and  O_1 
REMARK    3  A    between atoms: C_13  and  O_4 
REMARK    4  A    between atoms: C_15  and  O_5 
REMARK    5  A    between atoms: C_17  and  O_6 
REMARK    6  A    between atoms: C_18  and  O_7 
REMARK    7  A    between atoms: C_19  and  O_8 
REMARK    8  A    between atoms: O_9  and  C_21 
REMARK    9  A    between atoms: O_10  and  C_22 
REMARK   10  A    between atoms: O_11  and  C_23 
REMARK   11  A    between atoms: C_14  and  C_21 
REMARK   12  A    between atoms: C_15  and  C_22 
REMARK   13  A    between atoms: C_20  and  C_23 
ROOT
HETATM    1  O   UNK N   1      31.718  17.422   7.921  0.00  0.00    -0.348 OA
ENDROOT
BRANCH   1   2
HETATM    2  C   UNK N   1      32.191  16.106   8.072  0.00  0.00     0.190 C 
HETATM    3  C   UNK N   1      32.868  15.632   6.825  0.00  0.00     0.214 C 
HETATM    4  C   UNK N   1      34.224  16.293   6.924  0.00  0.00     0.213 C 
HETATM    5  O   UNK N   1      34.573  16.284   8.293  0.00  0.00    -0.341 OA
HETATM    6  C   UNK N   1      33.371  16.098   9.029  0.00  0.00     0.180 C 
BRANCH   3   7
HETATM    7  O   UNK N   1      32.175  15.961   5.656  0.00  0.00    -0.387 OA
HETATM    8  H   UNK N   1      32.346  16.802   5.203  0.00  0.00     0.210 HD
ENDBRANCH   3   7
BRANCH   4   9
HETATM    9  O   UNK N   1      34.172  17.618   6.473  0.00  0.00    -0.362 OA
HETATM   10  H   UNK N   1      34.205  18.544   6.761  0.00  0.00     0.213 HD
ENDBRANCH   4   9
BRANCH   4  11
HETATM   11  C   UNK N   1      35.230  15.503   6.097  0.00  0.00     0.235 C 
BRANCH  11  12
HETATM   12  O   UNK N   1      34.672  15.122   4.876  0.00  0.00    -0.395 OA
HETATM   13  H   UNK N   1      34.802  15.480   3.984  0.00  0.00     0.209 HD
ENDBRANCH  11  12
ENDBRANCH   4  11
BRANCH   6  14
HETATM   14  C   UNK N   1      33.424  14.774   9.774  0.00  0.00     0.198 C 
BRANCH  14  15
HETATM   15  O   UNK N   1      33.293  14.998  11.144  0.00  0.00    -0.398 OA
HETATM   16  H   UNK N   1      34.031  15.103  11.766  0.00  0.00     0.209 HD
ENDBRANCH  14  15
ENDBRANCH   6  14
ENDBRANCH   1   2
BRANCH   1  17
HETATM   17  C   UNK N   1      30.312  17.398   8.055  0.00  0.00     0.292 C 
HETATM   18  O   UNK N   1      29.646  16.928   6.886  0.00  0.00    -0.348 OA
HETATM   19  C   UNK N   1      29.035  18.015   6.227  0.00  0.00     0.179 C 
HETATM   20  C   UNK N   1      27.845  18.558   7.042  0.00  0.00     0.180 C 
HETATM   21  C   UNK N   1      28.185  18.629   8.541  0.00  0.00     0.183 C 
HETATM   22  C   UNK N   1      29.705  18.658   8.726  0.00  0.00     0.204 C 
BRANCH  19  23
HETATM   23  C   UNK N   1      28.654  17.653   4.798  0.00  0.00     0.198 C 
BRANCH  23  24
HETATM   24  O   UNK N   1      28.481  18.806   4.031  0.00  0.00    -0.398 OA
HETATM   25  H   UNK N   1      28.884  19.327   3.319  0.00  0.00     0.209 HD
ENDBRANCH  23  24
ENDBRANCH  19  23
BRANCH  20  26
HETATM   26  O   UNK N   1      27.508  19.829   6.572  0.00  0.00    -0.390 OA
HETATM   27  H   UNK N   1      26.965  20.592   6.321  0.00  0.00     0.210 HD
ENDBRANCH  20  26
BRANCH  21  28
HETATM   28  O   UNK N   1      27.651  17.511   9.188  0.00  0.00    -0.390 OA
HETATM   29  H   UNK N   1      27.048  17.114   9.835  0.00  0.00     0.210 HD
ENDBRANCH  21  28
BRANCH  22  30
HETATM   30  O   UNK N   1      30.052  18.713  10.076  0.00  0.00    -0.388 OA
HETATM   31  H   UNK N   1      30.984  18.680  10.342  0.00  0.00     0.210 HD
ENDBRANCH  22  30
ENDBRANCH   1  17
TORSDOF 13
ENDMDL
MODEL 4
REMARK VINA RESULT:      -5.9     10.511     13.151
REMARK  13 active torsions:
REMARK  status: ('A' for Active; 'I' for Inactive)
REMARK    1  A    between atoms: C_12  and  O_1 
REMARK    2  A    between atoms: C_16  and  O_1 
REMARK    3  A    between atoms: C_13  and  O_4 
REMARK    4  A    between atoms: C_15  and  O_5 
REMARK    5  A    between atoms: C_17  and  O_6 
REMARK    6  A    between atoms: C_18  and  O_7 
REMARK    7  A    between atoms: C_19  and  O_8 
REMARK    8  A    between atoms: O_9  and  C_21 
REMARK    9  A    between atoms: O_10  and  C_22 
REMARK   10  A    between atoms: O_11  and  C_23 
REMARK   11  A    between atoms: C_14  and  C_21 
REMARK   12  A    between atoms: C_15  and  C_22 
REMARK   13  A    between atoms: C_20  and  C_23 
ROOT
HETATM    1  O   UNK N   1      32.415  15.770   8.811  0.00  0.00    -0.348 OA
ENDROOT
BRANCH   1   2
HETATM    2  C   UNK N   1      33.757  15.643   8.407  0.00  0.00     0.190 C 
HETATM    3  C   UNK N   1      34.687  16.139   9.467  0.00  0.00     0.214 C 
HETATM    4  C   UNK N   1      34.711  14.983  10.442  0.00  0.00     0.213 C 
HETATM    5  O   UNK N   1      34.650  13.805   9.664  0.00  0.00    -0.341 OA
HETATM    6  C   UNK N   1      34.142  14.173   8.389  0.00  0.00     0.180 C 
BRANCH   3   7
HETATM    7  O   UNK N   1      34.278  17.345  10.047  0.00  0.00    -0.387 OA
HETATM    8  H   UNK N   1      34.765  18.165   9.871  0.00  0.00     0.210 HD
ENDBRANCH   3   7
BRANCH   4   9
HETATM    9  O   UNK N   1      33.604  15.025  11.298  0.00  0.00    -0.362 OA
HETATM   10  H   UNK N   1      33.334  14.986  12.229  0.00  0.00     0.213 HD
ENDBRANCH   4   9
BRANCH   4  11
HETATM   11  C   UNK N   1      35.998  15.037  11.254  0.00  0.00     0.235 C 
BRANCH  11  12
HETATM   12  O   UNK N   1      36.814  16.082  10.816  0.00  0.00    -0.395 OA
HETATM   13  H   UNK N   1      37.271  16.214   9.972  0.00  0.00     0.209 HD
ENDBRANCH  11  12
ENDBRANCH   4  11
BRANCH   6  14
HETATM   14  C   UNK N   1      35.200  13.929   7.324  0.00  0.00     0.198 C 
BRANCH  14  15
HETATM   15  O   UNK N   1      34.826  14.554   6.135  0.00  0.00    -0.398 OA
HETATM   16  H   UNK N   1      33.940  14.900   5.941  0.00  0.00     0.209 HD
ENDBRANCH  14  15
ENDBRANCH   6  14
ENDBRANCH   1   2
BRANCH   1  17
HETATM   17  C   UNK N   1      31.736  16.528   7.832  0.00  0.00     0.292 C 
HETATM   18  O   UNK N   1      31.066  17.666   8.369  0.00  0.00    -0.348 OA
HETATM   19  C   UNK N   1      29.676  17.425   8.387  0.00  0.00     0.179 C 
HETATM   20  C   UNK N   1      29.101  17.396   6.957  0.00  0.00     0.180 C 
HETATM   21  C   UNK N   1      30.028  16.625   6.001  0.00  0.00     0.183 C 
HETATM   22  C   UNK N   1      30.934  15.687   6.804  0.00  0.00     0.204 C 
BRANCH  19  23
HETATM   23  C   UNK N   1      28.954  18.412   9.292  0.00  0.00     0.198 C 
BRANCH  23  24
HETATM   24  O   UNK N   1      27.605  18.075   9.407  0.00  0.00    -0.398 OA
HETATM   25  H   UNK N   1      26.822  17.836   8.887  0.00  0.00     0.209 HD
ENDBRANCH  23  24
ENDBRANCH  19  23
BRANCH  20  26
HETATM   26  O   UNK N   1      27.840  16.798   6.981  0.00  0.00    -0.390 OA
HETATM   27  H   UNK N   1      27.040  16.349   6.668  0.00  0.00     0.210 HD
ENDBRANCH  20  26
BRANCH  21  28
HETATM   28  O   UNK N   1      30.808  17.535   5.281  0.00  0.00    -0.390 OA
HETATM   29  H   UNK N   1      31.281  17.794   4.476  0.00  0.00     0.210 HD
ENDBRANCH  21  28
BRANCH  22  30
HETATM   30  O   UNK N   1      31.797  14.976   5.969  0.00  0.00    -0.388 OA
HETATM   31  H   UNK N   1      32.208  14.154   6.280  0.00  0.00     0.210 HD
ENDBRANCH  22  30
ENDBRANCH   1  17
TORSDOF 13
ENDMDL
MODEL 5
REMARK VINA RESULT:      -5.9     12.757     15.356
REMARK  13 active torsions:
REMARK  status: ('A' for Active; 'I' for Inactive)
REMARK    1  A    between atoms: C_12  and  O_1 
REMARK    2  A    between atoms: C_16  and  O_1 
REMARK    3  A    between atoms: C_13  and  O_4 
REMARK    4  A    between atoms: C_15  and  O_5 
REMARK    5  A    between atoms: C_17  and  O_6 
REMARK    6  A    between atoms: C_18  and  O_7 
REMARK    7  A    between atoms: C_19  and  O_8 
REMARK    8  A    between atoms: O_9  and  C_21 
REMARK    9  A    between atoms: O_10  and  C_22 
REMARK   10  A    between atoms: O_11  and  C_23 
REMARK   11  A    between atoms: C_14  and  C_21 
REMARK   12  A    between atoms: C_15  and  C_22 
REMARK   13  A    between atoms: C_20  and  C_23 
ROOT
HETATM    1  O   UNK N   1      34.540  14.940   9.130  0.00  0.00    -0.348 OA
ENDROOT
BRANCH   1   2
HETATM    2  C   UNK N   1      35.846  15.152   9.608  0.00  0.00     0.190 C 
HETATM    3  C   UNK N   1      35.828  15.702  10.998  0.00  0.00     0.214 C 
HETATM    4  C   UNK N   1      35.562  14.467  11.829  0.00  0.00     0.213 C 
HETATM    5  O   UNK N   1      36.255  13.408  11.203  0.00  0.00    -0.341 OA
HETATM    6  C   UNK N   1      36.515  13.812   9.865  0.00  0.00     0.180 C 
BRANCH   3   7
HETATM    7  O   UNK N   1      34.878  16.712  11.185  0.00  0.00    -0.387 OA
HETATM    8  H   UNK N   1      34.127  16.799  10.577  0.00  0.00     0.210 HD
ENDBRANCH   3   7
BRANCH   4   9
HETATM    9  O   UNK N   1      34.194  14.166  11.857  0.00  0.00    -0.362 OA
HETATM   10  H   UNK N   1      33.550  13.472  12.070  0.00  0.00     0.213 HD
ENDBRANCH   4   9
BRANCH   4  11
HETATM   11  C   UNK N   1      36.072  14.695  13.246  0.00  0.00     0.235 C 
BRANCH  11  12
HETATM   12  O   UNK N   1      37.150  13.853  13.522  0.00  0.00    -0.395 OA
HETATM   13  H   UNK N   1      37.450  13.465  14.360  0.00  0.00     0.209 HD
ENDBRANCH  11  12
ENDBRANCH   4  11
BRANCH   6  14
HETATM   14  C   UNK N   1      38.015  13.932   9.646  0.00  0.00     0.198 C 
BRANCH  14  15
HETATM   15  O   UNK N   1      38.694  13.524  10.794  0.00  0.00    -0.398 OA
HETATM   16  H   UNK N   1      38.366  12.874  11.435  0.00  0.00     0.209 HD
ENDBRANCH  14  15
ENDBRANCH   6  14
ENDBRANCH   1   2
BRANCH   1  17
HETATM   17  C   UNK N   1      34.201  16.024   8.291  0.00  0.00     0.292 C 
HETATM   18  O   UNK N   1      33.104  16.790   8.781  0.00  0.00    -0.348 OA
HETATM   19  C   UNK N   1      31.959  16.517   8.003  0.00  0.00     0.179 C 
HETATM   20  C   UNK N   1      32.106  17.094   6.580  0.00  0.00     0.180 C 
HETATM   21  C   UNK N   1      33.520  16.849   6.026  0.00  0.00     0.183 C 
HETATM   22  C   UNK N   1      34.177  15.687   6.778  0.00  0.00     0.204 C 
BRANCH  19  23
HETATM   23  C   UNK N   1      30.690  16.986   8.700  0.00  0.00     0.198 C 
BRANCH  23  24
HETATM   24  O   UNK N   1      29.970  17.852   7.876  0.00  0.00    -0.398 OA
HETATM   25  H   UNK N   1      30.028  18.361   7.052  0.00  0.00     0.209 HD
ENDBRANCH  23  24
ENDBRANCH  19  23
BRANCH  20  26
HETATM   26  O   UNK N   1      31.159  16.501   5.744  0.00  0.00    -0.390 OA
HETATM   27  H   UNK N   1      30.767  15.887   5.104  0.00  0.00     0.210 HD
ENDBRANCH  20  26
BRANCH  21  28
HETATM   28  O   UNK N   1      34.285  18.008   6.184  0.00  0.00    -0.390 OA
HETATM   29  H   UNK N   1      34.470  18.936   5.975  0.00  0.00     0.210 HD
ENDBRANCH  21  28
BRANCH  22  30
HETATM   30  O   UNK N   1      35.467  15.441   6.306  0.00  0.00    -0.388 OA
HETATM   31  H   UNK N   1      35.864  14.562   6.408  0.00  0.00     0.210 HD
ENDBRANCH  22  30
ENDBRANCH   1  17
TORSDOF 13
ENDMDL
MODEL 6
REMARK VINA RESULT:      -5.8     13.015     16.099
REMARK  13 active torsions:
REMARK  status: ('A' for Active; 'I' for Inactive)
REMARK    1  A    between atoms: C_12  and  O_1 
REMARK    2  A    between atoms: C_16  and  O_1 
REMARK    3  A    between atoms: C_13  and  O_4 
REMARK    4  A    between atoms: C_15  and  O_5 
REMARK    5  A    between atoms: C_17  and  O_6 
REMARK    6  A    between atoms: C_18  and  O_7 
REMARK    7  A    between atoms: C_19  and  O_8 
REMARK    8  A    between atoms: O_9  and  C_21 
REMARK    9  A    between atoms: O_10  and  C_22 
REMARK   10  A    between atoms: O_11  and  C_23 
REMARK   11  A    between atoms: C_14  and  C_21 
REMARK   12  A    between atoms: C_15  and  C_22 
REMARK   13  A    between atoms: C_20  and  C_23 
ROOT
HETATM    1  O   UNK N   1      34.879  16.534   9.193  0.00  0.00    -0.348 OA
ENDROOT
BRANCH   1   2
HETATM    2  C   UNK N   1      34.213  15.664   8.311  0.00  0.00     0.190 C 
HETATM    3  C   UNK N   1      33.143  16.383   7.553  0.00  0.00     0.214 C 
HETATM    4  C   UNK N   1      33.934  17.105   6.485  0.00  0.00     0.213 C 
HETATM    5  O   UNK N   1      34.985  16.238   6.113  0.00  0.00    -0.341 OA
HETATM    6  C   UNK N   1      35.141  15.295   7.165  0.00  0.00     0.180 C 
BRANCH   3   7
HETATM    7  O   UNK N   1      32.376  17.240   8.349  0.00  0.00    -0.387 OA
HETATM    8  H   UNK N   1      32.531  17.293   9.305  0.00  0.00     0.210 HD
ENDBRANCH   3   7
BRANCH   4   9
HETATM    9  O   UNK N   1      34.477  18.297   6.982  0.00  0.00    -0.362 OA
HETATM   10  H   UNK N   1      35.310  18.760   7.163  0.00  0.00     0.213 HD
ENDBRANCH   4   9
BRANCH   4  11
HETATM   11  C   UNK N   1      33.025  17.404   5.301  0.00  0.00     0.235 C 
BRANCH  11  12
HETATM   12  O   UNK N   1      32.466  16.227   4.799  0.00  0.00    -0.395 OA
HETATM   13  H   UNK N   1      32.156  15.430   5.258  0.00  0.00     0.209 HD
ENDBRANCH  11  12
ENDBRANCH   4  11
BRANCH   6  14
HETATM   14  C   UNK N   1      34.810  13.900   6.660  0.00  0.00     0.198 C 
BRANCH  14  15
HETATM   15  O   UNK N   1      34.465  13.956   5.311  0.00  0.00    -0.398 OA
HETATM   16  H   UNK N   1      35.078  14.159   4.586  0.00  0.00     0.209 HD
ENDBRANCH  14  15
ENDBRANCH   6  14
ENDBRANCH   1   2
BRANCH   1  17
HETATM   17  C   UNK N   1      35.267  15.790  10.329  0.00  0.00     0.292 C 
HETATM   18  O   UNK N   1      36.671  15.548  10.388  0.00  0.00    -0.348 OA
HETATM   19  C   UNK N   1      36.926  14.198  10.071  0.00  0.00     0.179 C 
HETATM   20  C   UNK N   1      36.422  13.262  11.188  0.00  0.00     0.180 C 
HETATM   21  C   UNK N   1      35.044  13.709  11.706  0.00  0.00     0.183 C 
HETATM   22  C   UNK N   1      34.353  14.580  10.652  0.00  0.00     0.204 C 
BRANCH  19  23
HETATM   23  C   UNK N   1      38.394  13.976   9.735  0.00  0.00     0.198 C 
BRANCH  23  24
HETATM   24  O   UNK N   1      39.053  13.363  10.802  0.00  0.00    -0.398 OA
HETATM   25  H   UNK N   1      39.502  13.549  11.641  0.00  0.00     0.209 HD
ENDBRANCH  23  24
ENDBRANCH  19  23
BRANCH  20  26
HETATM   26  O   UNK N   1      36.344  11.959  10.696  0.00  0.00    -0.390 OA
HETATM   27  H   UNK N   1      36.163  11.007  10.664  0.00  0.00     0.210 HD
ENDBRANCH  20  26
BRANCH  21  28
HETATM   28  O   UNK N   1      35.209  14.437  12.887  0.00  0.00    -0.390 OA
HETATM   29  H   UNK N   1      35.578  14.534  13.779  0.00  0.00     0.210 HD
ENDBRANCH  21  28
BRANCH  22  30
HETATM   30  O   UNK N   1      33.100  15.012  11.091  0.00  0.00    -0.388 OA
HETATM   31  H   UNK N   1      33.033  15.679  11.792  0.00  0.00     0.210 HD
ENDBRANCH  22  30
ENDBRANCH   1  17
TORSDOF 13
ENDMDL
MODEL 7
REMARK VINA RESULT:      -5.6     15.590     18.079
REMARK  13 active torsions:
REMARK  status: ('A' for Active; 'I' for Inactive)
REMARK    1  A    between atoms: C_12  and  O_1 
REMARK    2  A    between atoms: C_16  and  O_1 
REMARK    3  A    between atoms: C_13  and  O_4 
REMARK    4  A    between atoms: C_15  and  O_5 
REMARK    5  A    between atoms: C_17  and  O_6 
REMARK    6  A    between atoms: C_18  and  O_7 
REMARK    7  A    between atoms: C_19  and  O_8 
REMARK    8  A    between atoms: O_9  and  C_21 
REMARK    9  A    between atoms: O_10  and  C_22 
REMARK   10  A    between atoms: O_11  and  C_23 
REMARK   11  A    between atoms: C_14  and  C_21 
REMARK   12  A    between atoms: C_15  and  C_22 
REMARK   13  A    between atoms: C_20  and  C_23 
ROOT
HETATM    1  O   UNK N   1      35.179  12.612  12.716  0.00  0.00    -0.348 OA
ENDROOT
BRANCH   1   2
HETATM    2  C   UNK N   1      35.165  12.929  14.086  0.00  0.00     0.190 C 
HETATM    3  C   UNK N   1      34.736  11.755  14.906  0.00  0.00     0.214 C 
HETATM    4  C   UNK N   1      35.995  10.919  14.956  0.00  0.00     0.213 C 
HETATM    5  O   UNK N   1      37.073  11.827  15.036  0.00  0.00    -0.341 OA
HETATM    6  C   UNK N   1      36.593  13.087  14.584  0.00  0.00     0.180 C 
BRANCH   3   7
HETATM    7  O   UNK N   1      33.639  11.072  14.369  0.00  0.00    -0.387 OA
HETATM    8  H   UNK N   1      32.996  11.537  13.811  0.00  0.00     0.210 HD
ENDBRANCH   3   7
BRANCH   4   9
HETATM    9  O   UNK N   1      36.132  10.146  13.796  0.00  0.00    -0.362 OA
HETATM   10  H   UNK N   1      36.662  10.030  12.992  0.00  0.00     0.213 HD
ENDBRANCH   4   9
BRANCH   4  11
HETATM   11  C   UNK N   1      35.949  10.014  16.180  0.00  0.00     0.235 C 
BRANCH  11  12
HETATM   12  O   UNK N   1      34.637   9.859  16.629  0.00  0.00    -0.395 OA
HETATM   13  H   UNK N   1      33.855  10.418  16.500  0.00  0.00     0.209 HD
ENDBRANCH  11  12
ENDBRANCH   4  11
BRANCH   6  14
HETATM   14  C   UNK N   1      36.635  14.093  15.724  0.00  0.00     0.198 C 
BRANCH  14  15
HETATM   15  O   UNK N   1      37.680  14.992  15.521  0.00  0.00    -0.398 OA
HETATM   16  H   UNK N   1      38.472  15.063  16.077  0.00  0.00     0.209 HD
ENDBRANCH  14  15
ENDBRANCH   6  14
ENDBRANCH   1   2
BRANCH   1  17
HETATM   17  C   UNK N   1      35.558  13.772  12.004  0.00  0.00     0.292 C 
HETATM   18  O   UNK N   1      34.447  14.539  11.549  0.00  0.00    -0.348 OA
HETATM   19  C   UNK N   1      34.303  14.372  10.156  0.00  0.00     0.179 C 
HETATM   20  C   UNK N   1      35.458  15.054   9.395  0.00  0.00     0.180 C 
HETATM   21  C   UNK N   1      36.807  14.798  10.090  0.00  0.00     0.183 C 
HETATM   22  C   UNK N   1      36.703  13.556  10.981  0.00  0.00     0.204 C 
BRANCH  19  23
HETATM   23  C   UNK N   1      32.933  14.834   9.681  0.00  0.00     0.198 C 
BRANCH  23  24
HETATM   24  O   UNK N   1      32.110  15.126  10.769  0.00  0.00    -0.398 OA
HETATM   25  H   UNK N   1      31.213  14.996  11.116  0.00  0.00     0.209 HD
ENDBRANCH  23  24
ENDBRANCH  19  23
BRANCH  20  26
HETATM   26  O   UNK N   1      35.498  14.566   8.088  0.00  0.00    -0.390 OA
HETATM   27  H   UNK N   1      35.308  14.007   7.319  0.00  0.00     0.210 HD
ENDBRANCH  20  26
BRANCH  21  28
HETATM   28  O   UNK N   1      37.143  15.910  10.867  0.00  0.00    -0.390 OA
HETATM   29  H   UNK N   1      37.086  16.417  11.692  0.00  0.00     0.210 HD
ENDBRANCH  21  28
BRANCH  22  30
HETATM   30  O   UNK N   1      37.908  13.298  11.635  0.00  0.00    -0.388 OA
HETATM   31  H   UNK N   1      38.461  14.032  11.946  0.00  0.00     0.210 HD
ENDBRANCH  22  30
ENDBRANCH   1  17
TORSDOF 13
ENDMDL
MODEL 8
REMARK VINA RESULT:      -5.5     14.526     17.413
REMARK  13 active torsions:
REMARK  status: ('A' for Active; 'I' for Inactive)
REMARK    1  A    between atoms: C_12  and  O_1 
REMARK    2  A    between atoms: C_16  and  O_1 
REMARK    3  A    between atoms: C_13  and  O_4 
REMARK    4  A    between atoms: C_15  and  O_5 
REMARK    5  A    between atoms: C_17  and  O_6 
REMARK    6  A    between atoms: C_18  and  O_7 
REMARK    7  A    between atoms: C_19  and  O_8 
REMARK    8  A    between atoms: O_9  and  C_21 
REMARK    9  A    between atoms: O_10  and  C_22 
REMARK   10  A    between atoms: O_11  and  C_23 
REMARK   11  A    between atoms: C_14  and  C_21 
REMARK   12  A    between atoms: C_15  and  C_22 
REMARK   13  A    between atoms: C_20  and  C_23 
ROOT
HETATM    1  O   UNK N   1      35.374  14.382  11.041  0.00  0.00    -0.348 OA
ENDROOT
BRANCH   1   2
HETATM    2  C   UNK N   1      34.634  14.063   9.888  0.00  0.00     0.190 C 
HETATM    3  C   UNK N   1      33.414  14.920   9.778  0.00  0.00     0.214 C 
HETATM    4  C   UNK N   1      33.978  16.217   9.242  0.00  0.00     0.213 C 
HETATM    5  O   UNK N   1      35.010  15.862   8.346  0.00  0.00    -0.341 OA
HETATM    6  C   UNK N   1      35.392  14.528   8.655  0.00  0.00     0.180 C 
BRANCH   3   7
HETATM    7  O   UNK N   1      32.729  15.072  10.988  0.00  0.00    -0.387 OA
HETATM    8  H   UNK N   1      32.597  15.953  11.371  0.00  0.00     0.210 HD
ENDBRANCH   3   7
BRANCH   4   9
HETATM    9  O   UNK N   1      34.515  16.996  10.276  0.00  0.00    -0.362 OA
HETATM   10  H   UNK N   1      35.087  16.968  11.059  0.00  0.00     0.213 HD
ENDBRANCH   4   9
BRANCH   4  11
HETATM   11  C   UNK N   1      32.876  16.989   8.530  0.00  0.00     0.235 C 
BRANCH  11  12
HETATM   12  O   UNK N   1      31.681  16.917   9.248  0.00  0.00    -0.395 OA
HETATM   13  H   UNK N   1      31.509  16.637  10.161  0.00  0.00     0.209 HD
ENDBRANCH  11  12
ENDBRANCH   4  11
BRANCH   6  14
HETATM   14  C   UNK N   1      35.076  13.617   7.479  0.00  0.00     0.198 C 
BRANCH  14  15
HETATM   15  O   UNK N   1      34.722  12.352   7.945  0.00  0.00    -0.398 OA
HETATM   16  H   UNK N   1      34.267  11.672   7.423  0.00  0.00     0.209 HD
ENDBRANCH  14  15
ENDBRANCH   6  14
ENDBRANCH   1   2
BRANCH   1  17
HETATM   17  C   UNK N   1      35.426  13.230  11.857  0.00  0.00     0.292 C 
HETATM   18  O   UNK N   1      35.237  13.516  13.241  0.00  0.00    -0.348 OA
HETATM   19  C   UNK N   1      36.472  13.402  13.914  0.00  0.00     0.179 C 
HETATM   20  C   UNK N   1      36.933  11.932  13.980  0.00  0.00     0.180 C 
HETATM   21  C   UNK N   1      36.690  11.214  12.641  0.00  0.00     0.183 C 
HETATM   22  C   UNK N   1      36.574  12.246  11.514  0.00  0.00     0.204 C 
BRANCH  19  23
HETATM   23  C   UNK N   1      36.420  14.064  15.283  0.00  0.00     0.198 C 
BRANCH  23  24
HETATM   24  O   UNK N   1      37.654  14.631  15.601  0.00  0.00    -0.398 OA
HETATM   25  H   UNK N   1      38.476  14.468  16.090  0.00  0.00     0.209 HD
ENDBRANCH  23  24
ENDBRANCH  19  23
BRANCH  20  26
HETATM   26  O   UNK N   1      38.291  11.891  14.301  0.00  0.00    -0.390 OA
HETATM   27  H   UNK N   1      39.147  11.542  14.592  0.00  0.00     0.210 HD
ENDBRANCH  20  26
BRANCH  21  28
HETATM   28  O   UNK N   1      35.510  10.470  12.725  0.00  0.00    -0.390 OA
HETATM   29  H   UNK N   1      34.735  10.162  13.220  0.00  0.00     0.210 HD
ENDBRANCH  21  28
BRANCH  22  30
HETATM   30  O   UNK N   1      36.344  11.630  10.283  0.00  0.00    -0.388 OA
HETATM   31  H   UNK N   1      35.484  11.724   9.845  0.00  0.00     0.210 HD
ENDBRANCH  22  30
ENDBRANCH   1  17
TORSDOF 13
ENDMDL
MODEL 9
REMARK VINA RESULT:      -5.4      9.153     12.318
REMARK  13 active torsions:
REMARK  status: ('A' for Active; 'I' for Inactive)
REMARK    1  A    between atoms: C_12  and  O_1 
REMARK    2  A    between atoms: C_16  and  O_1 
REMARK    3  A    between atoms: C_13  and  O_4 
REMARK    4  A    between atoms: C_15  and  O_5 
REMARK    5  A    between atoms: C_17  and  O_6 
REMARK    6  A    between atoms: C_18  and  O_7 
REMARK    7  A    between atoms: C_19  and  O_8 
REMARK    8  A    between atoms: O_9  and  C_21 
REMARK    9  A    between atoms: O_10  and  C_22 
REMARK   10  A    between atoms: O_11  and  C_23 
REMARK   11  A    between atoms: C_14  and  C_21 
REMARK   12  A    between atoms: C_15  and  C_22 
REMARK   13  A    between atoms: C_20  and  C_23 
ROOT
HETATM    1  O   UNK N   1      30.816  15.954   7.413  0.00  0.00    -0.348 OA
ENDROOT
BRANCH   1   2
HETATM    2  C   UNK N   1      30.199  17.207   7.255  0.00  0.00     0.190 C 
HETATM    3  C   UNK N   1      29.869  17.467   5.820  0.00  0.00     0.214 C 
HETATM    4  C   UNK N   1      28.610  16.652   5.626  0.00  0.00     0.213 C 
HETATM    5  O   UNK N   1      27.882  16.751   6.832  0.00  0.00    -0.341 OA
HETATM    6  C   UNK N   1      28.797  17.159   7.840  0.00  0.00     0.180 C 
BRANCH   3   7
HETATM    7  O   UNK N   1      30.898  17.116   4.939  0.00  0.00    -0.387 OA
HETATM    8  H   UNK N   1      30.697  16.669   4.102  0.00  0.00     0.210 HD
ENDBRANCH   3   7
BRANCH   4   9
HETATM    9  O   UNK N   1      28.915  15.307   5.383  0.00  0.00    -0.362 OA
HETATM   10  H   UNK N   1      28.531  14.418   5.315  0.00  0.00     0.213 HD
ENDBRANCH   4   9
BRANCH   4  11
HETATM   11  C   UNK N   1      27.816  17.223   4.458  0.00  0.00     0.235 C 
BRANCH  11  12
HETATM   12  O   UNK N   1      28.588  18.135   3.736  0.00  0.00    -0.395 OA
HETATM   13  H   UNK N   1      28.536  19.102   3.681  0.00  0.00     0.209 HD
ENDBRANCH  11  12
ENDBRANCH   4  11
BRANCH   6  14
HETATM   14  C   UNK N   1      28.407  18.532   8.363  0.00  0.00     0.198 C 
BRANCH  14  15
HETATM   15  O   UNK N   1      27.411  18.404   9.330  0.00  0.00    -0.398 OA
HETATM   16  H   UNK N   1      26.992  17.569   9.593  0.00  0.00     0.209 HD
ENDBRANCH  14  15
ENDBRANCH   6  14
ENDBRANCH   1   2
BRANCH   1  17
HETATM   17  C   UNK N   1      32.085  16.163   7.996  0.00  0.00     0.292 C 
HETATM   18  O   UNK N   1      33.100  16.459   7.039  0.00  0.00    -0.348 OA
HETATM   19  C   UNK N   1      33.941  15.337   6.888  0.00  0.00     0.179 C 
HETATM   20  C   UNK N   1      34.791  15.108   8.154  0.00  0.00     0.180 C 
HETATM   21  C   UNK N   1      33.953  15.306   9.429  0.00  0.00     0.183 C 
HETATM   22  C   UNK N   1      32.466  15.143   9.100  0.00  0.00     0.204 C 
BRANCH  19  23
HETATM   23  C   UNK N   1      34.782  15.441   5.625  0.00  0.00     0.198 C 
BRANCH  23  24
HETATM   24  O   UNK N   1      36.135  15.267   5.921  0.00  0.00    -0.398 OA
HETATM   25  H   UNK N   1      36.762  15.203   6.658  0.00  0.00     0.209 HD
ENDBRANCH  23  24
ENDBRANCH  19  23
BRANCH  20  26
HETATM   26  O   UNK N   1      35.317  13.816   8.127  0.00  0.00    -0.390 OA
HETATM   27  H   UNK N   1      35.895  13.073   7.896  0.00  0.00     0.210 HD
ENDBRANCH  20  26
BRANCH  21  28
HETATM   28  O   UNK N   1      34.187  16.585   9.941  0.00  0.00    -0.390 OA
HETATM   29  H   UNK N   1      33.995  17.293  10.575  0.00  0.00     0.210 HD
ENDBRANCH  21  28
BRANCH  22  30
HETATM   30  O   UNK N   1      31.672  15.325  10.234  0.00  0.00    -0.388 OA
HETATM   31  H   UNK N   1      30.774  14.961  10.263  0.00  0.00     0.210 HD
ENDBRANCH  22  30
ENDBRANCH   1  17
TORSDOF 13
ENDMDL
