MODEL 1
REMARK VINA RESULT:      -6.4      0.000      0.000
REMARK  6 active torsions:
REMARK  status: ('A' for Active; 'I' for Inactive)
REMARK    1  A    between atoms: C_14  and  O_4 
REMARK    2  A    between atoms: N_5  and  C_16 
REMARK    3  A    between atoms: C_14  and  C_15 
REMARK    4  A    between atoms: C_14  and  C_16 
REMARK    5  A    between atoms: C_14  and  C_17 
REMARK    6  A    between atoms: C_15  and  C_19 
ROOT
HETATM    1  C   UNK N   1      32.153  16.360   7.606  0.00  0.00     0.114 C 
ENDROOT
BRANCH   1   2
HETATM    2  O   UNK N   1      31.479  15.342   8.291  0.00  0.00    -0.382 OA
HETATM    3  H   UNK N   1      30.804  15.431   8.983  0.00  0.00     0.211 HD
ENDBRANCH   1   2
BRANCH   1   4
HETATM    4  C   UNK N   1      33.670  16.014   7.601  0.00  0.00     0.075 C 
HETATM    5  C   UNK N   1      33.972  14.812   6.715  0.00  0.00     0.020 C 
BRANCH   4   6
HETATM    6  C   UNK N   1      34.239  15.806   8.982  0.00  0.00     0.057 A 
HETATM    7  N   UNK N   1      34.046  14.631   9.641  0.00  0.00    -0.353 N 
HETATM    8  C   UNK N   1      34.505  14.459  10.910  0.00  0.00     0.180 A 
ATOM      9  HN  UNK N   1      33.552  13.869   9.177  1.00  0.00     0.166 HD
HETATM   10  N   UNK N   1      35.170  15.463  11.539  0.00  0.00    -0.359 N 
HETATM   11  C   UNK N   1      35.397  16.646  10.913  0.00  0.00     0.133 A 
ATOM     12  HN  UNK N   1      35.502  15.327  12.494  1.00  0.00     0.166 HD
HETATM   13  C   UNK N   1      34.935  16.844   9.615  0.00  0.00     0.154 A 
HETATM   14  F   UNK N   1      35.161  18.023   8.984  0.00  0.00    -0.203 F 
ENDBRANCH   4   6
ENDBRANCH   1   4
BRANCH   1  15
HETATM   15  C   UNK N   1      31.861  17.659   8.393  0.00  0.00     0.193 C 
BRANCH  15  16
HETATM   16  N   UNK N   1      30.508  17.765   8.921  0.00  0.00    -0.284 N 
HETATM   17  N   UNK N   1      30.027  17.080   9.939  0.00  0.00    -0.293 N 
HETATM   18  C   UNK N   1      28.747  17.464  10.093  0.00  0.00     0.198 A 
ATOM     19  HN  UNK N   1      30.528  16.392  10.501  1.00  0.00     0.188 HD
HETATM   20  N   UNK N   1      28.416  18.390   9.165  0.00  0.00    -0.346 N 
HETATM   21  C   UNK N   1      29.541  18.557   8.442  0.00  0.00     0.201 A 
ATOM     22  HN  UNK N   1      27.517  18.856   9.042  1.00  0.00     0.167 HD
ENDBRANCH  15  16
ENDBRANCH   1  15
BRANCH   1  23
HETATM   23  C   UNK N   1      31.621  16.499   6.173  0.00  0.00     0.017 A 
HETATM   24  C   UNK N   1      32.258  17.290   5.182  0.00  0.00     0.128 A 
HETATM   25  F   UNK N   1      33.376  18.007   5.453  0.00  0.00    -0.205 F 
HETATM   26  C   UNK N   1      31.753  17.319   3.877  0.00  0.00     0.085 A 
HETATM   27  C   UNK N   1      30.617  16.582   3.539  0.00  0.00     0.119 A 
HETATM   28  F   UNK N   1      30.149  16.598   2.268  0.00  0.00    -0.206 F 
HETATM   29  C   UNK N   1      29.968  15.821   4.509  0.00  0.00     0.043 A 
HETATM   30  C   UNK N   1      30.465  15.783   5.811  0.00  0.00     0.016 A 
ENDBRANCH   1  23
TORSDOF 6
ENDMDL
MODEL 2
REMARK VINA RESULT:      -6.4      7.255     10.138
REMARK  6 active torsions:
REMARK  status: ('A' for Active; 'I' for Inactive)
REMARK    1  A    between atoms: C_14  and  O_4 
REMARK    2  A    between atoms: N_5  and  C_16 
REMARK    3  A    between atoms: C_14  and  C_15 
REMARK    4  A    between atoms: C_14  and  C_16 
REMARK    5  A    between atoms: C_14  and  C_17 
REMARK    6  A    between atoms: C_15  and  C_19 
ROOT
HETATM    1  C   UNK N   1      36.321  12.724  14.120  0.00  0.00     0.114 C 
ENDROOT
BRANCH   1   2
HETATM    2  O   UNK N   1      37.583  12.775  13.517  0.00  0.00    -0.382 OA
HETATM    3  H   UNK N   1      38.070  12.054  13.085  0.00  0.00     0.211 HD
ENDBRANCH   1   2
BRANCH   1   4
HETATM    4  C   UNK N   1      36.034  11.246  14.514  0.00  0.00     0.075 C 
HETATM    5  C   UNK N   1      37.183  10.642  15.312  0.00  0.00     0.020 C 
BRANCH   4   6
HETATM    6  C   UNK N   1      35.695  10.370  13.334  0.00  0.00     0.057 A 
HETATM    7  N   UNK N   1      36.671   9.938  12.489  0.00  0.00    -0.353 N 
HETATM    8  C   UNK N   1      36.364   9.198  11.391  0.00  0.00     0.180 A 
ATOM      9  HN  UNK N   1      37.644  10.171  12.683  1.00  0.00     0.166 HD
HETATM   10  N   UNK N   1      35.071   8.874  11.122  0.00  0.00    -0.359 N 
HETATM   11  C   UNK N   1      34.070   9.271  11.947  0.00  0.00     0.133 A 
ATOM     12  HN  UNK N   1      34.852   8.326  10.290  1.00  0.00     0.166 HD
HETATM   13  C   UNK N   1      34.361  10.031  13.076  0.00  0.00     0.154 A 
HETATM   14  F   UNK N   1      33.363  10.429  13.905  0.00  0.00    -0.203 F 
ENDBRANCH   4   6
ENDBRANCH   1   4
BRANCH   1  15
HETATM   15  C   UNK N   1      35.326  13.239  13.054  0.00  0.00     0.193 C 
BRANCH  15  16
HETATM   16  N   UNK N   1      35.922  14.052  12.002  0.00  0.00    -0.284 N 
HETATM   17  N   UNK N   1      36.588  13.591  10.962  0.00  0.00    -0.293 N 
HETATM   18  C   UNK N   1      36.976  14.661  10.246  0.00  0.00     0.198 A 
ATOM     19  HN  UNK N   1      36.772  12.611  10.743  1.00  0.00     0.188 HD
HETATM   20  N   UNK N   1      36.560  15.802  10.838  0.00  0.00    -0.346 N 
HETATM   21  C   UNK N   1      35.903  15.389  11.940  0.00  0.00     0.201 A 
ATOM     22  HN  UNK N   1      36.710  16.760  10.522  1.00  0.00     0.167 HD
ENDBRANCH  15  16
ENDBRANCH   1  15
BRANCH   1  23
HETATM   23  C   UNK N   1      36.268  13.636  15.353  0.00  0.00     0.017 A 
HETATM   24  C   UNK N   1      35.373  13.428  16.435  0.00  0.00     0.128 A 
HETATM   25  F   UNK N   1      34.475  12.413  16.431  0.00  0.00    -0.205 F 
HETATM   26  C   UNK N   1      35.424  14.263  17.558  0.00  0.00     0.085 A 
HETATM   27  C   UNK N   1      36.345  15.311  17.622  0.00  0.00     0.119 A 
HETATM   28  F   UNK N   1      36.402  16.098  18.722  0.00  0.00    -0.206 F 
HETATM   29  C   UNK N   1      37.211  15.541  16.556  0.00  0.00     0.043 A 
HETATM   30  C   UNK N   1      37.170  14.714  15.434  0.00  0.00     0.016 A 
ENDBRANCH   1  23
TORSDOF 6
ENDMDL
MODEL 3
REMARK VINA RESULT:      -6.2      6.947     10.620
REMARK  6 active torsions:
REMARK  status: ('A' for Active; 'I' for Inactive)
REMARK    1  A    between atoms: C_14  and  O_4 
REMARK    2  A    between atoms: N_5  and  C_16 
REMARK    3  A    between atoms: C_14  and  C_15 
REMARK    4  A    between atoms: C_14  and  C_16 
REMARK    5  A    between atoms: C_14  and  C_17 
REMARK    6  A    between atoms: C_15  and  C_19 
ROOT
HETATM    1  C   UNK N   1      35.909  12.272  14.575  0.00  0.00     0.114 C 
ENDROOT
BRANCH   1   2
HETATM    2  O   UNK N   1      37.097  11.640  14.193  0.00  0.00    -0.382 OA
HETATM    3  H   UNK N   1      37.308  11.225  13.340  0.00  0.00     0.211 HD
ENDBRANCH   1   2
BRANCH   1   4
HETATM    4  C   UNK N   1      34.737  11.607  13.796  0.00  0.00     0.075 C 
HETATM    5  C   UNK N   1      33.673  11.057  14.740  0.00  0.00     0.020 C 
BRANCH   4   6
HETATM    6  C   UNK N   1      35.191  10.538  12.835  0.00  0.00     0.057 A 
HETATM    7  N   UNK N   1      35.725   9.373  13.295  0.00  0.00    -0.353 N 
HETATM    8  C   UNK N   1      36.191   8.431  12.432  0.00  0.00     0.180 A 
ATOM      9  HN  UNK N   1      35.774   9.205  14.299  1.00  0.00     0.166 HD
HETATM   10  N   UNK N   1      36.126   8.639  11.090  0.00  0.00    -0.359 N 
HETATM   11  C   UNK N   1      35.587   9.779  10.589  0.00  0.00     0.133 A 
ATOM     12  HN  UNK N   1      36.487   7.929  10.453  1.00  0.00     0.166 HD
HETATM   13  C   UNK N   1      35.106  10.758  11.455  0.00  0.00     0.154 A 
HETATM   14  F   UNK N   1      34.564  11.899  10.958  0.00  0.00    -0.203 F 
ENDBRANCH   4   6
ENDBRANCH   1   4
BRANCH   1  15
HETATM   15  C   UNK N   1      36.083  13.760  14.191  0.00  0.00     0.193 C 
BRANCH  15  16
HETATM   16  N   UNK N   1      36.332  14.002  12.777  0.00  0.00    -0.284 N 
HETATM   17  N   UNK N   1      37.312  13.473  12.070  0.00  0.00    -0.293 N 
HETATM   18  C   UNK N   1      37.194  13.959  10.821  0.00  0.00     0.198 A 
ATOM     19  HN  UNK N   1      38.022  12.821  12.406  1.00  0.00     0.188 HD
HETATM   20  N   UNK N   1      36.140  14.802  10.740  0.00  0.00    -0.346 N 
HETATM   21  C   UNK N   1      35.620  14.811  11.983  0.00  0.00     0.201 A 
ATOM     22  HN  UNK N   1      35.814  15.315   9.921  1.00  0.00     0.167 HD
ENDBRANCH  15  16
ENDBRANCH   1  15
BRANCH   1  23
HETATM   23  C   UNK N   1      35.691  12.156  16.090  0.00  0.00     0.017 A 
HETATM   24  C   UNK N   1      35.964  10.974  16.826  0.00  0.00     0.128 A 
HETATM   25  F   UNK N   1      36.412   9.847  16.221  0.00  0.00    -0.205 F 
HETATM   26  C   UNK N   1      35.804  10.961  18.217  0.00  0.00     0.085 A 
HETATM   27  C   UNK N   1      35.365  12.102  18.891  0.00  0.00     0.119 A 
HETATM   28  F   UNK N   1      35.235  12.086  20.239  0.00  0.00    -0.206 F 
HETATM   29  C   UNK N   1      35.070  13.261  18.178  0.00  0.00     0.043 A 
HETATM   30  C   UNK N   1      35.229  13.285  16.793  0.00  0.00     0.016 A 
ENDBRANCH   1  23
TORSDOF 6
ENDMDL
MODEL 4
REMARK VINA RESULT:      -6.2      3.741      5.359
REMARK  6 active torsions:
REMARK  status: ('A' for Active; 'I' for Inactive)
REMARK    1  A    between atoms: C_14  and  O_4 
REMARK    2  A    between atoms: N_5  and  C_16 
REMARK    3  A    between atoms: C_14  and  C_15 
REMARK    4  A    between atoms: C_14  and  C_16 
REMARK    5  A    between atoms: C_14  and  C_17 
REMARK    6  A    between atoms: C_15  and  C_19 
ROOT
HETATM    1  C   UNK N   1      27.999  17.732   5.443  0.00  0.00     0.114 C 
ENDROOT
BRANCH   1   2
HETATM    2  O   UNK N   1      27.589  16.592   6.143  0.00  0.00    -0.382 OA
HETATM    3  H   UNK N   1      27.850  16.309   7.034  0.00  0.00     0.211 HD
ENDBRANCH   1   2
BRANCH   1   4
HETATM    4  C   UNK N   1      29.019  17.287   4.355  0.00  0.00     0.075 C 
HETATM    5  C   UNK N   1      28.357  16.441   3.274  0.00  0.00     0.020 C 
BRANCH   4   6
HETATM    6  C   UNK N   1      30.221  16.574   4.919  0.00  0.00     0.057 A 
HETATM    7  N   UNK N   1      30.076  15.403   5.598  0.00  0.00    -0.353 N 
HETATM    8  C   UNK N   1      31.148  14.785   6.161  0.00  0.00     0.180 A 
ATOM      9  HN  UNK N   1      29.151  14.982   5.684  1.00  0.00     0.166 HD
HETATM   10  N   UNK N   1      32.389  15.330   6.050  0.00  0.00    -0.359 N 
HETATM   11  C   UNK N   1      32.580  16.488   5.369  0.00  0.00     0.133 A 
ATOM     12  HN  UNK N   1      33.185  14.863   6.484  1.00  0.00     0.166 HD
HETATM   13  C   UNK N   1      31.495  17.138   4.786  0.00  0.00     0.154 A 
HETATM   14  F   UNK N   1      31.682  18.295   4.103  0.00  0.00    -0.203 F 
ENDBRANCH   4   6
ENDBRANCH   1   4
BRANCH   1  15
HETATM   15  C   UNK N   1      28.651  18.659   6.497  0.00  0.00     0.193 C 
BRANCH  15  16
HETATM   16  N   UNK N   1      28.825  18.061   7.814  0.00  0.00    -0.284 N 
HETATM   17  N   UNK N   1      27.856  17.785   8.664  0.00  0.00    -0.293 N 
HETATM   18  C   UNK N   1      28.438  17.256   9.755  0.00  0.00     0.198 A 
ATOM     19  HN  UNK N   1      26.858  17.941   8.521  1.00  0.00     0.188 HD
HETATM   20  N   UNK N   1      29.780  17.205   9.598  0.00  0.00    -0.346 N 
HETATM   21  C   UNK N   1      29.994  17.719   8.370  0.00  0.00     0.201 A 
ATOM     22  HN  UNK N   1      30.473  16.855  10.259  1.00  0.00     0.167 HD
ENDBRANCH  15  16
ENDBRANCH   1  15
BRANCH   1  23
HETATM   23  C   UNK N   1      26.799  18.446   4.807  0.00  0.00     0.017 A 
HETATM   24  C   UNK N   1      26.911  19.666   4.091  0.00  0.00     0.128 A 
HETATM   25  F   UNK N   1      28.100  20.302   3.950  0.00  0.00    -0.205 F 
HETATM   26  C   UNK N   1      25.783  20.227   3.480  0.00  0.00     0.085 A 
HETATM   27  C   UNK N   1      24.539  19.601   3.577  0.00  0.00     0.119 A 
HETATM   28  F   UNK N   1      23.458  20.139   2.964  0.00  0.00    -0.206 F 
HETATM   29  C   UNK N   1      24.411  18.416   4.298  0.00  0.00     0.043 A 
HETATM   30  C   UNK N   1      25.529  17.848   4.907  0.00  0.00     0.016 A 
ENDBRANCH   1  23
TORSDOF 6
ENDMDL
MODEL 5
REMARK VINA RESULT:      -6.1      9.250     12.638
REMARK  6 active torsions:
REMARK  status: ('A' for Active; 'I' for Inactive)
REMARK    1  A    between atoms: C_14  and  O_4 
REMARK    2  A    between atoms: N_5  and  C_16 
REMARK    3  A    between atoms: C_14  and  C_15 
REMARK    4  A    between atoms: C_14  and  C_16 
REMARK    5  A    between atoms: C_14  and  C_17 
REMARK    6  A    between atoms: C_15  and  C_19 
ROOT
HETATM    1  C   UNK N   1      21.423  16.730   5.419  0.00  0.00     0.114 C 
ENDROOT
BRANCH   1   2
HETATM    2  O   UNK N   1      22.097  15.965   4.460  0.00  0.00    -0.382 OA
HETATM    3  H   UNK N   1      22.588  15.138   4.590  0.00  0.00     0.211 HD
ENDBRANCH   1   2
BRANCH   1   4
HETATM    4  C   UNK N   1      20.024  17.099   4.844  0.00  0.00     0.075 C 
HETATM    5  C   UNK N   1      19.020  15.969   5.038  0.00  0.00     0.020 C 
BRANCH   4   6
HETATM    6  C   UNK N   1      20.066  17.524   3.398  0.00  0.00     0.057 A 
HETATM    7  N   UNK N   1      19.906  16.610   2.402  0.00  0.00    -0.353 N 
HETATM    8  C   UNK N   1      20.002  16.976   1.097  0.00  0.00     0.180 A 
ATOM      9  HN  UNK N   1      19.709  15.637   2.639  1.00  0.00     0.166 HD
HETATM   10  N   UNK N   1      20.258  18.270   0.766  0.00  0.00    -0.359 N 
HETATM   11  C   UNK N   1      20.409  19.216   1.727  0.00  0.00     0.133 A 
ATOM     12  HN  UNK N   1      20.337  18.533  -0.217  1.00  0.00     0.166 HD
HETATM   13  C   UNK N   1      20.316  18.862   3.070  0.00  0.00     0.154 A 
HETATM   14  F   UNK N   1      20.465  19.805   4.035  0.00  0.00    -0.203 F 
ENDBRANCH   4   6
ENDBRANCH   1   4
BRANCH   1  15
HETATM   15  C   UNK N   1      22.300  17.984   5.646  0.00  0.00     0.193 C 
BRANCH  15  16
HETATM   16  N   UNK N   1      23.620  17.927   5.032  0.00  0.00    -0.284 N 
HETATM   17  N   UNK N   1      24.612  17.150   5.418  0.00  0.00    -0.293 N 
HETATM   18  C   UNK N   1      25.648  17.411   4.602  0.00  0.00     0.198 A 
ATOM     19  HN  UNK N   1      24.596  16.479   6.187  1.00  0.00     0.188 HD
HETATM   20  N   UNK N   1      25.313  18.361   3.701  0.00  0.00    -0.346 N 
HETATM   21  C   UNK N   1      24.034  18.668   3.997  0.00  0.00     0.201 A 
ATOM     22  HN  UNK N   1      25.896  18.756   2.963  1.00  0.00     0.167 HD
ENDBRANCH  15  16
ENDBRANCH   1  15
BRANCH   1  23
HETATM   23  C   UNK N   1      21.285  15.956   6.736  0.00  0.00     0.017 A 
HETATM   24  C   UNK N   1      20.664  16.497   7.892  0.00  0.00     0.128 A 
HETATM   25  F   UNK N   1      20.175  17.761   7.913  0.00  0.00    -0.205 F 
HETATM   26  C   UNK N   1      20.514  15.710   9.041  0.00  0.00     0.085 A 
HETATM   27  C   UNK N   1      20.981  14.394   9.065  0.00  0.00     0.119 A 
HETATM   28  F   UNK N   1      20.811  13.633  10.173  0.00  0.00    -0.206 F 
HETATM   29  C   UNK N   1      21.615  13.860   7.945  0.00  0.00     0.043 A 
HETATM   30  C   UNK N   1      21.766  14.635   6.796  0.00  0.00     0.016 A 
ENDBRANCH   1  23
TORSDOF 6
ENDMDL
MODEL 6
REMARK VINA RESULT:      -6.1     13.742     16.437
REMARK  6 active torsions:
REMARK  status: ('A' for Active; 'I' for Inactive)
REMARK    1  A    between atoms: C_14  and  O_4 
REMARK    2  A    between atoms: N_5  and  C_16 
REMARK    3  A    between atoms: C_14  and  C_15 
REMARK    4  A    between atoms: C_14  and  C_16 
REMARK    5  A    between atoms: C_14  and  C_17 
REMARK    6  A    between atoms: C_15  and  C_19 
ROOT
HETATM    1  C   UNK N   1      27.937  25.352  -5.078  0.00  0.00     0.114 C 
ENDROOT
BRANCH   1   2
HETATM    2  O   UNK N   1      28.469  25.304  -6.372  0.00  0.00    -0.382 OA
HETATM    3  H   UNK N   1      28.207  24.725  -7.106  0.00  0.00     0.211 HD
ENDBRANCH   1   2
BRANCH   1   4
HETATM    4  C   UNK N   1      29.074  24.993  -4.077  0.00  0.00     0.075 C 
HETATM    5  C   UNK N   1      30.199  26.021  -4.110  0.00  0.00     0.020 C 
BRANCH   4   6
HETATM    6  C   UNK N   1      29.623  23.603  -4.273  0.00  0.00     0.057 A 
HETATM    7  N   UNK N   1      29.966  23.162  -5.514  0.00  0.00    -0.353 N 
HETATM    8  C   UNK N   1      30.406  21.890  -5.705  0.00  0.00     0.180 A 
ATOM      9  HN  UNK N   1      29.893  23.794  -6.310  1.00  0.00     0.166 HD
HETATM   10  N   UNK N   1      30.514  21.037  -4.651  0.00  0.00    -0.359 N 
HETATM   11  C   UNK N   1      30.197  21.441  -3.395  0.00  0.00     0.133 A 
ATOM     12  HN  UNK N   1      30.836  20.082  -4.807  1.00  0.00     0.166 HD
HETATM   13  C   UNK N   1      29.743  22.739  -3.178  0.00  0.00     0.154 A 
HETATM   14  F   UNK N   1      29.427  23.148  -1.923  0.00  0.00    -0.203 F 
ENDBRANCH   4   6
ENDBRANCH   1   4
BRANCH   1  15
HETATM   15  C   UNK N   1      26.798  24.307  -5.054  0.00  0.00     0.193 C 
BRANCH  15  16
HETATM   16  N   UNK N   1      26.329  23.881  -6.366  0.00  0.00    -0.284 N 
HETATM   17  N   UNK N   1      25.635  24.620  -7.208  0.00  0.00    -0.293 N 
HETATM   18  C   UNK N   1      25.397  23.855  -8.289  0.00  0.00     0.198 A 
ATOM     19  HN  UNK N   1      25.337  25.586  -7.068  1.00  0.00     0.188 HD
HETATM   20  N   UNK N   1      25.936  22.626  -8.126  0.00  0.00    -0.346 N 
HETATM   21  C   UNK N   1      26.513  22.671  -6.908  0.00  0.00     0.201 A 
ATOM     22  HN  UNK N   1      25.912  21.843  -8.778  1.00  0.00     0.167 HD
ENDBRANCH  15  16
ENDBRANCH   1  15
BRANCH   1  23
HETATM   23  C   UNK N   1      27.363  26.743  -4.775  0.00  0.00     0.017 A 
HETATM   24  C   UNK N   1      26.636  27.041  -3.594  0.00  0.00     0.128 A 
HETATM   25  F   UNK N   1      26.373  26.094  -2.660  0.00  0.00    -0.205 F 
HETATM   26  C   UNK N   1      26.197  28.349  -3.352  0.00  0.00     0.085 A 
HETATM   27  C   UNK N   1      26.459  29.367  -4.271  0.00  0.00     0.119 A 
HETATM   28  F   UNK N   1      26.051  30.633  -4.018  0.00  0.00    -0.206 F 
HETATM   29  C   UNK N   1      27.150  29.081  -5.446  0.00  0.00     0.043 A 
HETATM   30  C   UNK N   1      27.594  27.783  -5.695  0.00  0.00     0.016 A 
ENDBRANCH   1  23
TORSDOF 6
ENDMDL
MODEL 7
REMARK VINA RESULT:      -6.0      3.870      6.062
REMARK  6 active torsions:
REMARK  status: ('A' for Active; 'I' for Inactive)
REMARK    1  A    between atoms: C_14  and  O_4 
REMARK    2  A    between atoms: N_5  and  C_16 
REMARK    3  A    between atoms: C_14  and  C_15 
REMARK    4  A    between atoms: C_14  and  C_16 
REMARK    5  A    between atoms: C_14  and  C_17 
REMARK    6  A    between atoms: C_15  and  C_19 
ROOT
HETATM    1  C   UNK N   1      27.610  17.217   5.688  0.00  0.00     0.114 C 
ENDROOT
BRANCH   1   2
HETATM    2  O   UNK N   1      26.953  17.005   6.905  0.00  0.00    -0.382 OA
HETATM    3  H   UNK N   1      26.919  16.191   7.434  0.00  0.00     0.211 HD
ENDBRANCH   1   2
BRANCH   1   4
HETATM    4  C   UNK N   1      27.775  15.839   4.983  0.00  0.00     0.075 C 
HETATM    5  C   UNK N   1      27.101  14.720   5.769  0.00  0.00     0.020 C 
BRANCH   4   6
HETATM    6  C   UNK N   1      29.211  15.485   4.692  0.00  0.00     0.057 A 
HETATM    7  N   UNK N   1      29.919  14.699   5.548  0.00  0.00    -0.353 N 
HETATM    8  C   UNK N   1      31.232  14.426   5.321  0.00  0.00     0.180 A 
ATOM      9  HN  UNK N   1      29.458  14.308   6.369  1.00  0.00     0.166 HD
HETATM   10  N   UNK N   1      31.858  14.935   4.227  0.00  0.00    -0.359 N 
HETATM   11  C   UNK N   1      31.185  15.711   3.340  0.00  0.00     0.133 A 
ATOM     12  HN  UNK N   1      32.845  14.732   4.072  1.00  0.00     0.166 HD
HETATM   13  C   UNK N   1      29.841  16.005   3.554  0.00  0.00     0.154 A 
HETATM   14  F   UNK N   1      29.164  16.778   2.669  0.00  0.00    -0.203 F 
ENDBRANCH   4   6
ENDBRANCH   1   4
BRANCH   1  15
HETATM   15  C   UNK N   1      28.977  17.843   6.052  0.00  0.00     0.193 C 
BRANCH  15  16
HETATM   16  N   UNK N   1      29.259  17.910   7.480  0.00  0.00    -0.284 N 
HETATM   17  N   UNK N   1      28.659  18.706   8.342  0.00  0.00    -0.293 N 
HETATM   18  C   UNK N   1      29.215  18.464   9.543  0.00  0.00     0.198 A 
ATOM     19  HN  UNK N   1      27.916  19.375   8.139  1.00  0.00     0.188 HD
HETATM   20  N   UNK N   1      30.174  17.517   9.437  0.00  0.00    -0.346 N 
HETATM   21  C   UNK N   1      30.181  17.190   8.130  0.00  0.00     0.201 A 
ATOM     22  HN  UNK N   1      30.760  17.136  10.180  1.00  0.00     0.167 HD
ENDBRANCH  15  16
ENDBRANCH   1  15
BRANCH   1  23
HETATM   23  C   UNK N   1      26.821  18.190   4.802  0.00  0.00     0.017 A 
HETATM   24  C   UNK N   1      25.436  18.043   4.529  0.00  0.00     0.128 A 
HETATM   25  F   UNK N   1      24.721  16.999   5.015  0.00  0.00    -0.205 F 
HETATM   26  C   UNK N   1      24.765  19.006   3.765  0.00  0.00     0.085 A 
HETATM   27  C   UNK N   1      25.450  20.112   3.257  0.00  0.00     0.119 A 
HETATM   28  F   UNK N   1      24.788  21.050   2.540  0.00  0.00    -0.206 F 
HETATM   29  C   UNK N   1      26.814  20.255   3.498  0.00  0.00     0.043 A 
HETATM   30  C   UNK N   1      27.491  19.303   4.260  0.00  0.00     0.016 A 
ENDBRANCH   1  23
TORSDOF 6
ENDMDL
MODEL 8
REMARK VINA RESULT:      -5.9     10.116     12.380
REMARK  6 active torsions:
REMARK  status: ('A' for Active; 'I' for Inactive)
REMARK    1  A    between atoms: C_14  and  O_4 
REMARK    2  A    between atoms: N_5  and  C_16 
REMARK    3  A    between atoms: C_14  and  C_15 
REMARK    4  A    between atoms: C_14  and  C_16 
REMARK    5  A    between atoms: C_14  and  C_17 
REMARK    6  A    between atoms: C_15  and  C_19 
ROOT
HETATM    1  C   UNK N   1      21.498  13.796   7.540  0.00  0.00     0.114 C 
ENDROOT
BRANCH   1   2
HETATM    2  O   UNK N   1      20.180  13.393   7.782  0.00  0.00    -0.382 OA
HETATM    3  H   UNK N   1      19.584  13.687   8.490  0.00  0.00     0.211 HD
ENDBRANCH   1   2
BRANCH   1   4
HETATM    4  C   UNK N   1      21.534  15.352   7.544  0.00  0.00     0.075 C 
HETATM    5  C   UNK N   1      20.812  15.929   8.755  0.00  0.00     0.020 C 
BRANCH   4   6
HETATM    6  C   UNK N   1      21.003  15.965   6.273  0.00  0.00     0.057 A 
HETATM    7  N   UNK N   1      19.709  15.768   5.897  0.00  0.00    -0.353 N 
HETATM    8  C   UNK N   1      19.240  16.268   4.723  0.00  0.00     0.180 A 
ATOM      9  HN  UNK N   1      19.083  15.241   6.506  1.00  0.00     0.166 HD
HETATM   10  N   UNK N   1      20.061  16.978   3.904  0.00  0.00    -0.359 N 
HETATM   11  C   UNK N   1      21.354  17.210   4.248  0.00  0.00     0.133 A 
ATOM     12  HN  UNK N   1      19.702  17.340   3.021  1.00  0.00     0.166 HD
HETATM   13  C   UNK N   1      21.855  16.706   5.445  0.00  0.00     0.154 A 
HETATM   14  F   UNK N   1      23.145  16.937   5.794  0.00  0.00    -0.203 F 
ENDBRANCH   4   6
ENDBRANCH   1   4
BRANCH   1  15
HETATM   15  C   UNK N   1      21.865  13.216   6.154  0.00  0.00     0.193 C 
BRANCH  15  16
HETATM   16  N   UNK N   1      21.070  12.068   5.740  0.00  0.00    -0.284 N 
HETATM   17  N   UNK N   1      19.872  12.124   5.191  0.00  0.00    -0.293 N 
HETATM   18  C   UNK N   1      19.488  10.853   4.974  0.00  0.00     0.198 A 
ATOM     19  HN  UNK N   1      19.341  12.967   4.973  1.00  0.00     0.188 HD
HETATM   20  N   UNK N   1      20.442   9.992   5.392  0.00  0.00    -0.346 N 
HETATM   21  C   UNK N   1      21.422  10.783   5.871  0.00  0.00     0.201 A 
ATOM     22  HN  UNK N   1      20.423   8.973   5.354  1.00  0.00     0.167 HD
ENDBRANCH  15  16
ENDBRANCH   1  15
BRANCH   1  23
HETATM   23  C   UNK N   1      22.448  13.226   8.602  0.00  0.00     0.017 A 
HETATM   24  C   UNK N   1      23.842  13.489   8.617  0.00  0.00     0.128 A 
HETATM   25  F   UNK N   1      24.435  14.246   7.662  0.00  0.00    -0.205 F 
HETATM   26  C   UNK N   1      24.638  12.988   9.655  0.00  0.00     0.085 A 
HETATM   27  C   UNK N   1      24.074  12.220  10.675  0.00  0.00     0.119 A 
HETATM   28  F   UNK N   1      24.848  11.760  11.686  0.00  0.00    -0.206 F 
HETATM   29  C   UNK N   1      22.711  11.935  10.657  0.00  0.00     0.043 A 
HETATM   30  C   UNK N   1      21.909  12.431   9.631  0.00  0.00     0.016 A 
ENDBRANCH   1  23
TORSDOF 6
ENDMDL
MODEL 9
REMARK VINA RESULT:      -5.8      4.745      8.599
REMARK  6 active torsions:
REMARK  status: ('A' for Active; 'I' for Inactive)
REMARK    1  A    between atoms: C_14  and  O_4 
REMARK    2  A    between atoms: N_5  and  C_16 
REMARK    3  A    between atoms: C_14  and  C_15 
REMARK    4  A    between atoms: C_14  and  C_16 
REMARK    5  A    between atoms: C_14  and  C_17 
REMARK    6  A    between atoms: C_15  and  C_19 
ROOT
HETATM    1  C   UNK N   1      36.286  12.866  11.704  0.00  0.00     0.114 C 
ENDROOT
BRANCH   1   2
HETATM    2  O   UNK N   1      37.534  13.462  11.920  0.00  0.00    -0.382 OA
HETATM    3  H   UNK N   1      38.010  13.569  12.759  0.00  0.00     0.211 HD
ENDBRANCH   1   2
BRANCH   1   4
HETATM    4  C   UNK N   1      35.868  13.147  10.231  0.00  0.00     0.075 C 
HETATM    5  C   UNK N   1      37.016  12.895   9.261  0.00  0.00     0.020 C 
BRANCH   4   6
HETATM    6  C   UNK N   1      35.298  14.527  10.026  0.00  0.00     0.057 A 
HETATM    7  N   UNK N   1      35.967  15.626  10.471  0.00  0.00    -0.353 N 
HETATM    8  C   UNK N   1      35.430  16.869  10.342  0.00  0.00     0.180 A 
ATOM      9  HN  UNK N   1      36.883  15.516  10.906  1.00  0.00     0.166 HD
HETATM   10  N   UNK N   1      34.213  17.033   9.759  0.00  0.00    -0.359 N 
HETATM   11  C   UNK N   1      33.520  15.965   9.288  0.00  0.00     0.133 A 
ATOM     12  HN  UNK N   1      33.816  17.968   9.677  1.00  0.00     0.166 HD
HETATM   13  C   UNK N   1      34.049  14.684   9.412  0.00  0.00     0.154 A 
HETATM   14  F   UNK N   1      33.361  13.614   8.940  0.00  0.00    -0.203 F 
ENDBRANCH   4   6
ENDBRANCH   1   4
BRANCH   1  15
HETATM   15  C   UNK N   1      35.323  13.534  12.713  0.00  0.00     0.193 C 
BRANCH  15  16
HETATM   16  N   UNK N   1      35.915  13.856  14.004  0.00  0.00    -0.284 N 
HETATM   17  N   UNK N   1      36.784  14.821  14.229  0.00  0.00    -0.293 N 
HETATM   18  C   UNK N   1      37.085  14.773  15.539  0.00  0.00     0.198 A 
ATOM     19  HN  UNK N   1      37.156  15.478  13.542  1.00  0.00     0.188 HD
HETATM   20  N   UNK N   1      36.408  13.770  16.143  0.00  0.00    -0.346 N 
HETATM   21  C   UNK N   1      35.684  13.210  15.154  0.00  0.00     0.201 A 
ATOM     22  HN  UNK N   1      36.440  13.499  17.126  1.00  0.00     0.167 HD
ENDBRANCH  15  16
ENDBRANCH   1  15
BRANCH   1  23
HETATM   23  C   UNK N   1      36.347  11.357  11.975  0.00  0.00     0.017 A 
HETATM   24  C   UNK N   1      35.246  10.486  11.766  0.00  0.00     0.128 A 
HETATM   25  F   UNK N   1      34.045  10.946  11.337  0.00  0.00    -0.205 F 
HETATM   26  C   UNK N   1      35.392   9.109  11.973  0.00  0.00     0.085 A 
HETATM   27  C   UNK N   1      36.614   8.580  12.395  0.00  0.00     0.119 A 
HETATM   28  F   UNK N   1      36.752   7.245  12.569  0.00  0.00    -0.206 F 
HETATM   29  C   UNK N   1      37.695   9.428  12.627  0.00  0.00     0.043 A 
HETATM   30  C   UNK N   1      37.560  10.800  12.421  0.00  0.00     0.016 A 
ENDBRANCH   1  23
TORSDOF 6
ENDMDL
