REMARK  6 active torsions:
REMARK  status: ('A' for Active; 'I' for Inactive)
REMARK    1  A    between atoms: C_14  and  O_4 
REMARK    2  A    between atoms: N_5  and  C_16 
REMARK    3  A    between atoms: C_14  and  C_15 
REMARK    4  A    between atoms: C_14  and  C_16 
REMARK    5  A    between atoms: C_14  and  C_17 
REMARK    6  A    between atoms: C_15  and  C_19 
ROOT
HETATM    1  C   UNK N   1       3.114   0.155  -0.392  0.00  0.00     0.114 C 
ENDROOT
BRANCH   1   2
HETATM    2  O   UNK N   1       2.114   0.859  -1.072  0.00  0.00    -0.382 OA
HETATM    3  H   UNK N   1       2.191   1.704  -1.544  0.00  0.00     0.211 HD
ENDBRANCH   1   2
BRANCH   1   4
HETATM    4  C   UNK N   1       3.535   0.995   0.849  0.00  0.00     0.075 C 
HETATM    5  C   UNK N   1       2.332   1.386   1.699  0.00  0.00     0.020 C 
BRANCH   4   6
HETATM    6  C   UNK N   1       4.349   2.214   0.496  0.00  0.00     0.057 A 
HETATM    7  N   UNK N   1       3.898   3.104  -0.430  0.00  0.00    -0.353 N 
HETATM    8  C   UNK N   1       4.654   4.173  -0.796  0.00  0.00     0.180 A 
ATOM      9  HN  UNK N   1       2.980   2.968  -0.853  1.00  0.00     0.166 HD
HETATM   10  N   UNK N   1       5.877   4.371  -0.236  0.00  0.00    -0.359 N 
HETATM   11  C   UNK N   1       6.358   3.516   0.702  0.00  0.00     0.133 A 
ATOM     12  HN  UNK N   1       6.440   5.171  -0.525  1.00  0.00     0.166 HD
HETATM   13  C   UNK N   1       5.601   2.414   1.090  0.00  0.00     0.154 A 
HETATM   14  F   UNK N   1       6.077   1.558   2.029  0.00  0.00    -0.203 F 
ENDBRANCH   4   6
ENDBRANCH   1   4
BRANCH   1  15
HETATM   15  C   UNK N   1       4.276  -0.002  -1.401  0.00  0.00     0.193 C 
BRANCH  15  16
HETATM   16  N   UNK N   1       5.402  -0.791  -0.920  0.00  0.00    -0.284 N 
HETATM   17  N   UNK N   1       6.155  -0.496   0.121  0.00  0.00    -0.293 N 
HETATM   18  C   UNK N   1       7.081  -1.467   0.216  0.00  0.00     0.198 A 
ATOM     19  HN  UNK N   1       6.054   0.312   0.736  1.00  0.00     0.188 HD
HETATM   20  N   UNK N   1       6.917  -2.375  -0.772  0.00  0.00    -0.346 N 
HETATM   21  C   UNK N   1       5.857  -1.923  -1.471  0.00  0.00     0.201 A 
ATOM     22  HN  UNK N   1       7.471  -3.213  -0.948  1.00  0.00     0.167 HD
ENDBRANCH  15  16
ENDBRANCH   1  15
BRANCH   1  23
HETATM   23  C   UNK N   1       2.614  -1.232   0.033  0.00  0.00     0.017 A 
HETATM   24  C   UNK N   1       1.332  -1.734  -0.310  0.00  0.00     0.128 A 
HETATM   25  F   UNK N   1       0.444  -0.995  -1.019  0.00  0.00    -0.205 F 
HETATM   26  C   UNK N   1       0.967  -3.035   0.057  0.00  0.00     0.085 A 
HETATM   27  C   UNK N   1       1.852  -3.846   0.770  0.00  0.00     0.119 A 
HETATM   28  F   UNK N   1       1.499  -5.111   1.100  0.00  0.00    -0.206 F 
HETATM   29  C   UNK N   1       3.104  -3.356   1.134  0.00  0.00     0.043 A 
HETATM   30  C   UNK N   1       3.478  -2.063   0.771  0.00  0.00     0.016 A 
ENDBRANCH   1  23
TORSDOF 6
