MODEL 1
REMARK VINA RESULT:      -4.5      0.000      0.000
REMARK  5 active torsions:
REMARK  status: ('A' for Active; 'I' for Inactive)
REMARK    1  A    between atoms: C_6  and  O_1 
REMARK    2  A    between atoms: N_4  and  C_5 
REMARK    3  A    between atoms: C_5  and  C_6 
REMARK    4  A    between atoms: C_6  and  C_10 
REMARK    5  A    between atoms: C_10  and  C_11 
ROOT
HETATM    1  C   UNK N   1      34.713  16.605   9.941  0.00  0.00     0.154 C 
ENDROOT
BRANCH   1   2
HETATM    2  O   UNK N   1      35.699  17.498  10.367  0.00  0.00    -0.393 OA
HETATM    3  H   UNK N   1      35.701  18.420  10.066  0.00  0.00     0.210 HD
ENDBRANCH   1   2
BRANCH   1   4
HETATM    4  C   UNK N   1      35.383  15.402   9.271  0.00  0.00     0.268 C 
BRANCH   4   5
HETATM    5  N   UNK N   1      35.513  14.224  10.136  0.00  0.00    -0.076 N 
HETATM    6  C   UNK N   1      35.075  13.064   9.382  0.00  0.00     0.271 C 
HETATM    7  C   UNK N   1      34.653  14.359  11.301  0.00  0.00     0.271 C 
HETATM    8  C   UNK N   1      36.883  13.987  10.568  0.00  0.00     0.271 C 
ENDBRANCH   4   5
ENDBRANCH   1   4
BRANCH   1   9
HETATM    9  C   UNK N   1      33.797  17.282   8.923  0.00  0.00     0.146 C 
BRANCH   9  10
HETATM   10  C   UNK N   1      34.494  18.222   7.977  0.00  0.00     0.175 C 
HETATM   11  O   UNK N   1      34.494  17.949   6.659  0.00  0.00    -0.648 OA
HETATM   12  O   UNK N   1      35.066  19.220   8.385  0.00  0.00    -0.648 OA
ENDBRANCH   9  10
ENDBRANCH   1   9
TORSDOF 5
ENDMDL
MODEL 2
REMARK VINA RESULT:      -4.2      3.519      4.939
REMARK  5 active torsions:
REMARK  status: ('A' for Active; 'I' for Inactive)
REMARK    1  A    between atoms: C_6  and  O_1 
REMARK    2  A    between atoms: N_4  and  C_5 
REMARK    3  A    between atoms: C_5  and  C_6 
REMARK    4  A    between atoms: C_6  and  C_10 
REMARK    5  A    between atoms: C_10  and  C_11 
ROOT
HETATM    1  C   UNK N   1      31.949  17.641   8.174  0.00  0.00     0.154 C 
ENDROOT
BRANCH   1   2
HETATM    2  O   UNK N   1      31.106  18.118   9.180  0.00  0.00    -0.393 OA
HETATM    3  H   UNK N   1      31.361  18.059  10.115  0.00  0.00     0.210 HD
ENDBRANCH   1   2
BRANCH   1   4
HETATM    4  C   UNK N   1      31.466  16.257   7.732  0.00  0.00     0.268 C 
BRANCH   4   5
HETATM    5  N   UNK N   1      30.763  16.245   6.445  0.00  0.00    -0.076 N 
HETATM    6  C   UNK N   1      30.831  14.898   5.909  0.00  0.00     0.271 C 
HETATM    7  C   UNK N   1      31.420  17.139   5.505  0.00  0.00     0.271 C 
HETATM    8  C   UNK N   1      29.358  16.611   6.562  0.00  0.00     0.271 C 
ENDBRANCH   4   5
ENDBRANCH   1   4
BRANCH   1   9
HETATM    9  C   UNK N   1      33.376  17.514   8.701  0.00  0.00     0.146 C 
BRANCH   9  10
HETATM   10  C   UNK N   1      34.413  18.246   7.893  0.00  0.00     0.175 C 
HETATM   11  O   UNK N   1      35.220  19.132   8.507  0.00  0.00    -0.648 OA
HETATM   12  O   UNK N   1      34.527  18.059   6.692  0.00  0.00    -0.648 OA
ENDBRANCH   9  10
ENDBRANCH   1   9
TORSDOF 5
ENDMDL
MODEL 3
REMARK VINA RESULT:      -4.1     15.080     16.362
REMARK  5 active torsions:
REMARK  status: ('A' for Active; 'I' for Inactive)
REMARK    1  A    between atoms: C_6  and  O_1 
REMARK    2  A    between atoms: N_4  and  C_5 
REMARK    3  A    between atoms: C_5  and  C_6 
REMARK    4  A    between atoms: C_6  and  C_10 
REMARK    5  A    between atoms: C_10  and  C_11 
ROOT
HETATM    1  C   UNK N   1      19.642  18.689   2.482  0.00  0.00     0.154 C 
ENDROOT
BRANCH   1   2
HETATM    2  O   UNK N   1      18.261  18.869   2.367  0.00  0.00    -0.393 OA
HETATM    3  H   UNK N   1      17.870  19.757   2.389  0.00  0.00     0.210 HD
ENDBRANCH   1   2
BRANCH   1   4
HETATM    4  C   UNK N   1      19.916  17.514   3.424  0.00  0.00     0.268 C 
BRANCH   4   5
HETATM    5  N   UNK N   1      20.519  16.345   2.773  0.00  0.00    -0.076 N 
HETATM    6  C   UNK N   1      19.814  15.163   3.232  0.00  0.00     0.271 C 
HETATM    7  C   UNK N   1      21.915  16.219   3.161  0.00  0.00     0.271 C 
HETATM    8  C   UNK N   1      20.421  16.392   1.321  0.00  0.00     0.271 C 
ENDBRANCH   4   5
ENDBRANCH   1   4
BRANCH   1   9
HETATM    9  C   UNK N   1      20.287  19.943   3.067  0.00  0.00     0.146 C 
BRANCH   9  10
HETATM   10  C   UNK N   1      21.333  20.579   2.191  0.00  0.00     0.175 C 
HETATM   11  O   UNK N   1      22.294  21.334   2.756  0.00  0.00    -0.648 OA
HETATM   12  O   UNK N   1      21.318  20.430   0.979  0.00  0.00    -0.648 OA
ENDBRANCH   9  10
ENDBRANCH   1   9
TORSDOF 5
ENDMDL
MODEL 4
REMARK VINA RESULT:      -4.1      1.452      2.214
REMARK  5 active torsions:
REMARK  status: ('A' for Active; 'I' for Inactive)
REMARK    1  A    between atoms: C_6  and  O_1 
REMARK    2  A    between atoms: N_4  and  C_5 
REMARK    3  A    between atoms: C_5  and  C_6 
REMARK    4  A    between atoms: C_6  and  C_10 
REMARK    5  A    between atoms: C_10  and  C_11 
ROOT
HETATM    1  C   UNK N   1      33.364  16.185   8.955  0.00  0.00     0.154 C 
ENDROOT
BRANCH   1   2
HETATM    2  O   UNK N   1      32.172  15.717   9.514  0.00  0.00    -0.393 OA
HETATM    3  H   UNK N   1      31.737  14.922   9.167  0.00  0.00     0.210 HD
ENDBRANCH   1   2
BRANCH   1   4
HETATM    4  C   UNK N   1      34.509  15.934   9.939  0.00  0.00     0.268 C 
BRANCH   4   5
HETATM    5  N   UNK N   1      35.337  14.765   9.618  0.00  0.00    -0.076 N 
HETATM    6  C   UNK N   1      36.646  14.967  10.210  0.00  0.00     0.271 C 
HETATM    7  C   UNK N   1      35.504  14.649   8.178  0.00  0.00     0.271 C 
HETATM    8  C   UNK N   1      34.793  13.522  10.146  0.00  0.00     0.271 C 
ENDBRANCH   4   5
ENDBRANCH   1   4
BRANCH   1   9
HETATM    9  C   UNK N   1      33.267  17.686   8.693  0.00  0.00     0.146 C 
BRANCH   9  10
HETATM   10  C   UNK N   1      34.405  18.259   7.891  0.00  0.00     0.175 C 
HETATM   11  O   UNK N   1      35.233  19.150   8.468  0.00  0.00    -0.648 OA
HETATM   12  O   UNK N   1      34.582  17.938   6.727  0.00  0.00    -0.648 OA
ENDBRANCH   9  10
ENDBRANCH   1   9
TORSDOF 5
ENDMDL
MODEL 5
REMARK VINA RESULT:      -4.0      2.129      3.110
REMARK  5 active torsions:
REMARK  status: ('A' for Active; 'I' for Inactive)
REMARK    1  A    between atoms: C_6  and  O_1 
REMARK    2  A    between atoms: N_4  and  C_5 
REMARK    3  A    between atoms: C_5  and  C_6 
REMARK    4  A    between atoms: C_6  and  C_10 
REMARK    5  A    between atoms: C_10  and  C_11 
ROOT
HETATM    1  C   UNK N   1      34.660  14.534  10.961  0.00  0.00     0.154 C 
ENDROOT
BRANCH   1   2
HETATM    2  O   UNK N   1      33.363  14.999  11.188  0.00  0.00    -0.393 OA
HETATM    3  H   UNK N   1      33.084  15.289  12.071  0.00  0.00     0.210 HD
ENDBRANCH   1   2
BRANCH   1   4
HETATM    4  C   UNK N   1      35.491  14.733  12.231  0.00  0.00     0.268 C 
BRANCH   4   5
HETATM    5  N   UNK N   1      35.979  13.487  12.836  0.00  0.00    -0.076 N 
HETATM    6  C   UNK N   1      36.464  13.796  14.168  0.00  0.00     0.271 C 
HETATM    7  C   UNK N   1      37.090  12.955  12.062  0.00  0.00     0.271 C 
HETATM    8  C   UNK N   1      34.942  12.473  12.959  0.00  0.00     0.271 C 
ENDBRANCH   4   5
ENDBRANCH   1   4
BRANCH   1   9
HETATM    9  C   UNK N   1      35.309  15.321   9.826  0.00  0.00     0.146 C 
BRANCH   9  10
HETATM   10  C   UNK N   1      34.894  16.765   9.743  0.00  0.00     0.175 C 
HETATM   11  O   UNK N   1      33.753  17.085   9.104  0.00  0.00    -0.648 OA
HETATM   12  O   UNK N   1      35.576  17.649  10.236  0.00  0.00    -0.648 OA
ENDBRANCH   9  10
ENDBRANCH   1   9
TORSDOF 5
ENDMDL
MODEL 6
REMARK VINA RESULT:      -4.0      3.334      4.709
REMARK  5 active torsions:
REMARK  status: ('A' for Active; 'I' for Inactive)
REMARK    1  A    between atoms: C_6  and  O_1 
REMARK    2  A    between atoms: N_4  and  C_5 
REMARK    3  A    between atoms: C_5  and  C_6 
REMARK    4  A    between atoms: C_6  and  C_10 
REMARK    5  A    between atoms: C_10  and  C_11 
ROOT
HETATM    1  C   UNK N   1      33.431  17.150   6.846  0.00  0.00     0.154 C 
ENDROOT
BRANCH   1   2
HETATM    2  O   UNK N   1      34.304  17.872   6.030  0.00  0.00    -0.393 OA
HETATM    3  H   UNK N   1      35.165  17.505   5.773  0.00  0.00     0.210 HD
ENDBRANCH   1   2
BRANCH   1   4
HETATM    4  C   UNK N   1      32.030  17.179   6.228  0.00  0.00     0.268 C 
BRANCH   4   5
HETATM    5  N   UNK N   1      31.602  15.903   5.643  0.00  0.00    -0.076 N 
HETATM    6  C   UNK N   1      31.650  16.033   4.198  0.00  0.00     0.271 C 
HETATM    7  C   UNK N   1      30.230  15.610   6.026  0.00  0.00     0.271 C 
HETATM    8  C   UNK N   1      32.460  14.789   6.022  0.00  0.00     0.271 C 
ENDBRANCH   4   5
ENDBRANCH   1   4
BRANCH   1   9
HETATM    9  C   UNK N   1      33.363  17.784   8.234  0.00  0.00     0.146 C 
BRANCH   9  10
HETATM   10  C   UNK N   1      34.695  18.192   8.804  0.00  0.00     0.175 C 
HETATM   11  O   UNK N   1      35.246  17.450   9.782  0.00  0.00    -0.648 OA
HETATM   12  O   UNK N   1      35.276  19.187   8.402  0.00  0.00    -0.648 OA
ENDBRANCH   9  10
ENDBRANCH   1   9
TORSDOF 5
ENDMDL
MODEL 7
REMARK VINA RESULT:      -3.9      4.017      5.265
REMARK  5 active torsions:
REMARK  status: ('A' for Active; 'I' for Inactive)
REMARK    1  A    between atoms: C_6  and  O_1 
REMARK    2  A    between atoms: N_4  and  C_5 
REMARK    3  A    between atoms: C_5  and  C_6 
REMARK    4  A    between atoms: C_6  and  C_10 
REMARK    5  A    between atoms: C_10  and  C_11 
ROOT
HETATM    1  C   UNK N   1      32.034  17.583   8.403  0.00  0.00     0.154 C 
ENDROOT
BRANCH   1   2
HETATM    2  O   UNK N   1      32.927  17.023   9.320  0.00  0.00    -0.393 OA
HETATM    3  H   UNK N   1      32.607  16.492  10.067  0.00  0.00     0.210 HD
ENDBRANCH   1   2
BRANCH   1   4
HETATM    4  C   UNK N   1      30.679  16.882   8.533  0.00  0.00     0.268 C 
BRANCH   4   5
HETATM    5  N   UNK N   1      29.546  17.792   8.743  0.00  0.00    -0.076 N 
HETATM    6  C   UNK N   1      30.058  19.016   9.331  0.00  0.00     0.271 C 
HETATM    7  C   UNK N   1      28.596  17.204   9.674  0.00  0.00     0.271 C 
HETATM    8  C   UNK N   1      28.862  18.140   7.506  0.00  0.00     0.271 C 
ENDBRANCH   4   5
ENDBRANCH   1   4
BRANCH   1   9
HETATM    9  C   UNK N   1      32.550  17.385   6.980  0.00  0.00     0.146 C 
BRANCH   9  10
HETATM   10  C   UNK N   1      34.043  17.508   6.829  0.00  0.00     0.175 C 
HETATM   11  O   UNK N   1      34.696  16.644   6.030  0.00  0.00    -0.648 OA
HETATM   12  O   UNK N   1      34.670  18.369   7.426  0.00  0.00    -0.648 OA
ENDBRANCH   9  10
ENDBRANCH   1   9
TORSDOF 5
ENDMDL
MODEL 8
REMARK VINA RESULT:      -3.9     14.033     14.778
REMARK  5 active torsions:
REMARK  status: ('A' for Active; 'I' for Inactive)
REMARK    1  A    between atoms: C_6  and  O_1 
REMARK    2  A    between atoms: N_4  and  C_5 
REMARK    3  A    between atoms: C_5  and  C_6 
REMARK    4  A    between atoms: C_6  and  C_10 
REMARK    5  A    between atoms: C_10  and  C_11 
ROOT
HETATM    1  C   UNK N   1      32.022  21.269  -3.341  0.00  0.00     0.154 C 
ENDROOT
BRANCH   1   2
HETATM    2  O   UNK N   1      32.498  21.328  -2.029  0.00  0.00    -0.393 OA
HETATM    3  H   UNK N   1      32.861  20.539  -1.594  0.00  0.00     0.210 HD
ENDBRANCH   1   2
BRANCH   1   4
HETATM    4  C   UNK N   1      33.044  21.927  -4.273  0.00  0.00     0.268 C 
BRANCH   4   5
HETATM    5  N   UNK N   1      33.922  20.980  -4.970  0.00  0.00    -0.076 N 
HETATM    6  C   UNK N   1      35.186  20.934  -4.258  0.00  0.00     0.271 C 
HETATM    7  C   UNK N   1      34.182  21.440  -6.325  0.00  0.00     0.271 C 
HETATM    8  C   UNK N   1      33.381  19.629  -5.011  0.00  0.00     0.271 C 
ENDBRANCH   4   5
ENDBRANCH   1   4
BRANCH   1   9
HETATM    9  C   UNK N   1      30.702  22.027  -3.454  0.00  0.00     0.146 C 
BRANCH   9  10
HETATM   10  C   UNK N   1      30.550  23.175  -2.493  0.00  0.00     0.175 C 
HETATM   11  O   UNK N   1      30.675  24.435  -2.949  0.00  0.00    -0.648 OA
HETATM   12  O   UNK N   1      30.327  22.982  -1.308  0.00  0.00    -0.648 OA
ENDBRANCH   9  10
ENDBRANCH   1   9
TORSDOF 5
ENDMDL
MODEL 9
REMARK VINA RESULT:      -3.8     13.994     14.995
REMARK  5 active torsions:
REMARK  status: ('A' for Active; 'I' for Inactive)
REMARK    1  A    between atoms: C_6  and  O_1 
REMARK    2  A    between atoms: N_4  and  C_5 
REMARK    3  A    between atoms: C_5  and  C_6 
REMARK    4  A    between atoms: C_6  and  C_10 
REMARK    5  A    between atoms: C_10  and  C_11 
ROOT
HETATM    1  C   UNK N   1      21.516  19.049   3.519  0.00  0.00     0.154 C 
ENDROOT
BRANCH   1   2
HETATM    2  O   UNK N   1      20.788  19.991   4.249  0.00  0.00    -0.393 OA
HETATM    3  H   UNK N   1      19.818  20.008   4.214  0.00  0.00     0.210 HD
ENDBRANCH   1   2
BRANCH   1   4
HETATM    4  C   UNK N   1      21.309  17.665   4.141  0.00  0.00     0.268 C 
BRANCH   4   5
HETATM    5  N   UNK N   1      20.850  16.640   3.197  0.00  0.00    -0.076 N 
HETATM    6  C   UNK N   1      20.310  17.316   2.031  0.00  0.00     0.271 C 
HETATM    7  C   UNK N   1      19.787  15.847   3.793  0.00  0.00     0.271 C 
HETATM    8  C   UNK N   1      21.920  15.761   2.750  0.00  0.00     0.271 C 
ENDBRANCH   4   5
ENDBRANCH   1   4
BRANCH   1   9
HETATM    9  C   UNK N   1      23.004  19.386   3.565  0.00  0.00     0.146 C 
BRANCH   9  10
HETATM   10  C   UNK N   1      23.387  20.645   2.836  0.00  0.00     0.175 C 
HETATM   11  O   UNK N   1      22.539  21.691   2.839  0.00  0.00    -0.648 OA
HETATM   12  O   UNK N   1      24.446  20.731   2.235  0.00  0.00    -0.648 OA
ENDBRANCH   9  10
ENDBRANCH   1   9
TORSDOF 5
ENDMDL
