MODEL 1
REMARK VINA RESULT:      -6.2      0.000      0.000
REMARK  5 active torsions:
REMARK  status: ('A' for Active; 'I' for Inactive)
REMARK    1  A    between atoms: O_3  and  C_16 
REMARK    2  A    between atoms: N_5  and  C_7 
REMARK    3  A    between atoms: N_5  and  C_9 
REMARK    4  A    between atoms: C_6  and  C_8 
REMARK    5  A    between atoms: C_8  and  C_16 
ROOT
HETATM    1  C   UNK N   1      28.242  18.951   6.938  0.00  0.00    -0.022 A 
HETATM    2  C   UNK N   1      28.597  18.420   5.680  0.00  0.00     0.039 A 
HETATM    3  C   UNK N   1      27.489  20.132   7.003  0.00  0.00     0.010 A 
HETATM    4  C   UNK N   1      28.136  19.051   4.513  0.00  0.00     0.030 A 
HETATM    5  C   UNK N   1      27.064  20.768   5.836  0.00  0.00     0.001 A 
HETATM    6  C   UNK N   1      27.377  20.222   4.592  0.00  0.00     0.002 A 
ENDROOT
BRANCH   2   7
HETATM    7  N   UNK N   1      29.393  17.238   5.607  0.00  0.00    -0.353 N 
HETATM    8  H   UNK N   1      29.022  16.430   6.029  0.00  0.00     0.166 HD
BRANCH   7   9
HETATM    9  C   UNK N   1      30.674  17.104   4.986  0.00  0.00     0.076 A 
HETATM   10  C   UNK N   1      31.902  17.312   5.680  0.00  0.00     0.062 A 
HETATM   11 Cl   UNK N   1      32.004  17.678   7.397  0.00  0.00    -0.082 Cl
HETATM   12  C   UNK N   1      33.116  17.140   5.007  0.00  0.00     0.026 A 
HETATM   13  C   UNK N   1      33.142  16.762   3.667  0.00  0.00     0.003 A 
HETATM   14  C   UNK N   1      31.949  16.524   2.991  0.00  0.00     0.026 A 
HETATM   15  C   UNK N   1      30.724  16.687   3.640  0.00  0.00     0.062 A 
HETATM   16 Cl   UNK N   1      29.250  16.353   2.744  0.00  0.00    -0.082 Cl
ENDBRANCH   7   9
ENDBRANCH   2   7
BRANCH   1  17
HETATM   17  C   UNK N   1      28.691  18.288   8.210  0.00  0.00     0.150 C 
BRANCH  17  18
HETATM   18  C   UNK N   1      27.746  17.215   8.668  0.00  0.00     0.143 C 
HETATM   19  O   UNK N   1      27.684  16.915   9.850  0.00  0.00    -0.650 OA
BRANCH  18  20
HETATM   20  O   UNK N   1      26.996  16.549   7.770  0.00  0.00    -0.776 OA
HETATM   21  H   UNK N   1      26.634  15.687   7.831  0.00  0.00     0.167 HD
ENDBRANCH  18  20
ENDBRANCH  17  18
ENDBRANCH   1  17
TORSDOF 5
ENDMDL
MODEL 2
REMARK VINA RESULT:      -6.2     11.352     13.377
REMARK  5 active torsions:
REMARK  status: ('A' for Active; 'I' for Inactive)
REMARK    1  A    between atoms: O_3  and  C_16 
REMARK    2  A    between atoms: N_5  and  C_7 
REMARK    3  A    between atoms: N_5  and  C_9 
REMARK    4  A    between atoms: C_6  and  C_8 
REMARK    5  A    between atoms: C_8  and  C_16 
ROOT
HETATM    1  C   UNK N   1      30.300  24.427  -4.002  0.00  0.00    -0.022 A 
HETATM    2  C   UNK N   1      29.480  25.574  -4.029  0.00  0.00     0.039 A 
HETATM    3  C   UNK N   1      31.639  24.521  -4.410  0.00  0.00     0.010 A 
HETATM    4  C   UNK N   1      30.037  26.807  -4.408  0.00  0.00     0.030 A 
HETATM    5  C   UNK N   1      32.172  25.746  -4.815  0.00  0.00     0.001 A 
HETATM    6  C   UNK N   1      31.375  26.891  -4.803  0.00  0.00     0.002 A 
ENDROOT
BRANCH   2   7
HETATM    7  N   UNK N   1      28.109  25.476  -3.649  0.00  0.00    -0.353 N 
HETATM    8  H   UNK N   1      27.912  24.950  -2.841  0.00  0.00     0.166 HD
BRANCH   7   9
HETATM    9  C   UNK N   1      26.990  26.063  -4.318  0.00  0.00     0.076 A 
HETATM   10  C   UNK N   1      26.478  27.354  -3.995  0.00  0.00     0.062 A 
HETATM   11 Cl   UNK N   1      27.202  28.419  -2.798  0.00  0.00    -0.082 Cl
HETATM   12  C   UNK N   1      25.392  27.868  -4.711  0.00  0.00     0.026 A 
HETATM   13  C   UNK N   1      24.805  27.138  -5.741  0.00  0.00     0.003 A 
HETATM   14  C   UNK N   1      25.319  25.890  -6.086  0.00  0.00     0.026 A 
HETATM   15  C   UNK N   1      26.404  25.355  -5.388  0.00  0.00     0.062 A 
HETATM   16 Cl   UNK N   1      27.024  23.787  -5.879  0.00  0.00    -0.082 Cl
ENDBRANCH   7   9
ENDBRANCH   2   7
BRANCH   1  17
HETATM   17  C   UNK N   1      29.749  23.095  -3.575  0.00  0.00     0.150 C 
BRANCH  17  18
HETATM   18  C   UNK N   1      29.494  23.021  -2.097  0.00  0.00     0.143 C 
HETATM   19  O   UNK N   1      30.429  22.947  -1.316  0.00  0.00    -0.650 OA
BRANCH  18  20
HETATM   20  O   UNK N   1      28.232  22.992  -1.632  0.00  0.00    -0.776 OA
HETATM   21  H   UNK N   1      27.733  22.258  -1.331  0.00  0.00     0.167 HD
ENDBRANCH  18  20
ENDBRANCH  17  18
ENDBRANCH   1  17
TORSDOF 5
ENDMDL
MODEL 3
REMARK VINA RESULT:      -6.1     11.359     13.495
REMARK  5 active torsions:
REMARK  status: ('A' for Active; 'I' for Inactive)
REMARK    1  A    between atoms: O_3  and  C_16 
REMARK    2  A    between atoms: N_5  and  C_7 
REMARK    3  A    between atoms: N_5  and  C_9 
REMARK    4  A    between atoms: C_6  and  C_8 
REMARK    5  A    between atoms: C_8  and  C_16 
ROOT
HETATM    1  C   UNK N   1      30.314  24.487  -3.993  0.00  0.00    -0.022 A 
HETATM    2  C   UNK N   1      29.545  25.670  -3.993  0.00  0.00     0.039 A 
HETATM    3  C   UNK N   1      31.656  24.534  -4.400  0.00  0.00     0.010 A 
HETATM    4  C   UNK N   1      30.156  26.886  -4.341  0.00  0.00     0.030 A 
HETATM    5  C   UNK N   1      32.242  25.743  -4.774  0.00  0.00     0.001 A 
HETATM    6  C   UNK N   1      31.497  26.921  -4.734  0.00  0.00     0.002 A 
ENDROOT
BRANCH   2   7
HETATM    7  N   UNK N   1      28.170  25.623  -3.615  0.00  0.00    -0.353 N 
HETATM    8  H   UNK N   1      27.968  25.228  -2.737  0.00  0.00     0.166 HD
BRANCH   7   9
HETATM    9  C   UNK N   1      27.055  26.090  -4.378  0.00  0.00     0.076 A 
HETATM   10  C   UNK N   1      26.432  25.317  -5.402  0.00  0.00     0.062 A 
HETATM   11 Cl   UNK N   1      26.900  23.669  -5.801  0.00  0.00    -0.082 Cl
HETATM   12  C   UNK N   1      25.331  25.835  -6.089  0.00  0.00     0.026 A 
HETATM   13  C   UNK N   1      24.828  27.097  -5.783  0.00  0.00     0.003 A 
HETATM   14  C   UNK N   1      25.408  27.846  -4.763  0.00  0.00     0.026 A 
HETATM   15  C   UNK N   1      26.508  27.350  -4.060  0.00  0.00     0.062 A 
HETATM   16 Cl   UNK N   1      27.186  28.328  -2.768  0.00  0.00    -0.082 Cl
ENDBRANCH   7   9
ENDBRANCH   2   7
BRANCH   1  17
HETATM   17  C   UNK N   1      29.705  23.171  -3.600  0.00  0.00     0.150 C 
BRANCH  17  18
HETATM   18  C   UNK N   1      29.472  23.061  -2.120  0.00  0.00     0.143 C 
HETATM   19  O   UNK N   1      30.419  22.957  -1.356  0.00  0.00    -0.650 OA
BRANCH  18  20
HETATM   20  O   UNK N   1      28.217  23.031  -1.636  0.00  0.00    -0.776 OA
HETATM   21  H   UNK N   1      27.631  22.303  -1.564  0.00  0.00     0.167 HD
ENDBRANCH  18  20
ENDBRANCH  17  18
ENDBRANCH   1  17
TORSDOF 5
ENDMDL
MODEL 4
REMARK VINA RESULT:      -6.1      2.234      4.639
REMARK  5 active torsions:
REMARK  status: ('A' for Active; 'I' for Inactive)
REMARK    1  A    between atoms: O_3  and  C_16 
REMARK    2  A    between atoms: N_5  and  C_7 
REMARK    3  A    between atoms: N_5  and  C_9 
REMARK    4  A    between atoms: C_6  and  C_8 
REMARK    5  A    between atoms: C_8  and  C_16 
ROOT
HETATM    1  C   UNK N   1      29.910  17.895   7.880  0.00  0.00    -0.022 A 
HETATM    2  C   UNK N   1      29.146  17.767   6.702  0.00  0.00     0.039 A 
HETATM    3  C   UNK N   1      31.273  17.563   7.862  0.00  0.00     0.010 A 
HETATM    4  C   UNK N   1      29.778  17.368   5.513  0.00  0.00     0.030 A 
HETATM    5  C   UNK N   1      31.883  17.136   6.682  0.00  0.00     0.001 A 
HETATM    6  C   UNK N   1      31.139  17.049   5.505  0.00  0.00     0.002 A 
ENDROOT
BRANCH   2   7
HETATM    7  N   UNK N   1      27.751  18.069   6.723  0.00  0.00    -0.353 N 
HETATM    8  H   UNK N   1      27.280  17.917   7.574  0.00  0.00     0.166 HD
BRANCH   7   9
HETATM    9  C   UNK N   1      26.966  18.571   5.640  0.00  0.00     0.076 A 
HETATM   10  C   UNK N   1      26.857  19.959   5.333  0.00  0.00     0.062 A 
HETATM   11 Cl   UNK N   1      27.734  21.220   6.191  0.00  0.00    -0.082 Cl
HETATM   12  C   UNK N   1      26.086  20.370   4.242  0.00  0.00     0.026 A 
HETATM   13  C   UNK N   1      25.424  19.440   3.444  0.00  0.00     0.003 A 
HETATM   14  C   UNK N   1      25.551  18.080   3.715  0.00  0.00     0.026 A 
HETATM   15  C   UNK N   1      26.317  17.643   4.798  0.00  0.00     0.062 A 
HETATM   16 Cl   UNK N   1      26.460  15.916   5.081  0.00  0.00    -0.082 Cl
ENDBRANCH   7   9
ENDBRANCH   2   7
BRANCH   1  17
HETATM   17  C   UNK N   1      29.276  18.347   9.166  0.00  0.00     0.150 C 
BRANCH  17  18
HETATM   18  C   UNK N   1      28.722  17.206   9.971  0.00  0.00     0.143 C 
HETATM   19  O   UNK N   1      27.578  16.823   9.786  0.00  0.00    -0.650 OA
BRANCH  18  20
HETATM   20  O   UNK N   1      29.472  16.632  10.929  0.00  0.00    -0.776 OA
HETATM   21  H   UNK N   1      30.402  16.520  10.960  0.00  0.00     0.167 HD
ENDBRANCH  18  20
ENDBRANCH  17  18
ENDBRANCH   1  17
TORSDOF 5
ENDMDL
MODEL 5
REMARK VINA RESULT:      -6.1      2.208      4.847
REMARK  5 active torsions:
REMARK  status: ('A' for Active; 'I' for Inactive)
REMARK    1  A    between atoms: O_3  and  C_16 
REMARK    2  A    between atoms: N_5  and  C_7 
REMARK    3  A    between atoms: N_5  and  C_9 
REMARK    4  A    between atoms: C_6  and  C_8 
REMARK    5  A    between atoms: C_8  and  C_16 
ROOT
HETATM    1  C   UNK N   1      30.108  17.892   7.944  0.00  0.00    -0.022 A 
HETATM    2  C   UNK N   1      29.365  17.821   6.747  0.00  0.00     0.039 A 
HETATM    3  C   UNK N   1      31.454  17.497   7.948  0.00  0.00     0.010 A 
HETATM    4  C   UNK N   1      30.004  17.412   5.565  0.00  0.00     0.030 A 
HETATM    5  C   UNK N   1      32.069  17.062   6.774  0.00  0.00     0.001 A 
HETATM    6  C   UNK N   1      31.348  17.030   5.580  0.00  0.00     0.002 A 
ENDROOT
BRANCH   2   7
HETATM    7  N   UNK N   1      27.986  18.188   6.745  0.00  0.00    -0.353 N 
HETATM    8  H   UNK N   1      27.531  18.199   7.618  0.00  0.00     0.166 HD
BRANCH   7   9
HETATM    9  C   UNK N   1      27.195  18.542   5.608  0.00  0.00     0.076 A 
HETATM   10  C   UNK N   1      26.541  17.580   4.783  0.00  0.00     0.062 A 
HETATM   11 Cl   UNK N   1      26.556  15.850   5.102  0.00  0.00    -0.082 Cl
HETATM   12  C   UNK N   1      25.766  18.007   3.701  0.00  0.00     0.026 A 
HETATM   13  C   UNK N   1      25.618  19.363   3.419  0.00  0.00     0.003 A 
HETATM   14  C   UNK N   1      26.225  20.311   4.239  0.00  0.00     0.026 A 
HETATM   15  C   UNK N   1      27.003  19.911   5.327  0.00  0.00     0.062 A 
HETATM   16 Cl   UNK N   1      27.727  21.149   6.339  0.00  0.00    -0.082 Cl
ENDBRANCH   7   9
ENDBRANCH   2   7
BRANCH   1  17
HETATM   17  C   UNK N   1      29.468  18.352   9.224  0.00  0.00     0.150 C 
BRANCH  17  18
HETATM   18  C   UNK N   1      28.804  17.232   9.973  0.00  0.00     0.143 C 
HETATM   19  O   UNK N   1      27.642  16.942   9.740  0.00  0.00    -0.650 OA
BRANCH  18  20
HETATM   20  O   UNK N   1      29.477  16.575  10.935  0.00  0.00    -0.776 OA
HETATM   21  H   UNK N   1      29.313  15.722  11.289  0.00  0.00     0.167 HD
ENDBRANCH  18  20
ENDBRANCH  17  18
ENDBRANCH   1  17
TORSDOF 5
ENDMDL
MODEL 6
REMARK VINA RESULT:      -6.0      0.140      2.125
REMARK  5 active torsions:
REMARK  status: ('A' for Active; 'I' for Inactive)
REMARK    1  A    between atoms: O_3  and  C_16 
REMARK    2  A    between atoms: N_5  and  C_7 
REMARK    3  A    between atoms: N_5  and  C_9 
REMARK    4  A    between atoms: C_6  and  C_8 
REMARK    5  A    between atoms: C_8  and  C_16 
ROOT
HETATM    1  C   UNK N   1      28.294  18.911   7.025  0.00  0.00    -0.022 A 
HETATM    2  C   UNK N   1      28.724  18.358   5.800  0.00  0.00     0.039 A 
HETATM    3  C   UNK N   1      27.529  20.087   7.024  0.00  0.00     0.010 A 
HETATM    4  C   UNK N   1      28.325  18.962   4.597  0.00  0.00     0.030 A 
HETATM    5  C   UNK N   1      27.166  20.695   5.822  0.00  0.00     0.001 A 
HETATM    6  C   UNK N   1      27.554  20.128   4.608  0.00  0.00     0.002 A 
ENDROOT
BRANCH   2   7
HETATM    7  N   UNK N   1      29.532  17.182   5.797  0.00  0.00    -0.353 N 
HETATM    8  H   UNK N   1      29.222  16.433   6.355  0.00  0.00     0.166 HD
BRANCH   7   9
HETATM    9  C   UNK N   1      30.744  16.977   5.068  0.00  0.00     0.076 A 
HETATM   10  C   UNK N   1      30.773  16.598   3.694  0.00  0.00     0.062 A 
HETATM   11 Cl   UNK N   1      29.332  16.413   2.702  0.00  0.00    -0.082 Cl
HETATM   12  C   UNK N   1      32.000  16.437   3.044  0.00  0.00     0.026 A 
HETATM   13  C   UNK N   1      33.199  16.649   3.721  0.00  0.00     0.003 A 
HETATM   14  C   UNK N   1      33.181  17.053   5.053  0.00  0.00     0.026 A 
HETATM   15  C   UNK N   1      31.969  17.222   5.724  0.00  0.00     0.062 A 
HETATM   16 Cl   UNK N   1      32.004  17.752   7.398  0.00  0.00    -0.082 Cl
ENDBRANCH   7   9
ENDBRANCH   2   7
BRANCH   1  17
HETATM   17  C   UNK N   1      28.675  18.277   8.334  0.00  0.00     0.150 C 
BRANCH  17  18
HETATM   18  C   UNK N   1      27.728  17.187   8.746  0.00  0.00     0.143 C 
HETATM   19  O   UNK N   1      27.662  16.841   9.915  0.00  0.00    -0.650 OA
BRANCH  18  20
HETATM   20  O   UNK N   1      26.983  16.557   7.820  0.00  0.00    -0.776 OA
HETATM   21  H   UNK N   1      26.549  16.916   7.071  0.00  0.00     0.167 HD
ENDBRANCH  18  20
ENDBRANCH  17  18
ENDBRANCH   1  17
TORSDOF 5
ENDMDL
MODEL 7
REMARK VINA RESULT:      -5.9      9.340     11.608
REMARK  5 active torsions:
REMARK  status: ('A' for Active; 'I' for Inactive)
REMARK    1  A    between atoms: O_3  and  C_16 
REMARK    2  A    between atoms: N_5  and  C_7 
REMARK    3  A    between atoms: N_5  and  C_9 
REMARK    4  A    between atoms: C_6  and  C_8 
REMARK    5  A    between atoms: C_8  and  C_16 
ROOT
HETATM    1  C   UNK N   1      36.432  14.335  11.227  0.00  0.00    -0.022 A 
HETATM    2  C   UNK N   1      36.000  13.111  11.780  0.00  0.00     0.039 A 
HETATM    3  C   UNK N   1      37.399  14.333  10.210  0.00  0.00     0.010 A 
HETATM    4  C   UNK N   1      36.501  11.907  11.258  0.00  0.00     0.030 A 
HETATM    5  C   UNK N   1      37.912  13.131   9.722  0.00  0.00     0.001 A 
HETATM    6  C   UNK N   1      37.456  11.918  10.238  0.00  0.00     0.002 A 
ENDROOT
BRANCH   2   7
HETATM    7  N   UNK N   1      35.044  13.109  12.838  0.00  0.00    -0.353 N 
HETATM    8  H   UNK N   1      34.290  13.737  12.753  0.00  0.00     0.166 HD
BRANCH   7   9
HETATM    9  C   UNK N   1      35.064  12.291  14.010  0.00  0.00     0.076 A 
HETATM   10  C   UNK N   1      34.419  11.021  14.085  0.00  0.00     0.062 A 
HETATM   11 Cl   UNK N   1      33.590  10.266  12.730  0.00  0.00    -0.082 Cl
HETATM   12  C   UNK N   1      34.503  10.269  15.261  0.00  0.00     0.026 A 
HETATM   13  C   UNK N   1      35.214  10.741  16.361  0.00  0.00     0.003 A 
HETATM   14  C   UNK N   1      35.875  11.965  16.286  0.00  0.00     0.026 A 
HETATM   15  C   UNK N   1      35.809  12.734  15.123  0.00  0.00     0.062 A 
HETATM   16 Cl   UNK N   1      36.679  14.258  15.076  0.00  0.00    -0.082 Cl
ENDBRANCH   7   9
ENDBRANCH   2   7
BRANCH   1  17
HETATM   17  C   UNK N   1      35.898  15.644  11.737  0.00  0.00     0.150 C 
BRANCH  17  18
HETATM   18  C   UNK N   1      35.161  16.419  10.682  0.00  0.00     0.143 C 
HETATM   19  O   UNK N   1      35.597  17.491  10.292  0.00  0.00    -0.650 OA
BRANCH  18  20
HETATM   20  O   UNK N   1      33.996  15.955  10.196  0.00  0.00    -0.776 OA
HETATM   21  H   UNK N   1      33.452  15.269  10.528  0.00  0.00     0.167 HD
ENDBRANCH  18  20
ENDBRANCH  17  18
ENDBRANCH   1  17
TORSDOF 5
ENDMDL
MODEL 8
REMARK VINA RESULT:      -5.9      2.384      5.299
REMARK  5 active torsions:
REMARK  status: ('A' for Active; 'I' for Inactive)
REMARK    1  A    between atoms: O_3  and  C_16 
REMARK    2  A    between atoms: N_5  and  C_7 
REMARK    3  A    between atoms: N_5  and  C_9 
REMARK    4  A    between atoms: C_6  and  C_8 
REMARK    5  A    between atoms: C_8  and  C_16 
ROOT
HETATM    1  C   UNK N   1      31.983  16.776   7.185  0.00  0.00    -0.022 A 
HETATM    2  C   UNK N   1      31.149  17.051   6.081  0.00  0.00     0.039 A 
HETATM    3  C   UNK N   1      33.377  16.824   7.031  0.00  0.00     0.010 A 
HETATM    4  C   UNK N   1      31.731  17.431   4.860  0.00  0.00     0.030 A 
HETATM    5  C   UNK N   1      33.942  17.171   5.804  0.00  0.00     0.001 A 
HETATM    6  C   UNK N   1      33.120  17.486   4.721  0.00  0.00     0.002 A 
ENDROOT
BRANCH   2   7
HETATM    7  N   UNK N   1      29.732  16.968   6.223  0.00  0.00    -0.353 N 
HETATM    8  H   UNK N   1      29.380  16.160   6.661  0.00  0.00     0.166 HD
BRANCH   7   9
HETATM    9  C   UNK N   1      28.770  17.935   5.797  0.00  0.00     0.076 A 
HETATM   10  C   UNK N   1      28.218  17.958   4.482  0.00  0.00     0.062 A 
HETATM   11 Cl   UNK N   1      28.587  16.760   3.247  0.00  0.00    -0.082 Cl
HETATM   12  C   UNK N   1      27.264  18.923   4.147  0.00  0.00     0.026 A 
HETATM   13  C   UNK N   1      26.838  19.861   5.084  0.00  0.00     0.003 A 
HETATM   14  C   UNK N   1      27.345  19.826   6.380  0.00  0.00     0.026 A 
HETATM   15  C   UNK N   1      28.298  18.871   6.740  0.00  0.00     0.062 A 
HETATM   16 Cl   UNK N   1      28.888  18.859   8.394  0.00  0.00    -0.082 Cl
ENDBRANCH   7   9
ENDBRANCH   2   7
BRANCH   1  17
HETATM   17  C   UNK N   1      31.399  16.394   8.517  0.00  0.00     0.150 C 
BRANCH  17  18
HETATM   18  C   UNK N   1      32.030  15.158   9.092  0.00  0.00     0.143 C 
HETATM   19  O   UNK N   1      32.124  14.146   8.417  0.00  0.00    -0.650 OA
BRANCH  18  20
HETATM   20  O   UNK N   1      32.453  15.151  10.369  0.00  0.00    -0.776 OA
HETATM   21  H   UNK N   1      33.320  15.022  10.701  0.00  0.00     0.167 HD
ENDBRANCH  18  20
ENDBRANCH  17  18
ENDBRANCH   1  17
TORSDOF 5
ENDMDL
MODEL 9
REMARK VINA RESULT:      -5.9      7.780      9.738
REMARK  5 active torsions:
REMARK  status: ('A' for Active; 'I' for Inactive)
REMARK    1  A    between atoms: O_3  and  C_16 
REMARK    2  A    between atoms: N_5  and  C_7 
REMARK    3  A    between atoms: N_5  and  C_9 
REMARK    4  A    between atoms: C_6  and  C_8 
REMARK    5  A    between atoms: C_8  and  C_16 
ROOT
HETATM    1  C   UNK N   1      21.948  19.973   3.031  0.00  0.00    -0.022 A 
HETATM    2  C   UNK N   1      22.005  18.845   3.876  0.00  0.00     0.039 A 
HETATM    3  C   UNK N   1      23.132  20.643   2.688  0.00  0.00     0.010 A 
HETATM    4  C   UNK N   1      23.256  18.375   4.309  0.00  0.00     0.030 A 
HETATM    5  C   UNK N   1      24.365  20.185   3.151  0.00  0.00     0.001 A 
HETATM    6  C   UNK N   1      24.429  19.045   3.952  0.00  0.00     0.002 A 
ENDROOT
BRANCH   2   7
HETATM    7  N   UNK N   1      20.801  18.181   4.257  0.00  0.00    -0.353 N 
HETATM    8  H   UNK N   1      20.039  18.756   4.499  0.00  0.00     0.166 HD
BRANCH   7   9
HETATM    9  C   UNK N   1      20.583  16.770   4.323  0.00  0.00     0.076 A 
HETATM   10  C   UNK N   1      20.706  16.019   5.529  0.00  0.00     0.062 A 
HETATM   11 Cl   UNK N   1      21.057  16.738   7.096  0.00  0.00    -0.082 Cl
HETATM   12  C   UNK N   1      20.455  14.644   5.518  0.00  0.00     0.026 A 
HETATM   13  C   UNK N   1      20.081  13.996   4.343  0.00  0.00     0.003 A 
HETATM   14  C   UNK N   1      19.926  14.726   3.167  0.00  0.00     0.026 A 
HETATM   15  C   UNK N   1      20.169  16.101   3.153  0.00  0.00     0.062 A 
HETATM   16 Cl   UNK N   1      19.938  16.976   1.648  0.00  0.00    -0.082 Cl
ENDBRANCH   7   9
ENDBRANCH   2   7
BRANCH   1  17
HETATM   17  C   UNK N   1      20.631  20.490   2.522  0.00  0.00     0.150 C 
BRANCH  17  18
HETATM   18  C   UNK N   1      20.686  20.885   1.074  0.00  0.00     0.143 C 
HETATM   19  O   UNK N   1      20.688  22.064   0.759  0.00  0.00    -0.650 OA
BRANCH  18  20
HETATM   20  O   UNK N   1      20.688  19.938   0.117  0.00  0.00    -0.776 OA
HETATM   21  H   UNK N   1      20.143  19.869  -0.642  0.00  0.00     0.167 HD
ENDBRANCH  18  20
ENDBRANCH  17  18
ENDBRANCH   1  17
TORSDOF 5
ENDMDL
