MODEL 1
REMARK VINA RESULT:      -7.0      0.000      0.000
REMARK  10 active torsions:
REMARK  status: ('A' for Active; 'I' for Inactive)
REMARK    1  A    between atoms: O_2  and  C_18 
REMARK       I    between atoms: N_7  and  C_22 
REMARK    2  A    between atoms: N_7  and  C_24 
REMARK    3  A    between atoms: C_8  and  C_12 
REMARK    4  A    between atoms: C_13  and  C_14 
REMARK    5  A    between atoms: C_13  and  C_15 
REMARK    6  A    between atoms: C_13  and  C_16 
REMARK    7  A    between atoms: C_13  and  C_18 
REMARK    8  A    between atoms: C_16  and  C_22 
REMARK    9  A    between atoms: C_19  and  C_23 
REMARK   10  A    between atoms: C_25  and  C_26 
ROOT
HETATM    1  C   UNK N   1      29.094  27.003  -4.058  0.00  0.00     0.035 A 
HETATM    2  C   UNK N   1      26.965  27.985  -4.695  0.00  0.00    -0.034 A 
HETATM    3  C   UNK N   1      27.727  26.878  -4.333  0.00  0.00     0.041 A 
HETATM    4  C   UNK N   1      29.691  28.268  -4.118  0.00  0.00     0.029 A 
HETATM    5  C   UNK N   1      27.565  29.251  -4.741  0.00  0.00     0.011 A 
HETATM    6  C   UNK N   1      28.927  29.391  -4.452  0.00  0.00     0.003 A 
ENDROOT
BRANCH   1   7
HETATM    7  N   UNK N   1      29.884  25.879  -3.683  0.00  0.00    -0.327 N 
HETATM    8  C   UNK N   1      30.571  25.091  -4.560  0.00  0.00     0.223 C 
HETATM    9  O   UNK N   1      30.522  25.290  -5.760  0.00  0.00    -0.273 OA
HETATM   10  H   UNK N   1      29.937  25.655  -2.725  0.00  0.00     0.169 HD
BRANCH   8  11
HETATM   11  C   UNK N   1      31.319  23.888  -4.068  0.00  0.00     0.123 C 
BRANCH  11  12
HETATM   12  C   UNK N   1      30.464  22.670  -3.649  0.00  0.00     0.053 C 
BRANCH  12  13
HETATM   13  C   UNK N   1      31.279  21.369  -3.477  0.00  0.00     0.016 C 
HETATM   14  C   UNK N   1      32.789  21.561  -3.457  0.00  0.00     0.006 C 
ENDBRANCH  12  13
BRANCH  12  15
HETATM   15  C   UNK N   1      29.444  22.385  -4.764  0.00  0.00     0.016 C 
HETATM   16  C   UNK N   1      29.947  21.408  -5.823  0.00  0.00     0.006 C 
ENDBRANCH  12  15
BRANCH  12  17
HETATM   17  C   UNK N   1      29.779  23.000  -2.335  0.00  0.00     0.149 C 
HETATM   18  O   UNK N   1      30.421  22.995  -1.294  0.00  0.00    -0.649 OA
BRANCH  17  19
HETATM   19  O   UNK N   1      28.465  23.298  -2.293  0.00  0.00    -0.776 OA
HETATM   20  H   UNK N   1      27.873  22.878  -1.701  0.00  0.00     0.167 HD
ENDBRANCH  17  19
ENDBRANCH  12  17
ENDBRANCH  11  12
ENDBRANCH   8  11
ENDBRANCH   1   7
BRANCH   2  21
HETATM   21  C   UNK N   1      25.514  27.811  -4.863  0.00  0.00     0.014 C 
HETATM   22  C   UNK N   1      24.909  27.075  -5.805  0.00  0.00     0.038 C 
BRANCH  22  23
HETATM   23  C   UNK N   1      25.518  25.968  -6.556  0.00  0.00     0.074 A 
HETATM   24  S   UNK N   1      25.936  26.027  -8.145  0.00  0.00    -0.082 SA
HETATM   25  C   UNK N   1      26.205  24.411  -8.386  0.00  0.00     0.077 A 
HETATM   26  C   UNK N   1      25.920  23.810  -7.146  0.00  0.00     0.020 A 
HETATM   27  N   UNK N   1      25.533  24.675  -6.137  0.00  0.00    -0.353 N 
ATOM     28  HN  UNK N   1      25.286  24.378  -5.194  1.00  0.00     0.166 HD
BRANCH  26  29
HETATM   29  C   UNK N   1      25.892  22.314  -6.999  0.00  0.00     0.036 A 
HETATM   30  C   UNK N   1      24.688  21.683  -7.662  0.00  0.00     0.011 A 
HETATM   31  C   UNK N   1      25.613  20.906  -8.580  0.00  0.00     0.001 A 
HETATM   32  C   UNK N   1      26.818  21.578  -7.946  0.00  0.00     0.011 A 
ENDBRANCH  26  29
ENDBRANCH  22  23
ENDBRANCH   2  21
TORSDOF 10
ENDMDL
MODEL 2
REMARK VINA RESULT:      -6.6      2.549      5.906
REMARK  10 active torsions:
REMARK  status: ('A' for Active; 'I' for Inactive)
REMARK    1  A    between atoms: O_2  and  C_18 
REMARK       I    between atoms: N_7  and  C_22 
REMARK    2  A    between atoms: N_7  and  C_24 
REMARK    3  A    between atoms: C_8  and  C_12 
REMARK    4  A    between atoms: C_13  and  C_14 
REMARK    5  A    between atoms: C_13  and  C_15 
REMARK    6  A    between atoms: C_13  and  C_16 
REMARK    7  A    between atoms: C_13  and  C_18 
REMARK    8  A    between atoms: C_16  and  C_22 
REMARK    9  A    between atoms: C_19  and  C_23 
REMARK   10  A    between atoms: C_25  and  C_26 
ROOT
HETATM    1  C   UNK N   1      27.355  25.009  -5.702  0.00  0.00     0.035 A 
HETATM    2  C   UNK N   1      27.143  27.372  -6.226  0.00  0.00    -0.034 A 
HETATM    3  C   UNK N   1      27.931  26.242  -6.032  0.00  0.00     0.041 A 
HETATM    4  C   UNK N   1      25.962  24.911  -5.597  0.00  0.00     0.029 A 
HETATM    5  C   UNK N   1      25.749  27.266  -6.132  0.00  0.00     0.011 A 
HETATM    6  C   UNK N   1      25.160  26.036  -5.819  0.00  0.00     0.003 A 
ENDROOT
BRANCH   1   7
HETATM    7  N   UNK N   1      28.150  23.844  -5.505  0.00  0.00    -0.327 N 
HETATM    8  C   UNK N   1      28.717  23.488  -4.316  0.00  0.00     0.223 C 
HETATM    9  O   UNK N   1      28.600  24.187  -3.326  0.00  0.00    -0.273 OA
HETATM   10  H   UNK N   1      28.301  23.255  -6.280  0.00  0.00     0.169 HD
BRANCH   8  11
HETATM   11  C   UNK N   1      29.595  22.275  -4.231  0.00  0.00     0.123 C 
BRANCH  11  12
HETATM   12  C   UNK N   1      31.106  22.531  -4.024  0.00  0.00     0.053 C 
BRANCH  12  13
HETATM   13  C   UNK N   1      31.546  23.969  -4.377  0.00  0.00     0.016 C 
HETATM   14  C   UNK N   1      32.119  24.133  -5.778  0.00  0.00     0.006 C 
ENDBRANCH  12  13
BRANCH  12  15
HETATM   15  C   UNK N   1      31.888  21.605  -4.971  0.00  0.00     0.016 C 
HETATM   16  C   UNK N   1      31.135  20.333  -5.347  0.00  0.00     0.006 C 
ENDBRANCH  12  15
BRANCH  12  17
HETATM   17  C   UNK N   1      31.439  22.256  -2.569  0.00  0.00     0.149 C 
HETATM   18  O   UNK N   1      30.825  22.831  -1.683  0.00  0.00    -0.649 OA
BRANCH  17  19
HETATM   19  O   UNK N   1      32.412  21.384  -2.233  0.00  0.00    -0.776 OA
HETATM   20  H   UNK N   1      32.337  20.805  -1.501  0.00  0.00     0.167 HD
ENDBRANCH  17  19
ENDBRANCH  12  17
ENDBRANCH  11  12
ENDBRANCH   8  11
ENDBRANCH   1   7
BRANCH   2  21
HETATM   21  C   UNK N   1      27.795  28.611  -6.679  0.00  0.00     0.014 C 
HETATM   22  C   UNK N   1      28.025  29.702  -5.936  0.00  0.00     0.038 C 
BRANCH  22  23
HETATM   23  C   UNK N   1      28.096  29.745  -4.469  0.00  0.00     0.074 A 
HETATM   24  S   UNK N   1      26.968  30.440  -3.494  0.00  0.00    -0.082 SA
HETATM   25  C   UNK N   1      27.832  30.433  -2.080  0.00  0.00     0.077 A 
HETATM   26  C   UNK N   1      29.078  29.876  -2.424  0.00  0.00     0.020 A 
HETATM   27  N   UNK N   1      29.222  29.504  -3.749  0.00  0.00    -0.353 N 
ATOM     28  HN  UNK N   1      30.073  29.098  -4.139  1.00  0.00     0.166 HD
BRANCH  26  29
HETATM   29  C   UNK N   1      30.212  29.846  -1.435  0.00  0.00     0.036 A 
HETATM   30  C   UNK N   1      31.354  28.961  -1.883  0.00  0.00     0.011 A 
HETATM   31  C   UNK N   1      32.274  30.169  -1.887  0.00  0.00     0.001 A 
HETATM   32  C   UNK N   1      31.113  31.062  -1.487  0.00  0.00     0.011 A 
ENDBRANCH  26  29
ENDBRANCH  22  23
ENDBRANCH   2  21
TORSDOF 10
ENDMDL
MODEL 3
REMARK VINA RESULT:      -6.5     16.460     19.737
REMARK  10 active torsions:
REMARK  status: ('A' for Active; 'I' for Inactive)
REMARK    1  A    between atoms: O_2  and  C_18 
REMARK       I    between atoms: N_7  and  C_22 
REMARK    2  A    between atoms: N_7  and  C_24 
REMARK    3  A    between atoms: C_8  and  C_12 
REMARK    4  A    between atoms: C_13  and  C_14 
REMARK    5  A    between atoms: C_13  and  C_15 
REMARK    6  A    between atoms: C_13  and  C_16 
REMARK    7  A    between atoms: C_13  and  C_18 
REMARK    8  A    between atoms: C_16  and  C_22 
REMARK    9  A    between atoms: C_19  and  C_23 
REMARK   10  A    between atoms: C_25  and  C_26 
ROOT
HETATM    1  C   UNK N   1      34.573  14.312  10.463  0.00  0.00     0.035 A 
HETATM    2  C   UNK N   1      34.439  15.579   8.394  0.00  0.00    -0.034 A 
HETATM    3  C   UNK N   1      34.503  15.534   9.783  0.00  0.00     0.041 A 
HETATM    4  C   UNK N   1      34.611  13.121   9.728  0.00  0.00     0.029 A 
HETATM    5  C   UNK N   1      34.490  14.384   7.662  0.00  0.00     0.011 A 
HETATM    6  C   UNK N   1      34.577  13.157   8.330  0.00  0.00     0.003 A 
ENDROOT
BRANCH   1   7
HETATM    7  N   UNK N   1      34.643  14.253  11.885  0.00  0.00    -0.327 N 
HETATM    8  C   UNK N   1      35.774  13.963  12.591  0.00  0.00     0.223 C 
HETATM    9  O   UNK N   1      36.820  13.695  12.027  0.00  0.00    -0.273 OA
HETATM   10  H   UNK N   1      33.818  14.435  12.392  0.00  0.00     0.169 HD
BRANCH   8  11
HETATM   11  C   UNK N   1      35.725  13.858  14.086  0.00  0.00     0.123 C 
BRANCH  11  12
HETATM   12  C   UNK N   1      35.511  12.443  14.671  0.00  0.00     0.053 C 
BRANCH  12  13
HETATM   13  C   UNK N   1      34.689  11.510  13.756  0.00  0.00     0.016 C 
HETATM   14  C   UNK N   1      33.601  10.717  14.467  0.00  0.00     0.006 C 
ENDBRANCH  12  13
BRANCH  12  15
HETATM   15  C   UNK N   1      34.704  12.574  15.975  0.00  0.00     0.016 C 
HETATM   16  C   UNK N   1      35.366  13.469  17.019  0.00  0.00     0.006 C 
ENDBRANCH  12  15
BRANCH  12  17
HETATM   17  C   UNK N   1      36.873  11.820  14.916  0.00  0.00     0.149 C 
HETATM   18  O   UNK N   1      36.962  10.778  15.548  0.00  0.00    -0.649 OA
BRANCH  17  19
HETATM   19  O   UNK N   1      37.997  12.402  14.451  0.00  0.00    -0.776 OA
HETATM   20  H   UNK N   1      38.706  12.648  15.012  0.00  0.00     0.167 HD
ENDBRANCH  17  19
ENDBRANCH  12  17
ENDBRANCH  11  12
ENDBRANCH   8  11
ENDBRANCH   1   7
BRANCH   2  21
HETATM   21  C   UNK N   1      34.479  16.892   7.733  0.00  0.00     0.014 C 
HETATM   22  C   UNK N   1      33.584  17.364   6.855  0.00  0.00     0.038 C 
BRANCH  22  23
HETATM   23  C   UNK N   1      32.196  16.902   6.709  0.00  0.00     0.074 A 
HETATM   24  S   UNK N   1      31.628  16.021   5.441  0.00  0.00    -0.082 SA
HETATM   25  C   UNK N   1      30.008  16.170   5.749  0.00  0.00     0.077 A 
HETATM   26  C   UNK N   1      29.933  16.981   6.896  0.00  0.00     0.020 A 
HETATM   27  N   UNK N   1      31.147  17.391   7.420  0.00  0.00    -0.353 N 
ATOM     28  HN  UNK N   1      31.242  17.989   8.240  1.00  0.00     0.166 HD
BRANCH  26  29
HETATM   29  C   UNK N   1      28.609  17.485   7.404  0.00  0.00     0.036 A 
HETATM   30  C   UNK N   1      28.743  18.733   8.248  0.00  0.00     0.011 A 
HETATM   31  C   UNK N   1      27.889  19.489   7.247  0.00  0.00     0.001 A 
HETATM   32  C   UNK N   1      27.799  18.249   6.376  0.00  0.00     0.011 A 
ENDBRANCH  26  29
ENDBRANCH  22  23
ENDBRANCH   2  21
TORSDOF 10
ENDMDL
MODEL 4
REMARK VINA RESULT:      -6.5     16.105     19.648
REMARK  10 active torsions:
REMARK  status: ('A' for Active; 'I' for Inactive)
REMARK    1  A    between atoms: O_2  and  C_18 
REMARK       I    between atoms: N_7  and  C_22 
REMARK    2  A    between atoms: N_7  and  C_24 
REMARK    3  A    between atoms: C_8  and  C_12 
REMARK    4  A    between atoms: C_13  and  C_14 
REMARK    5  A    between atoms: C_13  and  C_15 
REMARK    6  A    between atoms: C_13  and  C_16 
REMARK    7  A    between atoms: C_13  and  C_18 
REMARK    8  A    between atoms: C_16  and  C_22 
REMARK    9  A    between atoms: C_19  and  C_23 
REMARK   10  A    between atoms: C_25  and  C_26 
ROOT
HETATM    1  C   UNK N   1      35.115  13.485   9.482  0.00  0.00     0.035 A 
HETATM    2  C   UNK N   1      34.616  14.196   7.213  0.00  0.00    -0.034 A 
HETATM    3  C   UNK N   1      35.308  14.363   8.409  0.00  0.00     0.041 A 
HETATM    4  C   UNK N   1      34.234  12.407   9.334  0.00  0.00     0.029 A 
HETATM    5  C   UNK N   1      33.745  13.108   7.065  0.00  0.00     0.011 A 
HETATM    6  C   UNK N   1      33.555  12.214   8.126  0.00  0.00     0.003 A 
ENDROOT
BRANCH   1   7
HETATM    7  N   UNK N   1      35.820  13.642  10.710  0.00  0.00    -0.327 N 
HETATM    8  C   UNK N   1      35.352  14.339  11.786  0.00  0.00     0.223 C 
HETATM    9  O   UNK N   1      34.280  14.916  11.747  0.00  0.00    -0.273 OA
HETATM   10  H   UNK N   1      36.706  13.218  10.787  0.00  0.00     0.169 HD
BRANCH   8  11
HETATM   11  C   UNK N   1      36.204  14.503  13.008  0.00  0.00     0.123 C 
BRANCH  11  12
HETATM   12  C   UNK N   1      36.270  13.293  13.970  0.00  0.00     0.053 C 
BRANCH  12  13
HETATM   13  C   UNK N   1      36.864  13.632  15.354  0.00  0.00     0.016 C 
HETATM   14  C   UNK N   1      37.190  15.104  15.564  0.00  0.00     0.006 C 
ENDBRANCH  12  13
BRANCH  12  15
HETATM   15  C   UNK N   1      37.204  12.236  13.356  0.00  0.00     0.016 C 
HETATM   16  C   UNK N   1      37.774  11.254  14.376  0.00  0.00     0.006 C 
ENDBRANCH  12  15
BRANCH  12  17
HETATM   17  C   UNK N   1      34.861  12.757  14.154  0.00  0.00     0.149 C 
HETATM   18  O   UNK N   1      34.283  12.916  15.218  0.00  0.00    -0.649 OA
BRANCH  17  19
HETATM   19  O   UNK N   1      34.234  12.098  13.159  0.00  0.00    -0.776 OA
HETATM   20  H   UNK N   1      33.581  12.502  12.622  0.00  0.00     0.167 HD
ENDBRANCH  17  19
ENDBRANCH  12  17
ENDBRANCH  11  12
ENDBRANCH   8  11
ENDBRANCH   1   7
BRANCH   2  21
HETATM   21  C   UNK N   1      34.943  15.083   6.086  0.00  0.00     0.014 C 
HETATM   22  C   UNK N   1      34.252  16.165   5.704  0.00  0.00     0.038 C 
BRANCH  22  23
HETATM   23  C   UNK N   1      33.330  16.940   6.546  0.00  0.00     0.074 A 
HETATM   24  S   UNK N   1      33.792  17.982   7.732  0.00  0.00    -0.082 SA
HETATM   25  C   UNK N   1      32.317  18.198   8.454  0.00  0.00     0.077 A 
HETATM   26  C   UNK N   1      31.437  17.377   7.725  0.00  0.00     0.020 A 
HETATM   27  N   UNK N   1      32.004  16.676   6.674  0.00  0.00    -0.353 N 
ATOM     28  HN  UNK N   1      31.487  16.038   6.069  1.00  0.00     0.166 HD
BRANCH  26  29
HETATM   29  C   UNK N   1      30.017  17.171   8.176  0.00  0.00     0.036 A 
HETATM   30  C   UNK N   1      29.621  18.099   9.303  0.00  0.00     0.011 A 
HETATM   31  C   UNK N   1      28.545  18.700   8.416  0.00  0.00     0.001 A 
HETATM   32  C   UNK N   1      28.979  17.802   7.271  0.00  0.00     0.011 A 
ENDBRANCH  26  29
ENDBRANCH  22  23
ENDBRANCH   2  21
TORSDOF 10
ENDMDL
MODEL 5
REMARK VINA RESULT:      -6.4     11.069     12.865
REMARK  10 active torsions:
REMARK  status: ('A' for Active; 'I' for Inactive)
REMARK    1  A    between atoms: O_2  and  C_18 
REMARK       I    between atoms: N_7  and  C_22 
REMARK    2  A    between atoms: N_7  and  C_24 
REMARK    3  A    between atoms: C_8  and  C_12 
REMARK    4  A    between atoms: C_13  and  C_14 
REMARK    5  A    between atoms: C_13  and  C_15 
REMARK    6  A    between atoms: C_13  and  C_16 
REMARK    7  A    between atoms: C_13  and  C_18 
REMARK    8  A    between atoms: C_16  and  C_22 
REMARK    9  A    between atoms: C_19  and  C_23 
REMARK   10  A    between atoms: C_25  and  C_26 
ROOT
HETATM    1  C   UNK N   1      29.077  17.962   6.012  0.00  0.00     0.035 A 
HETATM    2  C   UNK N   1      27.672  19.761   5.179  0.00  0.00    -0.034 A 
HETATM    3  C   UNK N   1      28.572  18.725   4.952  0.00  0.00     0.041 A 
HETATM    4  C   UNK N   1      28.642  18.231   7.316  0.00  0.00     0.029 A 
HETATM    5  C   UNK N   1      27.229  20.017   6.484  0.00  0.00     0.011 A 
HETATM    6  C   UNK N   1      27.715  19.251   7.551  0.00  0.00     0.003 A 
ENDROOT
BRANCH   1   7
HETATM    7  N   UNK N   1      29.996  16.897   5.792  0.00  0.00    -0.327 N 
HETATM    8  C   UNK N   1      31.226  16.805   6.376  0.00  0.00     0.223 C 
HETATM    9  O   UNK N   1      31.639  17.676   7.120  0.00  0.00    -0.273 OA
HETATM   10  H   UNK N   1      29.725  16.177   5.177  0.00  0.00     0.169 HD
BRANCH   8  11
HETATM   11  C   UNK N   1      32.147  15.675   6.023  0.00  0.00     0.123 C 
BRANCH  11  12
HETATM   12  C   UNK N   1      33.375  16.032   5.154  0.00  0.00     0.053 C 
BRANCH  12  13
HETATM   13  C   UNK N   1      33.098  17.135   4.109  0.00  0.00     0.016 C 
HETATM   14  C   UNK N   1      32.256  16.688   2.921  0.00  0.00     0.006 C 
ENDBRANCH  12  13
BRANCH  12  15
HETATM   15  C   UNK N   1      33.782  14.783   4.353  0.00  0.00     0.016 C 
HETATM   16  C   UNK N   1      33.040  13.517   4.771  0.00  0.00     0.006 C 
ENDBRANCH  12  15
BRANCH  12  17
HETATM   17  C   UNK N   1      34.490  16.494   6.075  0.00  0.00     0.149 C 
HETATM   18  O   UNK N   1      35.403  15.732   6.358  0.00  0.00    -0.649 OA
BRANCH  17  19
HETATM   19  O   UNK N   1      34.490  17.738   6.596  0.00  0.00    -0.776 OA
HETATM   20  H   UNK N   1      35.179  18.053   7.146  0.00  0.00     0.167 HD
ENDBRANCH  17  19
ENDBRANCH  12  17
ENDBRANCH  11  12
ENDBRANCH   8  11
ENDBRANCH   1   7
BRANCH   2  21
HETATM   21  C   UNK N   1      27.093  20.453   4.017  0.00  0.00     0.014 C 
HETATM   22  C   UNK N   1      26.030  20.052   3.307  0.00  0.00     0.038 C 
BRANCH  22  23
HETATM   23  C   UNK N   1      24.978  19.137   3.773  0.00  0.00     0.074 A 
HETATM   24  S   UNK N   1      25.048  17.497   3.672  0.00  0.00    -0.082 SA
HETATM   25  C   UNK N   1      23.465  17.164   4.029  0.00  0.00     0.077 A 
HETATM   26  C   UNK N   1      22.864  18.424   4.206  0.00  0.00     0.020 A 
HETATM   27  N   UNK N   1      23.704  19.514   4.055  0.00  0.00    -0.353 N 
ATOM     28  HN  UNK N   1      23.402  20.484   4.145  1.00  0.00     0.166 HD
BRANCH  26  29
HETATM   29  C   UNK N   1      21.377  18.554   4.387  0.00  0.00     0.036 A 
HETATM   30  C   UNK N   1      20.788  19.699   3.592  0.00  0.00     0.011 A 
HETATM   31  C   UNK N   1      19.934  18.710   2.820  0.00  0.00     0.001 A 
HETATM   32  C   UNK N   1      20.563  17.559   3.585  0.00  0.00     0.011 A 
ENDBRANCH  26  29
ENDBRANCH  22  23
ENDBRANCH   2  21
TORSDOF 10
ENDMDL
MODEL 6
REMARK VINA RESULT:      -6.4     13.800     16.977
REMARK  10 active torsions:
REMARK  status: ('A' for Active; 'I' for Inactive)
REMARK    1  A    between atoms: O_2  and  C_18 
REMARK       I    between atoms: N_7  and  C_22 
REMARK    2  A    between atoms: N_7  and  C_24 
REMARK    3  A    between atoms: C_8  and  C_12 
REMARK    4  A    between atoms: C_13  and  C_14 
REMARK    5  A    between atoms: C_13  and  C_15 
REMARK    6  A    between atoms: C_13  and  C_16 
REMARK    7  A    between atoms: C_13  and  C_18 
REMARK    8  A    between atoms: C_16  and  C_22 
REMARK    9  A    between atoms: C_19  and  C_23 
REMARK   10  A    between atoms: C_25  and  C_26 
ROOT
HETATM    1  C   UNK N   1      33.403  15.696   8.005  0.00  0.00     0.035 A 
HETATM    2  C   UNK N   1      32.145  15.878   5.934  0.00  0.00    -0.034 A 
HETATM    3  C   UNK N   1      32.404  15.233   7.140  0.00  0.00     0.041 A 
HETATM    4  C   UNK N   1      34.129  16.843   7.661  0.00  0.00     0.029 A 
HETATM    5  C   UNK N   1      32.865  17.033   5.600  0.00  0.00     0.011 A 
HETATM    6  C   UNK N   1      33.855  17.515   6.464  0.00  0.00     0.003 A 
ENDROOT
BRANCH   1   7
HETATM    7  N   UNK N   1      33.675  15.048   9.244  0.00  0.00    -0.327 N 
HETATM    8  C   UNK N   1      34.632  14.091   9.421  0.00  0.00     0.223 C 
HETATM    9  O   UNK N   1      35.311  13.697   8.490  0.00  0.00    -0.273 OA
HETATM   10  H   UNK N   1      33.136  15.309  10.026  0.00  0.00     0.169 HD
BRANCH   8  11
HETATM   11  C   UNK N   1      34.792  13.421  10.752  0.00  0.00     0.123 C 
BRANCH  11  12
HETATM   12  C   UNK N   1      35.889  13.988  11.683  0.00  0.00     0.053 C 
BRANCH  12  13
HETATM   13  C   UNK N   1      37.243  13.255  11.566  0.00  0.00     0.016 C 
HETATM   14  C   UNK N   1      37.149  11.820  11.067  0.00  0.00     0.006 C 
ENDBRANCH  12  13
BRANCH  12  15
HETATM   15  C   UNK N   1      35.432  13.804  13.140  0.00  0.00     0.016 C 
HETATM   16  C   UNK N   1      36.561  13.938  14.159  0.00  0.00     0.006 C 
ENDBRANCH  12  15
BRANCH  12  17
HETATM   17  C   UNK N   1      36.090  15.454  11.340  0.00  0.00     0.149 C 
HETATM   18  O   UNK N   1      35.211  16.265  11.593  0.00  0.00    -0.649 OA
BRANCH  17  19
HETATM   19  O   UNK N   1      37.226  15.880  10.753  0.00  0.00    -0.776 OA
HETATM   20  H   UNK N   1      37.296  16.719  10.343  0.00  0.00     0.167 HD
ENDBRANCH  17  19
ENDBRANCH  12  17
ENDBRANCH  11  12
ENDBRANCH   8  11
ENDBRANCH   1   7
BRANCH   2  21
HETATM   21  C   UNK N   1      31.011  15.412   5.121  0.00  0.00     0.014 C 
HETATM   22  C   UNK N   1      29.739  15.817   5.232  0.00  0.00     0.038 C 
BRANCH  22  23
HETATM   23  C   UNK N   1      29.286  17.079   5.835  0.00  0.00     0.074 A 
HETATM   24  S   UNK N   1      28.850  17.264   7.410  0.00  0.00    -0.082 SA
HETATM   25  C   UNK N   1      28.151  18.761   7.294  0.00  0.00     0.077 A 
HETATM   26  C   UNK N   1      28.254  19.101   5.932  0.00  0.00     0.020 A 
HETATM   27  N   UNK N   1      28.876  18.163   5.127  0.00  0.00    -0.353 N 
ATOM     28  HN  UNK N   1      29.010  18.273   4.122  1.00  0.00     0.166 HD
BRANCH  26  29
HETATM   29  C   UNK N   1      27.583  20.332   5.389  0.00  0.00     0.036 A 
HETATM   30  C   UNK N   1      26.079  20.297   5.546  0.00  0.00     0.011 A 
HETATM   31  C   UNK N   1      26.151  21.536   6.420  0.00  0.00     0.001 A 
HETATM   32  C   UNK N   1      27.664  21.539   6.302  0.00  0.00     0.011 A 
ENDBRANCH  26  29
ENDBRANCH  22  23
ENDBRANCH   2  21
TORSDOF 10
ENDMDL
MODEL 7
REMARK VINA RESULT:      -6.3     17.052     20.364
REMARK  10 active torsions:
REMARK  status: ('A' for Active; 'I' for Inactive)
REMARK    1  A    between atoms: O_2  and  C_18 
REMARK       I    between atoms: N_7  and  C_22 
REMARK    2  A    between atoms: N_7  and  C_24 
REMARK    3  A    between atoms: C_8  and  C_12 
REMARK    4  A    between atoms: C_13  and  C_14 
REMARK    5  A    between atoms: C_13  and  C_15 
REMARK    6  A    between atoms: C_13  and  C_16 
REMARK    7  A    between atoms: C_13  and  C_18 
REMARK    8  A    between atoms: C_16  and  C_22 
REMARK    9  A    between atoms: C_19  and  C_23 
REMARK   10  A    between atoms: C_25  and  C_26 
ROOT
HETATM    1  C   UNK N   1      34.741  13.852  11.038  0.00  0.00     0.035 A 
HETATM    2  C   UNK N   1      34.868  15.715   9.483  0.00  0.00    -0.034 A 
HETATM    3  C   UNK N   1      34.742  15.229  10.781  0.00  0.00     0.041 A 
HETATM    4  C   UNK N   1      34.901  12.957   9.973  0.00  0.00     0.029 A 
HETATM    5  C   UNK N   1      35.041  14.816   8.422  0.00  0.00     0.011 A 
HETATM    6  C   UNK N   1      35.057  13.438   8.668  0.00  0.00     0.003 A 
ENDROOT
BRANCH   1   7
HETATM    7  N   UNK N   1      34.616  13.341  12.362  0.00  0.00    -0.327 N 
HETATM    8  C   UNK N   1      35.621  13.338  13.285  0.00  0.00     0.223 C 
HETATM    9  O   UNK N   1      36.731  13.755  13.013  0.00  0.00    -0.273 OA
HETATM   10  H   UNK N   1      33.746  12.965  12.628  0.00  0.00     0.169 HD
BRANCH   8  11
HETATM   11  C   UNK N   1      35.407  12.712  14.631  0.00  0.00     0.123 C 
BRANCH  11  12
HETATM   12  C   UNK N   1      35.336  11.168  14.671  0.00  0.00     0.053 C 
BRANCH  12  13
HETATM   13  C   UNK N   1      35.472  10.576  16.090  0.00  0.00     0.016 C 
HETATM   14  C   UNK N   1      35.414  11.600  17.215  0.00  0.00     0.006 C 
ENDBRANCH  12  13
BRANCH  12  15
HETATM   15  C   UNK N   1      36.519  10.607  13.863  0.00  0.00     0.016 C 
HETATM   16  C   UNK N   1      37.860  10.716  14.584  0.00  0.00     0.006 C 
ENDBRANCH  12  15
BRANCH  12  17
HETATM   17  C   UNK N   1      34.004  10.739  14.082  0.00  0.00     0.149 C 
HETATM   18  O   UNK N   1      32.990  10.797  14.761  0.00  0.00    -0.649 OA
BRANCH  17  19
HETATM   19  O   UNK N   1      33.918  10.287  12.814  0.00  0.00    -0.776 OA
HETATM   20  H   UNK N   1      34.462  10.615  12.126  0.00  0.00     0.167 HD
ENDBRANCH  17  19
ENDBRANCH  12  17
ENDBRANCH  11  12
ENDBRANCH   8  11
ENDBRANCH   1   7
BRANCH   2  21
HETATM   21  C   UNK N   1      34.974  17.170   9.289  0.00  0.00     0.014 C 
HETATM   22  C   UNK N   1      34.207  17.918   8.485  0.00  0.00     0.038 C 
BRANCH  22  23
HETATM   23  C   UNK N   1      32.868  17.562   7.996  0.00  0.00     0.074 A 
HETATM   24  S   UNK N   1      32.547  16.929   6.512  0.00  0.00    -0.082 SA
HETATM   25  C   UNK N   1      30.901  17.114   6.520  0.00  0.00     0.077 A 
HETATM   26  C   UNK N   1      30.615  17.732   7.751  0.00  0.00     0.020 A 
HETATM   27  N   UNK N   1      31.708  17.985   8.562  0.00  0.00    -0.353 N 
ATOM     28  HN  UNK N   1      31.649  18.436   9.475  1.00  0.00     0.166 HD
BRANCH  26  29
HETATM   29  C   UNK N   1      29.227  18.217   8.070  0.00  0.00     0.036 A 
HETATM   30  C   UNK N   1      28.170  17.160   7.838  0.00  0.00     0.011 A 
HETATM   31  C   UNK N   1      27.806  17.217   9.310  0.00  0.00     0.001 A 
HETATM   32  C   UNK N   1      28.901  18.240   9.550  0.00  0.00     0.011 A 
ENDBRANCH  26  29
ENDBRANCH  22  23
ENDBRANCH   2  21
TORSDOF 10
ENDMDL
MODEL 8
REMARK VINA RESULT:      -6.3     14.871     18.239
REMARK  10 active torsions:
REMARK  status: ('A' for Active; 'I' for Inactive)
REMARK    1  A    between atoms: O_2  and  C_18 
REMARK       I    between atoms: N_7  and  C_22 
REMARK    2  A    between atoms: N_7  and  C_24 
REMARK    3  A    between atoms: C_8  and  C_12 
REMARK    4  A    between atoms: C_13  and  C_14 
REMARK    5  A    between atoms: C_13  and  C_15 
REMARK    6  A    between atoms: C_13  and  C_16 
REMARK    7  A    between atoms: C_13  and  C_18 
REMARK    8  A    between atoms: C_16  and  C_22 
REMARK    9  A    between atoms: C_19  and  C_23 
REMARK   10  A    between atoms: C_25  and  C_26 
ROOT
HETATM    1  C   UNK N   1      34.932  16.107   8.941  0.00  0.00     0.035 A 
HETATM    2  C   UNK N   1      34.210  16.157   6.621  0.00  0.00    -0.034 A 
HETATM    3  C   UNK N   1      34.686  15.456   7.726  0.00  0.00     0.041 A 
HETATM    4  C   UNK N   1      34.663  17.477   9.051  0.00  0.00     0.029 A 
HETATM    5  C   UNK N   1      33.931  17.526   6.740  0.00  0.00     0.011 A 
HETATM    6  C   UNK N   1      34.157  18.184   7.955  0.00  0.00     0.003 A 
ENDROOT
BRANCH   1   7
HETATM    7  N   UNK N   1      35.415  15.400  10.080  0.00  0.00    -0.327 N 
HETATM    8  C   UNK N   1      34.619  14.853  11.043  0.00  0.00     0.223 C 
HETATM    9  O   UNK N   1      33.407  14.968  11.003  0.00  0.00    -0.273 OA
HETATM   10  H   UNK N   1      36.390  15.300  10.178  0.00  0.00     0.169 HD
BRANCH   8  11
HETATM   11  C   UNK N   1      35.231  14.188  12.240  0.00  0.00     0.123 C 
BRANCH  11  12
HETATM   12  C   UNK N   1      35.633  12.704  12.074  0.00  0.00     0.053 C 
BRANCH  12  13
HETATM   13  C   UNK N   1      34.878  11.979  10.938  0.00  0.00     0.016 C 
HETATM   14  C   UNK N   1      34.244  10.654  11.340  0.00  0.00     0.006 C 
ENDBRANCH  12  13
BRANCH  12  15
HETATM   15  C   UNK N   1      35.269  11.955  13.368  0.00  0.00     0.016 C 
HETATM   16  C   UNK N   1      35.638  12.713  14.640  0.00  0.00     0.006 C 
ENDBRANCH  12  15
BRANCH  12  17
HETATM   17  C   UNK N   1      37.124  12.645  11.793  0.00  0.00     0.149 C 
HETATM   18  O   UNK N   1      37.722  11.585  11.898  0.00  0.00    -0.649 OA
BRANCH  17  19
HETATM   19  O   UNK N   1      37.806  13.750  11.432  0.00  0.00    -0.776 OA
HETATM   20  H   UNK N   1      38.675  13.926  11.735  0.00  0.00     0.167 HD
ENDBRANCH  17  19
ENDBRANCH  12  17
ENDBRANCH  11  12
ENDBRANCH   8  11
ENDBRANCH   1   7
BRANCH   2  21
HETATM   21  C   UNK N   1      33.866  15.401   5.407  0.00  0.00     0.014 C 
HETATM   22  C   UNK N   1      32.630  15.122   4.972  0.00  0.00     0.038 C 
BRANCH  22  23
HETATM   23  C   UNK N   1      31.406  15.855   5.328  0.00  0.00     0.074 A 
HETATM   24  S   UNK N   1      30.707  17.020   4.401  0.00  0.00    -0.082 SA
HETATM   25  C   UNK N   1      29.646  17.618   5.524  0.00  0.00     0.077 A 
HETATM   26  C   UNK N   1      29.892  16.865   6.688  0.00  0.00     0.020 A 
HETATM   27  N   UNK N   1      30.873  15.895   6.576  0.00  0.00    -0.353 N 
ATOM     28  HN  UNK N   1      31.162  15.285   7.341  1.00  0.00     0.166 HD
BRANCH  26  29
HETATM   29  C   UNK N   1      29.232  17.218   7.992  0.00  0.00     0.036 A 
HETATM   30  C   UNK N   1      30.191  17.180   9.162  0.00  0.00     0.011 A 
HETATM   31  C   UNK N   1      29.940  18.657   9.403  0.00  0.00     0.001 A 
HETATM   32  C   UNK N   1      29.018  18.704   8.198  0.00  0.00     0.011 A 
ENDBRANCH  26  29
ENDBRANCH  22  23
ENDBRANCH   2  21
TORSDOF 10
ENDMDL
MODEL 9
REMARK VINA RESULT:      -6.3      2.280      4.970
REMARK  10 active torsions:
REMARK  status: ('A' for Active; 'I' for Inactive)
REMARK    1  A    between atoms: O_2  and  C_18 
REMARK       I    between atoms: N_7  and  C_22 
REMARK    2  A    between atoms: N_7  and  C_24 
REMARK    3  A    between atoms: C_8  and  C_12 
REMARK    4  A    between atoms: C_13  and  C_14 
REMARK    5  A    between atoms: C_13  and  C_15 
REMARK    6  A    between atoms: C_13  and  C_16 
REMARK    7  A    between atoms: C_13  and  C_18 
REMARK    8  A    between atoms: C_16  and  C_22 
REMARK    9  A    between atoms: C_19  and  C_23 
REMARK   10  A    between atoms: C_25  and  C_26 
ROOT
HETATM    1  C   UNK N   1      26.980  24.853  -5.327  0.00  0.00     0.035 A 
HETATM    2  C   UNK N   1      25.770  26.877  -4.744  0.00  0.00    -0.034 A 
HETATM    3  C   UNK N   1      26.642  25.849  -4.402  0.00  0.00     0.041 A 
HETATM    4  C   UNK N   1      26.455  24.915  -6.623  0.00  0.00     0.029 A 
HETATM    5  C   UNK N   1      25.256  26.943  -6.047  0.00  0.00     0.011 A 
HETATM    6  C   UNK N   1      25.600  25.962  -6.985  0.00  0.00     0.003 A 
ENDROOT
BRANCH   1   7
HETATM    7  N   UNK N   1      27.875  23.797  -4.990  0.00  0.00    -0.327 N 
HETATM    8  C   UNK N   1      29.197  23.767  -5.329  0.00  0.00     0.223 C 
HETATM    9  O   UNK N   1      29.699  24.657  -5.991  0.00  0.00    -0.273 OA
HETATM   10  H   UNK N   1      27.515  23.036  -4.478  0.00  0.00     0.169 HD
BRANCH   8  11
HETATM   11  C   UNK N   1      30.038  22.574  -4.986  0.00  0.00     0.123 C 
BRANCH  11  12
HETATM   12  C   UNK N   1      31.050  22.753  -3.831  0.00  0.00     0.053 C 
BRANCH  12  13
HETATM   13  C   UNK N   1      30.528  23.639  -2.679  0.00  0.00     0.016 C 
HETATM   14  C   UNK N   1      29.403  23.020  -1.860  0.00  0.00     0.006 C 
ENDBRANCH  12  13
BRANCH  12  15
HETATM   15  C   UNK N   1      32.294  23.469  -4.383  0.00  0.00     0.016 C 
HETATM   16  C   UNK N   1      33.005  22.698  -5.492  0.00  0.00     0.006 C 
ENDBRANCH  12  15
BRANCH  12  17
HETATM   17  C   UNK N   1      31.392  21.380  -3.282  0.00  0.00     0.149 C 
HETATM   18  O   UNK N   1      30.877  20.384  -3.768  0.00  0.00    -0.649 OA
BRANCH  17  19
HETATM   19  O   UNK N   1      32.256  21.237  -2.257  0.00  0.00    -0.776 OA
HETATM   20  H   UNK N   1      32.032  21.464  -1.376  0.00  0.00     0.167 HD
ENDBRANCH  17  19
ENDBRANCH  12  17
ENDBRANCH  11  12
ENDBRANCH   8  11
ENDBRANCH   1   7
BRANCH   2  21
HETATM   21  C   UNK N   1      25.540  27.954  -3.768  0.00  0.00     0.014 C 
HETATM   22  C   UNK N   1      26.463  28.799  -3.291  0.00  0.00     0.038 C 
BRANCH  22  23
HETATM   23  C   UNK N   1      27.741  29.132  -3.935  0.00  0.00     0.074 A 
HETATM   24  S   UNK N   1      27.903  29.656  -5.486  0.00  0.00    -0.082 SA
HETATM   25  C   UNK N   1      29.545  29.489  -5.628  0.00  0.00     0.077 A 
HETATM   26  C   UNK N   1      29.962  28.968  -4.389  0.00  0.00     0.020 A 
HETATM   27  N   UNK N   1      28.959  28.764  -3.457  0.00  0.00    -0.353 N 
ATOM     28  HN  UNK N   1      29.114  28.383  -2.525  1.00  0.00     0.166 HD
BRANCH  26  29
HETATM   29  C   UNK N   1      31.382  28.522  -4.175  0.00  0.00     0.036 A 
HETATM   30  C   UNK N   1      31.501  27.030  -3.956  0.00  0.00     0.011 A 
HETATM   31  C   UNK N   1      32.362  26.926  -5.201  0.00  0.00     0.001 A 
HETATM   32  C   UNK N   1      32.199  28.415  -5.446  0.00  0.00     0.011 A 
ENDBRANCH  26  29
ENDBRANCH  22  23
ENDBRANCH   2  21
TORSDOF 10
ENDMDL
