REMARK  10 active torsions:
REMARK  status: ('A' for Active; 'I' for Inactive)
REMARK    1  A    between atoms: O_2  and  C_18 
REMARK       I    between atoms: N_7  and  C_22 
REMARK    2  A    between atoms: N_7  and  C_24 
REMARK    3  A    between atoms: C_8  and  C_12 
REMARK    4  A    between atoms: C_13  and  C_14 
REMARK    5  A    between atoms: C_13  and  C_15 
REMARK    6  A    between atoms: C_13  and  C_16 
REMARK    7  A    between atoms: C_13  and  C_18 
REMARK    8  A    between atoms: C_16  and  C_22 
REMARK    9  A    between atoms: C_19  and  C_23 
REMARK   10  A    between atoms: C_25  and  C_26 
ROOT
HETATM    1  C   UNK N   1       4.221  -1.031  -0.637  0.00  0.00     0.035 A 
HETATM    2  C   UNK N   1       5.884   0.552   0.158  0.00  0.00    -0.034 A 
HETATM    3  C   UNK N   1       4.951  -0.450   0.407  0.00  0.00     0.041 A 
HETATM    4  C   UNK N   1       4.460  -0.616  -1.953  0.00  0.00     0.029 A 
HETATM    5  C   UNK N   1       6.129   0.955  -1.162  0.00  0.00     0.011 A 
HETATM    6  C   UNK N   1       5.417   0.370  -2.216  0.00  0.00     0.003 A 
ENDROOT
BRANCH   1   7
HETATM    7  N   UNK N   1       3.266  -2.060  -0.396  0.00  0.00    -0.327 N 
HETATM    8  C   UNK N   1       3.180  -2.778   0.761  0.00  0.00     0.223 C 
HETATM    9  O   UNK N   1       3.963  -2.598   1.676  0.00  0.00    -0.273 OA
HETATM   10  H   UNK N   1       2.624  -2.267  -1.114  0.00  0.00     0.169 HD
BRANCH   8  11
HETATM   11  C   UNK N   1       2.181  -3.889   0.888  0.00  0.00     0.123 C 
BRANCH  11  12
HETATM   12  C   UNK N   1       2.001  -4.799  -0.349  0.00  0.00     0.053 C 
BRANCH  12  13
HETATM   13  C   UNK N   1       3.259  -4.894  -1.239  0.00  0.00     0.016 C 
HETATM   14  C   UNK N   1       4.520  -5.343  -0.513  0.00  0.00     0.006 C 
ENDBRANCH  12  13
BRANCH  12  15
HETATM   15  C   UNK N   1       0.899  -4.197  -1.238  0.00  0.00     0.016 C 
HETATM   16  C   UNK N   1      -0.421  -3.966  -0.508  0.00  0.00     0.006 C 
ENDBRANCH  12  15
BRANCH  12  17
HETATM   17  C   UNK N   1       1.632  -6.190   0.135  0.00  0.00     0.149 C 
HETATM   18  O   UNK N   1       2.398  -6.806   0.861  0.00  0.00    -0.649 OA
BRANCH  17  19
HETATM   19  O   UNK N   1       0.468  -6.765  -0.228  0.00  0.00    -0.776 OA
HETATM   20  H   UNK N   1      -0.283  -6.265  -0.480  0.00  0.00     0.167 HD
ENDBRANCH  17  19
ENDBRANCH  12  17
ENDBRANCH  11  12
ENDBRANCH   8  11
ENDBRANCH   1   7
BRANCH   2  21
HETATM   21  C   UNK N   1       6.698   1.045   1.280  0.00  0.00     0.014 C 
HETATM   22  C   UNK N   1       7.292   2.243   1.360  0.00  0.00     0.038 C 
BRANCH  22  23
HETATM   23  C   UNK N   1       6.912   3.445   0.604  0.00  0.00     0.074 A 
HETATM   24  S   UNK N   1       7.972   4.543  -0.009  0.00  0.00    -0.082 SA
HETATM   25  C   UNK N   1       6.890   5.738  -0.390  0.00  0.00     0.077 A 
HETATM   26  C   UNK N   1       5.641   5.236   0.020  0.00  0.00     0.020 A 
HETATM   27  N   UNK N   1       5.659   3.969   0.577  0.00  0.00    -0.353 N 
ATOM     28  HN  UNK N   1       4.831   3.487   0.926  1.00  0.00     0.166 HD
BRANCH  26  29
HETATM   29  C   UNK N   1       4.411   6.101  -0.010  0.00  0.00     0.036 A 
HETATM   30  C   UNK N   1       3.907   6.353  -1.414  0.00  0.00     0.011 A 
HETATM   31  C   UNK N   1       2.601   5.667  -1.057  0.00  0.00     0.001 A 
HETATM   32  C   UNK N   1       3.129   5.371   0.335  0.00  0.00     0.011 A 
ENDBRANCH  26  29
ENDBRANCH  22  23
ENDBRANCH   2  21
TORSDOF 10
