REMARK  3 active torsions:
REMARK  status: ('A' for Active; 'I' for Inactive)
REMARK    1  A    between atoms: C_9  and  N_3 
REMARK       I    between atoms: N_3  and  C_21 
REMARK       I    between atoms: N_5  and  C_21 
REMARK    2  A    between atoms: N_5  and  C_22 
REMARK    3  A    between atoms: N_5  and  C_23 
ROOT
HETATM    1  N   UNK N   1       6.963   0.995  -0.162  0.00  0.00     0.095 N 
HETATM    2  N   UNK N   1       7.700  -5.019   0.118  0.00  0.00    -0.365 N 
HETATM    3  C   UNK N   1       6.803  -0.468  -0.335  0.00  0.00     0.260 C 
HETATM    4  C   UNK N   1       5.443  -1.006   0.148  0.00  0.00    -0.015 C 
HETATM    5  C   UNK N   1       8.005  -1.296   0.227  0.00  0.00     0.081 C 
HETATM    6  C   UNK N   1       4.555   1.295   0.405  0.00  0.00     0.138 C 
HETATM    7  C   UNK N   1       5.723   1.705  -0.516  0.00  0.00     0.301 C 
HETATM    8  C   UNK N   1       7.681  -2.771   0.153  0.00  0.00    -0.027 A 
HETATM    9  C   UNK N   1       5.261  -2.470   0.146  0.00  0.00    -0.015 A 
HETATM   10  C   UNK N   1       6.406  -3.224   0.125  0.00  0.00     0.009 A 
HETATM   11  C   UNK N   1       4.442  -0.193   0.488  0.00  0.00     0.010 C 
HETATM   12  C   UNK N   1       6.427  -4.571   0.106  0.00  0.00     0.043 A 
HETATM   13  C   UNK N   1       7.360   1.358   1.197  0.00  0.00     0.310 C 
HETATM   14  C   UNK N   1       8.491  -3.904   0.156  0.00  0.00     0.096 A 
HETATM   15  C   UNK N   1       4.029  -3.154   0.165  0.00  0.00     0.013 A 
HETATM   16  C   UNK N   1       5.239  -5.303   0.096  0.00  0.00     0.030 A 
HETATM   17  C   UNK N   1       4.021  -4.575   0.128  0.00  0.00     0.003 A 
HETATM   18  H   UNK N   1       7.998  -5.957   0.103  0.00  0.00     0.165 HD
ENDROOT
BRANCH   6  19
HETATM   19  N   UNK N   1       3.288   1.785  -0.079  0.00  0.00    -0.333 N 
HETATM   20  C   UNK N   1       2.932   3.094  -0.135  0.00  0.00     0.318 C 
HETATM   21  O   UNK N   1       3.730   3.962   0.190  0.00  0.00    -0.247 OA
HETATM   22  N   UNK N   1       1.668   3.427  -0.534  0.00  0.00    -0.335 N 
HETATM   23  H   UNK N   1       2.632   1.120  -0.393  0.00  0.00     0.165 HD
BRANCH  22  24
HETATM   24  C   UNK N   1       0.733   2.391  -0.916  0.00  0.00     0.123 C 
HETATM   25  C   UNK N   1      -0.398   2.295   0.094  0.00  0.00     0.026 C 
ENDBRANCH  22  24
BRANCH  22  26
HETATM   26  C   UNK N   1       1.240   4.809  -0.602  0.00  0.00     0.123 C 
HETATM   27  C   UNK N   1       1.089   5.395   0.791  0.00  0.00     0.026 C 
ENDBRANCH  22  26
ENDBRANCH   6  19
TORSDOF 3
