MODEL 1
REMARK VINA RESULT:      -7.2      0.000      0.000
REMARK  3 active torsions:
REMARK  status: ('A' for Active; 'I' for Inactive)
REMARK    1  A    between atoms: C_9  and  N_3 
REMARK       I    between atoms: N_3  and  C_21 
REMARK       I    between atoms: N_5  and  C_21 
REMARK    2  A    between atoms: N_5  and  C_22 
REMARK    3  A    between atoms: N_5  and  C_23 
ROOT
HETATM    1  N   UNK N   1      20.718  15.896   7.406  0.00  0.00     0.095 N 
HETATM    2  N   UNK N   1      21.175  11.850  11.902  0.00  0.00    -0.365 N 
HETATM    3  C   UNK N   1      21.191  15.107   8.568  0.00  0.00     0.260 C 
HETATM    4  C   UNK N   1      22.554  14.425   8.343  0.00  0.00    -0.015 C 
HETATM    5  C   UNK N   1      20.116  14.118   9.127  0.00  0.00     0.081 C 
HETATM    6  C   UNK N   1      22.918  15.707   6.251  0.00  0.00     0.138 C 
HETATM    7  C   UNK N   1      21.826  16.650   6.797  0.00  0.00     0.301 C 
HETATM    8  C   UNK N   1      20.737  13.248  10.197  0.00  0.00    -0.027 A 
HETATM    9  C   UNK N   1      23.025  13.503   9.394  0.00  0.00    -0.015 A 
HETATM   10  C   UNK N   1      22.069  13.014  10.245  0.00  0.00     0.009 A 
HETATM   11  C   UNK N   1      23.316  14.702   7.284  0.00  0.00     0.010 C 
HETATM   12  C   UNK N   1      22.322  12.174  11.268  0.00  0.00     0.043 A 
HETATM   13  C   UNK N   1      20.077  15.066   6.389  0.00  0.00     0.310 C 
HETATM   14  C   UNK N   1      20.178  12.508  11.236  0.00  0.00     0.096 A 
HETATM   15  C   UNK N   1      24.356  13.085   9.596  0.00  0.00     0.013 A 
HETATM   16  C   UNK N   1      23.623  11.747  11.535  0.00  0.00     0.030 A 
HETATM   17  C   UNK N   1      24.654  12.213  10.678  0.00  0.00     0.003 A 
HETATM   18  H   UNK N   1      21.077  11.260  12.683  0.00  0.00     0.165 HD
ENDROOT
BRANCH   6  19
HETATM   19  N   UNK N   1      24.114  16.422   5.880  0.00  0.00    -0.333 N 
HETATM   20  C   UNK N   1      24.244  17.195   4.772  0.00  0.00     0.318 C 
HETATM   21  O   UNK N   1      23.288  17.370   4.030  0.00  0.00    -0.247 OA
HETATM   22  N   UNK N   1      25.457  17.754   4.484  0.00  0.00    -0.335 N 
HETATM   23  H   UNK N   1      24.895  16.344   6.476  0.00  0.00     0.165 HD
BRANCH  22  24
HETATM   24  C   UNK N   1      26.581  17.540   5.370  0.00  0.00     0.123 C 
HETATM   25  C   UNK N   1      27.873  17.438   4.578  0.00  0.00     0.026 C 
ENDBRANCH  22  24
BRANCH  22  26
HETATM   26  C   UNK N   1      25.646  18.580   3.309  0.00  0.00     0.123 C 
HETATM   27  C   UNK N   1      25.422  20.045   3.639  0.00  0.00     0.026 C 
ENDBRANCH  22  26
ENDBRANCH   6  19
TORSDOF 3
ENDMDL
MODEL 2
REMARK VINA RESULT:      -7.1      2.461      4.007
REMARK  3 active torsions:
REMARK  status: ('A' for Active; 'I' for Inactive)
REMARK    1  A    between atoms: C_9  and  N_3 
REMARK       I    between atoms: N_3  and  C_21 
REMARK       I    between atoms: N_5  and  C_21 
REMARK    2  A    between atoms: N_5  and  C_22 
REMARK    3  A    between atoms: N_5  and  C_23 
ROOT
HETATM    1  N   UNK N   1      25.067  14.534   5.890  0.00  0.00     0.095 N 
HETATM    2  N   UNK N   1      23.149  11.946  11.029  0.00  0.00    -0.365 N 
HETATM    3  C   UNK N   1      24.244  13.871   6.928  0.00  0.00     0.260 C 
HETATM    4  C   UNK N   1      22.975  14.655   7.310  0.00  0.00    -0.015 C 
HETATM    5  C   UNK N   1      25.066  13.421   8.180  0.00  0.00     0.081 C 
HETATM    6  C   UNK N   1      23.288  16.211   5.405  0.00  0.00     0.138 C 
HETATM    7  C   UNK N   1      24.218  15.117   4.838  0.00  0.00     0.301 C 
HETATM    8  C   UNK N   1      24.124  12.906   9.245  0.00  0.00    -0.027 A 
HETATM    9  C   UNK N   1      22.179  14.136   8.438  0.00  0.00    -0.015 A 
HETATM   10  C   UNK N   1      22.825  13.284   9.296  0.00  0.00     0.009 A 
HETATM   11  C   UNK N   1      22.564  15.717   6.615  0.00  0.00     0.010 C 
HETATM   12  C   UNK N   1      22.250  12.706  10.368  0.00  0.00     0.043 A 
HETATM   13  C   UNK N   1      25.936  15.571   6.443  0.00  0.00     0.310 C 
HETATM   14  C   UNK N   1      24.324  12.070  10.341  0.00  0.00     0.096 A 
HETATM   15  C   UNK N   1      20.829  14.436   8.711  0.00  0.00     0.013 A 
HETATM   16  C   UNK N   1      20.909  12.943  10.673  0.00  0.00     0.030 A 
HETATM   17  C   UNK N   1      20.191  13.827   9.826  0.00  0.00     0.003 A 
HETATM   18  H   UNK N   1      22.990  11.412  11.840  0.00  0.00     0.165 HD
ENDROOT
BRANCH   6  19
HETATM   19  N   UNK N   1      22.284  16.613   4.451  0.00  0.00    -0.333 N 
HETATM   20  C   UNK N   1      22.223  17.832   3.856  0.00  0.00     0.318 C 
HETATM   21  O   UNK N   1      23.090  18.667   4.074  0.00  0.00    -0.247 OA
HETATM   22  N   UNK N   1      21.171  18.123   3.033  0.00  0.00    -0.335 N 
HETATM   23  H   UNK N   1      21.591  15.954   4.213  0.00  0.00     0.165 HD
BRANCH  22  24
HETATM   24  C   UNK N   1      20.151  17.127   2.783  0.00  0.00     0.123 C 
HETATM   25  C   UNK N   1      20.201  16.665   1.336  0.00  0.00     0.026 C 
ENDBRANCH  22  24
BRANCH  22  26
HETATM   26  C   UNK N   1      21.058  19.412   2.383  0.00  0.00     0.123 C 
HETATM   27  C   UNK N   1      20.319  20.399   3.269  0.00  0.00     0.026 C 
ENDBRANCH  22  26
ENDBRANCH   6  19
TORSDOF 3
ENDMDL
MODEL 3
REMARK VINA RESULT:      -7.0      7.559     11.161
REMARK  3 active torsions:
REMARK  status: ('A' for Active; 'I' for Inactive)
REMARK    1  A    between atoms: C_9  and  N_3 
REMARK       I    between atoms: N_3  and  C_21 
REMARK       I    between atoms: N_5  and  C_21 
REMARK    2  A    between atoms: N_5  and  C_22 
REMARK    3  A    between atoms: N_5  and  C_23 
ROOT
HETATM    1  N   UNK N   1      33.047  16.505   5.218  0.00  0.00     0.095 N 
HETATM    2  N   UNK N   1      27.486  18.597   6.439  0.00  0.00    -0.365 N 
HETATM    3  C   UNK N   1      31.883  17.169   5.852  0.00  0.00     0.260 C 
HETATM    4  C   UNK N   1      31.582  16.668   7.277  0.00  0.00    -0.015 C 
HETATM    5  C   UNK N   1      30.609  17.190   4.945  0.00  0.00     0.081 C 
HETATM    6  C   UNK N   1      33.723  15.421   7.357  0.00  0.00     0.138 C 
HETATM    7  C   UNK N   1      34.143  16.331   6.184  0.00  0.00     0.301 C 
HETATM    8  C   UNK N   1      29.439  17.737   5.731  0.00  0.00    -0.027 A 
HETATM    9  C   UNK N   1      30.354  17.173   7.920  0.00  0.00    -0.015 A 
HETATM   10  C   UNK N   1      29.397  17.686   7.083  0.00  0.00     0.009 A 
HETATM   11  C   UNK N   1      32.421  15.870   7.937  0.00  0.00     0.010 C 
HETATM   12  C   UNK N   1      28.224  18.202   7.498  0.00  0.00     0.043 A 
HETATM   13  C   UNK N   1      32.703  15.210   4.635  0.00  0.00     0.310 C 
HETATM   14  C   UNK N   1      28.231  18.304   5.331  0.00  0.00     0.096 A 
HETATM   15  C   UNK N   1      30.080  17.172   9.302  0.00  0.00     0.013 A 
HETATM   16  C   UNK N   1      27.908  18.254   8.856  0.00  0.00     0.030 A 
HETATM   17  C   UNK N   1      28.857  17.726   9.770  0.00  0.00     0.003 A 
HETATM   18  H   UNK N   1      26.594  19.012   6.461  0.00  0.00     0.165 HD
ENDROOT
BRANCH   6  19
HETATM   19  N   UNK N   1      34.688  15.441   8.429  0.00  0.00    -0.333 N 
HETATM   20  C   UNK N   1      35.573  14.446   8.695  0.00  0.00     0.318 C 
HETATM   21  O   UNK N   1      35.629  13.463   7.970  0.00  0.00    -0.247 OA
HETATM   22  N   UNK N   1      36.381  14.545   9.793  0.00  0.00    -0.335 N 
HETATM   23  H   UNK N   1      34.707  16.236   9.010  0.00  0.00     0.165 HD
BRANCH  22  24
HETATM   24  C   UNK N   1      36.305  15.713  10.644  0.00  0.00     0.123 C 
HETATM   25  C   UNK N   1      35.731  15.348  12.002  0.00  0.00     0.026 C 
ENDBRANCH  22  24
BRANCH  22  26
HETATM   26  C   UNK N   1      37.334  13.506  10.123  0.00  0.00     0.123 C 
HETATM   27  C   UNK N   1      38.718  13.862   9.608  0.00  0.00     0.026 C 
ENDBRANCH  22  26
ENDBRANCH   6  19
TORSDOF 3
ENDMDL
MODEL 4
REMARK VINA RESULT:      -7.0     12.204     14.533
REMARK  3 active torsions:
REMARK  status: ('A' for Active; 'I' for Inactive)
REMARK    1  A    between atoms: C_9  and  N_3 
REMARK       I    between atoms: N_3  and  C_21 
REMARK       I    between atoms: N_5  and  C_21 
REMARK    2  A    between atoms: N_5  and  C_22 
REMARK    3  A    between atoms: N_5  and  C_23 
ROOT
HETATM    1  N   UNK N   1      34.903   9.551  13.835  0.00  0.00     0.095 N 
HETATM    2  N   UNK N   1      35.102  10.369  19.842  0.00  0.00    -0.365 N 
HETATM    3  C   UNK N   1      34.726  10.087  15.205  0.00  0.00     0.260 C 
HETATM    4  C   UNK N   1      35.265  11.519  15.387  0.00  0.00    -0.015 C 
HETATM    5  C   UNK N   1      35.227   9.116  16.323  0.00  0.00     0.081 C 
HETATM    6  C   UNK N   1      35.579  11.776  12.940  0.00  0.00     0.138 C 
HETATM    7  C   UNK N   1      34.610  10.581  12.825  0.00  0.00     0.301 C 
HETATM    8  C   UNK N   1      35.156   9.810  17.665  0.00  0.00    -0.027 A 
HETATM    9  C   UNK N   1      35.259  12.070  16.755  0.00  0.00    -0.015 A 
HETATM   10  C   UNK N   1      35.181  11.158  17.776  0.00  0.00     0.009 A 
HETATM   11  C   UNK N   1      35.655  12.263  14.351  0.00  0.00     0.010 C 
HETATM   12  C   UNK N   1      35.151  11.484  19.083  0.00  0.00     0.043 A 
HETATM   13  C   UNK N   1      36.246   9.019  13.612  0.00  0.00     0.310 C 
HETATM   14  C   UNK N   1      35.114   9.318  18.967  0.00  0.00     0.096 A 
HETATM   15  C   UNK N   1      35.327  13.434  17.102  0.00  0.00     0.013 A 
HETATM   16  C   UNK N   1      35.188  12.819  19.487  0.00  0.00     0.030 A 
HETATM   17  C   UNK N   1      35.279  13.807  18.472  0.00  0.00     0.003 A 
HETATM   18  H   UNK N   1      35.067  10.322  20.824  0.00  0.00     0.165 HD
ENDROOT
BRANCH   6  19
HETATM   19  N   UNK N   1      35.156  12.894  12.134  0.00  0.00    -0.333 N 
HETATM   20  C   UNK N   1      35.325  12.990  10.790  0.00  0.00     0.318 C 
HETATM   21  O   UNK N   1      35.823  12.063  10.166  0.00  0.00    -0.247 OA
HETATM   22  N   UNK N   1      34.957  14.140  10.150  0.00  0.00    -0.335 N 
HETATM   23  H   UNK N   1      34.710  13.644  12.592  0.00  0.00     0.165 HD
BRANCH  22  24
HETATM   24  C   UNK N   1      34.370  15.230  10.899  0.00  0.00     0.123 C 
HETATM   25  C   UNK N   1      35.358  16.376  11.037  0.00  0.00     0.026 C 
ENDBRANCH  22  24
BRANCH  22  26
HETATM   26  C   UNK N   1      35.126  14.292   8.719  0.00  0.00     0.123 C 
HETATM   27  C   UNK N   1      33.785  14.505   8.039  0.00  0.00     0.026 C 
ENDBRANCH  22  26
ENDBRANCH   6  19
TORSDOF 3
ENDMDL
MODEL 5
REMARK VINA RESULT:      -6.7      4.710      7.976
REMARK  3 active torsions:
REMARK  status: ('A' for Active; 'I' for Inactive)
REMARK    1  A    between atoms: C_9  and  N_3 
REMARK       I    between atoms: N_3  and  C_21 
REMARK       I    between atoms: N_5  and  C_21 
REMARK    2  A    between atoms: N_5  and  C_22 
REMARK    3  A    between atoms: N_5  and  C_23 
ROOT
HETATM    1  N   UNK N   1      26.226  15.059   5.775  0.00  0.00     0.095 N 
HETATM    2  N   UNK N   1      22.560  19.349   3.551  0.00  0.00    -0.365 N 
HETATM    3  C   UNK N   1      25.637  16.140   4.950  0.00  0.00     0.260 C 
HETATM    4  C   UNK N   1      26.524  17.394   4.842  0.00  0.00    -0.015 C 
HETATM    5  C   UNK N   1      24.162  16.485   5.339  0.00  0.00     0.081 C 
HETATM    6  C   UNK N   1      28.437  16.205   5.879  0.00  0.00     0.138 C 
HETATM    7  C   UNK N   1      27.667  14.921   5.507  0.00  0.00     0.301 C 
HETATM    8  C   UNK N   1      23.704  17.697   4.560  0.00  0.00    -0.027 A 
HETATM    9  C   UNK N   1      25.946  18.568   4.161  0.00  0.00    -0.015 A 
HETATM   10  C   UNK N   1      24.579  18.601   4.061  0.00  0.00     0.009 A 
HETATM   11  C   UNK N   1      27.784  17.407   5.277  0.00  0.00     0.010 C 
HETATM   12  C   UNK N   1      23.885  19.587   3.461  0.00  0.00     0.043 A 
HETATM   13  C   UNK N   1      26.016  15.269   7.206  0.00  0.00     0.310 C 
HETATM   14  C   UNK N   1      22.435  18.176   4.243  0.00  0.00     0.096 A 
HETATM   15  C   UNK N   1      26.667  19.648   3.612  0.00  0.00     0.013 A 
HETATM   16  C   UNK N   1      24.545  20.669   2.875  0.00  0.00     0.030 A 
HETATM   17  C   UNK N   1      25.962  20.694   2.957  0.00  0.00     0.003 A 
HETATM   18  H   UNK N   1      21.832  19.906   3.193  0.00  0.00     0.165 HD
ENDROOT
BRANCH   6  19
HETATM   19  N   UNK N   1      29.795  16.180   5.397  0.00  0.00    -0.333 N 
HETATM   20  C   UNK N   1      30.844  16.801   5.995  0.00  0.00     0.318 C 
HETATM   21  O   UNK N   1      30.683  17.396   7.052  0.00  0.00    -0.247 OA
HETATM   22  N   UNK N   1      32.070  16.774   5.392  0.00  0.00    -0.335 N 
HETATM   23  H   UNK N   1      29.976  15.673   4.571  0.00  0.00     0.165 HD
BRANCH  22  24
HETATM   24  C   UNK N   1      32.247  16.067   4.143  0.00  0.00     0.123 C 
HETATM   25  C   UNK N   1      32.316  17.046   2.982  0.00  0.00     0.026 C 
ENDBRANCH  22  24
BRANCH  22  26
HETATM   26  C   UNK N   1      33.216  17.429   5.989  0.00  0.00     0.123 C 
HETATM   27  C   UNK N   1      34.214  16.406   6.503  0.00  0.00     0.026 C 
ENDBRANCH  22  26
ENDBRANCH   6  19
TORSDOF 3
ENDMDL
MODEL 6
REMARK VINA RESULT:      -6.7      7.038      9.376
REMARK  3 active torsions:
REMARK  status: ('A' for Active; 'I' for Inactive)
REMARK    1  A    between atoms: C_9  and  N_3 
REMARK       I    between atoms: N_3  and  C_21 
REMARK       I    between atoms: N_5  and  C_21 
REMARK    2  A    between atoms: N_5  and  C_22 
REMARK    3  A    between atoms: N_5  and  C_23 
ROOT
HETATM    1  N   UNK N   1      28.965  15.642   3.714  0.00  0.00     0.095 N 
HETATM    2  N   UNK N   1      24.900  20.134   3.989  0.00  0.00    -0.365 N 
HETATM    3  C   UNK N   1      28.316  16.968   3.836  0.00  0.00     0.260 C 
HETATM    4  C   UNK N   1      28.622  17.690   5.161  0.00  0.00    -0.015 C 
HETATM    5  C   UNK N   1      26.787  16.945   3.508  0.00  0.00     0.081 C 
HETATM    6  C   UNK N   1      30.374  16.031   5.732  0.00  0.00     0.138 C 
HETATM    7  C   UNK N   1      30.344  15.681   4.230  0.00  0.00     0.301 C 
HETATM    8  C   UNK N   1      26.184  18.297   3.814  0.00  0.00    -0.027 A 
HETATM    9  C   UNK N   1      27.898  18.949   5.422  0.00  0.00    -0.015 A 
HETATM   10  C   UNK N   1      26.748  19.149   4.702  0.00  0.00     0.009 A 
HETATM   11  C   UNK N   1      29.549  17.246   6.011  0.00  0.00     0.010 C 
HETATM   12  C   UNK N   1      25.972  20.245   4.802  0.00  0.00     0.043 A 
HETATM   13  C   UNK N   1      28.220  14.588   4.400  0.00  0.00     0.310 C 
HETATM   14  C   UNK N   1      25.018  18.918   3.374  0.00  0.00     0.096 A 
HETATM   15  C   UNK N   1      28.278  19.952   6.337  0.00  0.00     0.013 A 
HETATM   16  C   UNK N   1      26.311  21.283   5.670  0.00  0.00     0.030 A 
HETATM   17  C   UNK N   1      27.486  21.127   6.450  0.00  0.00     0.003 A 
HETATM   18  H   UNK N   1      24.180  20.794   3.865  0.00  0.00     0.165 HD
ENDROOT
BRANCH   6  19
HETATM   19  N   UNK N   1      31.710  16.319   6.193  0.00  0.00    -0.333 N 
HETATM   20  C   UNK N   1      32.416  15.545   7.057  0.00  0.00     0.318 C 
HETATM   21  O   UNK N   1      31.947  14.491   7.462  0.00  0.00    -0.247 OA
HETATM   22  N   UNK N   1      33.643  15.969   7.485  0.00  0.00    -0.335 N 
HETATM   23  H   UNK N   1      32.143  17.137   5.855  0.00  0.00     0.165 HD
BRANCH  22  24
HETATM   24  C   UNK N   1      34.187  17.218   6.999  0.00  0.00     0.123 C 
HETATM   25  C   UNK N   1      34.193  18.263   8.102  0.00  0.00     0.026 C 
ENDBRANCH  22  24
BRANCH  22  26
HETATM   26  C   UNK N   1      34.430  15.183   8.412  0.00  0.00     0.123 C 
HETATM   27  C   UNK N   1      35.623  14.558   7.711  0.00  0.00     0.026 C 
ENDBRANCH  22  26
ENDBRANCH   6  19
TORSDOF 3
ENDMDL
MODEL 7
REMARK VINA RESULT:      -6.6      5.276      8.361
REMARK  3 active torsions:
REMARK  status: ('A' for Active; 'I' for Inactive)
REMARK    1  A    between atoms: C_9  and  N_3 
REMARK       I    between atoms: N_3  and  C_21 
REMARK       I    between atoms: N_5  and  C_21 
REMARK    2  A    between atoms: N_5  and  C_22 
REMARK    3  A    between atoms: N_5  and  C_23 
ROOT
HETATM    1  N   UNK N   1      30.266  15.319   3.764  0.00  0.00     0.095 N 
HETATM    2  N   UNK N   1      31.829  17.980   8.986  0.00  0.00    -0.365 N 
HETATM    3  C   UNK N   1      30.320  15.753   5.180  0.00  0.00     0.260 C 
HETATM    4  C   UNK N   1      29.031  16.442   5.668  0.00  0.00    -0.015 C 
HETATM    5  C   UNK N   1      31.604  16.574   5.531  0.00  0.00     0.081 C 
HETATM    6  C   UNK N   1      27.820  15.770   3.611  0.00  0.00     0.138 C 
HETATM    7  C   UNK N   1      28.953  14.736   3.442  0.00  0.00     0.301 C 
HETATM    8  C   UNK N   1      31.493  17.107   6.941  0.00  0.00    -0.027 A 
HETATM    9  C   UNK N   1      29.057  17.033   7.019  0.00  0.00    -0.015 A 
HETATM   10  C   UNK N   1      30.296  17.292   7.545  0.00  0.00     0.009 A 
HETATM   11  C   UNK N   1      27.914  16.448   4.940  0.00  0.00     0.010 C 
HETATM   12  C   UNK N   1      30.507  17.817   8.768  0.00  0.00     0.043 A 
HETATM   13  C   UNK N   1      30.556  16.407   2.833  0.00  0.00     0.310 C 
HETATM   14  C   UNK N   1      32.454  17.548   7.848  0.00  0.00     0.096 A 
HETATM   15  C   UNK N   1      27.933  17.353   7.807  0.00  0.00     0.013 A 
HETATM   16  C   UNK N   1      29.435  18.129   9.605  0.00  0.00     0.030 A 
HETATM   17  C   UNK N   1      28.126  17.892   9.109  0.00  0.00     0.003 A 
HETATM   18  H   UNK N   1      32.256  18.337   9.797  0.00  0.00     0.165 HD
ENDROOT
BRANCH   6  19
HETATM   19  N   UNK N   1      26.516  15.158   3.544  0.00  0.00    -0.333 N 
HETATM   20  C   UNK N   1      25.728  15.129   2.439  0.00  0.00     0.318 C 
HETATM   21  O   UNK N   1      26.131  15.598   1.384  0.00  0.00    -0.247 OA
HETATM   22  N   UNK N   1      24.474  14.593   2.526  0.00  0.00    -0.335 N 
HETATM   23  H   UNK N   1      26.172  14.729   4.362  0.00  0.00     0.165 HD
BRANCH  22  24
HETATM   24  C   UNK N   1      24.008  14.041   3.780  0.00  0.00     0.123 C 
HETATM   25  C   UNK N   1      22.924  14.921   4.380  0.00  0.00     0.026 C 
ENDBRANCH  22  24
BRANCH  22  26
HETATM   26  C   UNK N   1      23.594  14.547   1.376  0.00  0.00     0.123 C 
HETATM   27  C   UNK N   1      23.749  13.233   0.632  0.00  0.00     0.026 C 
ENDBRANCH  22  26
ENDBRANCH   6  19
TORSDOF 3
ENDMDL
MODEL 8
REMARK VINA RESULT:      -6.5      5.176      8.075
REMARK  3 active torsions:
REMARK  status: ('A' for Active; 'I' for Inactive)
REMARK    1  A    between atoms: C_9  and  N_3 
REMARK       I    between atoms: N_3  and  C_21 
REMARK       I    between atoms: N_5  and  C_21 
REMARK    2  A    between atoms: N_5  and  C_22 
REMARK    3  A    between atoms: N_5  and  C_23 
ROOT
HETATM    1  N   UNK N   1      29.446  15.475   3.812  0.00  0.00     0.095 N 
HETATM    2  N   UNK N   1      32.182  17.593   8.793  0.00  0.00    -0.365 N 
HETATM    3  C   UNK N   1      29.752  15.883   5.203  0.00  0.00     0.260 C 
HETATM    4  C   UNK N   1      28.769  16.921   5.777  0.00  0.00    -0.015 C 
HETATM    5  C   UNK N   1      31.245  16.294   5.417  0.00  0.00     0.081 C 
HETATM    6  C   UNK N   1      27.234  16.621   3.853  0.00  0.00     0.138 C 
HETATM    7  C   UNK N   1      27.996  15.300   3.622  0.00  0.00     0.301 C 
HETATM    8  C   UNK N   1      31.423  16.845   6.814  0.00  0.00    -0.027 A 
HETATM    9  C   UNK N   1      29.089  17.488   7.101  0.00  0.00    -0.015 A 
HETATM   10  C   UNK N   1      30.392  17.376   7.511  0.00  0.00     0.009 A 
HETATM   11  C   UNK N   1      27.641  17.250   5.146  0.00  0.00     0.010 C 
HETATM   12  C   UNK N   1      30.856  17.823   8.694  0.00  0.00     0.043 A 
HETATM   13  C   UNK N   1      29.955  16.425   2.825  0.00  0.00     0.310 C 
HETATM   14  C   UNK N   1      32.548  16.991   7.621  0.00  0.00     0.096 A 
HETATM   15  C   UNK N   1      28.183  18.128   7.971  0.00  0.00     0.013 A 
HETATM   16  C   UNK N   1      30.002  18.440   9.608  0.00  0.00     0.030 A 
HETATM   17  C   UNK N   1      28.642  18.594   9.233  0.00  0.00     0.003 A 
HETATM   18  H   UNK N   1      32.767  17.815   9.553  0.00  0.00     0.165 HD
ENDROOT
BRANCH   6  19
HETATM   19  N   UNK N   1      25.808  16.418   3.917  0.00  0.00    -0.333 N 
HETATM   20  C   UNK N   1      24.876  17.396   3.778  0.00  0.00     0.318 C 
HETATM   21  O   UNK N   1      25.222  18.542   3.528  0.00  0.00    -0.247 OA
HETATM   22  N   UNK N   1      23.555  17.090   3.945  0.00  0.00    -0.335 N 
HETATM   23  H   UNK N   1      25.485  15.500   4.072  0.00  0.00     0.165 HD
BRANCH  22  24
HETATM   24  C   UNK N   1      23.158  15.731   4.240  0.00  0.00     0.123 C 
HETATM   25  C   UNK N   1      22.400  15.130   3.069  0.00  0.00     0.026 C 
ENDBRANCH  22  24
BRANCH  22  26
HETATM   26  C   UNK N   1      22.526  18.102   3.815  0.00  0.00     0.123 C 
HETATM   27  C   UNK N   1      21.779  18.281   5.125  0.00  0.00     0.026 C 
ENDBRANCH  22  26
ENDBRANCH   6  19
TORSDOF 3
ENDMDL
MODEL 9
REMARK VINA RESULT:      -6.5      5.960      9.200
REMARK  3 active torsions:
REMARK  status: ('A' for Active; 'I' for Inactive)
REMARK    1  A    between atoms: C_9  and  N_3 
REMARK       I    between atoms: N_3  and  C_21 
REMARK       I    between atoms: N_5  and  C_21 
REMARK    2  A    between atoms: N_5  and  C_22 
REMARK    3  A    between atoms: N_5  and  C_23 
ROOT
HETATM    1  N   UNK N   1      29.510  18.374   8.633  0.00  0.00     0.095 N 
HETATM    2  N   UNK N   1      34.569  16.243   6.054  0.00  0.00    -0.365 N 
HETATM    3  C   UNK N   1      30.619  18.099   7.690  0.00  0.00     0.260 C 
HETATM    4  C   UNK N   1      30.157  17.529   6.336  0.00  0.00    -0.015 C 
HETATM    5  C   UNK N   1      31.780  17.263   8.323  0.00  0.00     0.081 C 
HETATM    6  C   UNK N   1      27.786  18.022   6.868  0.00  0.00     0.138 C 
HETATM    7  C   UNK N   1      28.363  18.977   7.934  0.00  0.00     0.301 C 
HETATM    8  C   UNK N   1      32.781  16.897   7.251  0.00  0.00    -0.027 A 
HETATM    9  C   UNK N   1      31.208  17.092   5.398  0.00  0.00    -0.015 A 
HETATM   10  C   UNK N   1      32.440  16.836   5.943  0.00  0.00     0.009 A 
HETATM   11  C   UNK N   1      28.871  17.494   5.986  0.00  0.00     0.010 C 
HETATM   12  C   UNK N   1      33.516  16.442   5.234  0.00  0.00     0.043 A 
HETATM   13  C   UNK N   1      29.070  17.176   9.345  0.00  0.00     0.310 C 
HETATM   14  C   UNK N   1      34.120  16.516   7.317  0.00  0.00     0.096 A 
HETATM   15  C   UNK N   1      31.060  16.914   4.007  0.00  0.00     0.013 A 
HETATM   16  C   UNK N   1      33.438  16.276   3.851  0.00  0.00     0.030 A 
HETATM   17  C   UNK N   1      32.183  16.516   3.232  0.00  0.00     0.003 A 
HETATM   18  H   UNK N   1      35.476  15.960   5.796  0.00  0.00     0.165 HD
ENDROOT
BRANCH   6  19
HETATM   19  N   UNK N   1      26.833  18.683   6.010  0.00  0.00    -0.333 N 
HETATM   20  C   UNK N   1      25.813  18.064   5.362  0.00  0.00     0.318 C 
HETATM   21  O   UNK N   1      25.616  16.868   5.526  0.00  0.00    -0.247 OA
HETATM   22  N   UNK N   1      25.028  18.786   4.508  0.00  0.00    -0.335 N 
HETATM   23  H   UNK N   1      26.929  19.655   5.886  0.00  0.00     0.165 HD
BRANCH  22  24
HETATM   24  C   UNK N   1      25.271  20.200   4.322  0.00  0.00     0.123 C 
HETATM   25  C   UNK N   1      26.090  20.440   3.064  0.00  0.00     0.026 C 
ENDBRANCH  22  24
BRANCH  22  26
HETATM   26  C   UNK N   1      23.934  18.169   3.788  0.00  0.00     0.123 C 
HETATM   27  C   UNK N   1      22.703  19.058   3.812  0.00  0.00     0.026 C 
ENDBRANCH  22  26
ENDBRANCH   6  19
TORSDOF 3
ENDMDL
