REMARK  4 active torsions:
REMARK  status: ('A' for Active; 'I' for Inactive)
REMARK    1  A    between atoms: O_4  and  C_30 
REMARK    2  A    between atoms: O_5  and  C_31 
REMARK       I    between atoms: N_6  and  C_17 
REMARK       I    between atoms: N_7  and  C_19 
REMARK    3  A    between atoms: N_12  and  C_25 
REMARK    4  A    between atoms: C_17  and  C_18 
ROOT
HETATM    1  O   UNK N   1       4.003   3.693   0.315  0.00  0.00    -0.270 OA
HETATM    2  N   UNK N   1       5.361   2.115  -0.535  0.00  0.00    -0.347 N 
HETATM    3  N   UNK N   1       7.461   0.618   0.283  0.00  0.00    -0.214 N 
HETATM    4  N   UNK N   1       9.868   0.500   0.256  0.00  0.00    -0.191 N 
ATOM      5  HN  UNK N   1       9.906   1.509   0.398  1.00  0.00     0.184 HD
HETATM    6  N   UNK N   1       8.607  -1.475   0.000  0.00  0.00    -0.176 N 
ATOM      7  HN  UNK N   1       7.697  -1.931  -0.067  1.00  0.00     0.186 HD
HETATM    8  C   UNK N   1       6.573   2.858  -0.257  0.00  0.00     0.146 C 
HETATM    9  C   UNK N   1       5.510   0.789  -1.084  0.00  0.00     0.146 C 
HETATM   10  C   UNK N   1       7.459   2.020   0.682  0.00  0.00     0.161 C 
HETATM   11  C   UNK N   1       6.212  -0.034  -0.026  0.00  0.00     0.161 C 
HETATM   12  C   UNK N   1       4.127   2.580  -0.178  0.00  0.00     0.251 C 
HETATM   13  C   UNK N   1       8.663  -0.124   0.178  0.00  0.00     0.682 A 
HETATM   14  C   UNK N   1      11.022  -0.206   0.148  0.00  0.00     0.066 A 
HETATM   15  C   UNK N   1      10.980  -1.601  -0.021  0.00  0.00     0.038 A 
HETATM   16  C   UNK N   1       9.732  -2.225  -0.089  0.00  0.00     0.127 A 
HETATM   17  C   UNK N   1      12.247   0.451   0.191  0.00  0.00     0.070 A 
HETATM   18  C   UNK N   1      12.169  -2.325  -0.123  0.00  0.00     0.057 A 
HETATM   19  C   UNK N   1      13.452  -0.265   0.073  0.00  0.00     0.103 A 
HETATM   20  C   UNK N   1      13.410  -1.681  -0.077  0.00  0.00     0.102 A 
ENDROOT
BRANCH  16  21
HETATM   21  N   UNK N   1       9.627  -3.623  -0.257  0.00  0.00    -0.384 N 
HETATM   22  H   UNK N   1       8.746  -4.046  -0.374  0.00  0.00     0.157 HD
HETATM   23  H   UNK N   1      10.440  -4.178  -0.257  0.00  0.00     0.157 HD
ENDBRANCH  16  21
BRANCH  19  24
HETATM   24  O   UNK N   1      14.638   0.391   0.095  0.00  0.00    -0.353 OA
HETATM   25  C   UNK N   1      14.746   1.761   0.182  0.00  0.00     0.210 C 
ENDBRANCH  19  24
BRANCH  12  26
HETATM   26  C   UNK N   1       2.915   1.696  -0.364  0.00  0.00     0.245 C 
HETATM   27  O   UNK N   1       1.710   2.310  -0.060  0.00  0.00    -0.331 OA
HETATM   28  C   UNK N   1       0.584   1.554   0.008  0.00  0.00     0.103 A 
HETATM   29  C   UNK N   1       0.703   0.155   0.137  0.00  0.00     0.102 A 
HETATM   30  C   UNK N   1      -0.682   2.140  -0.058  0.00  0.00     0.040 A 
HETATM   31  O   UNK N   1       1.933  -0.398   0.246  0.00  0.00    -0.345 OA
HETATM   32  C   UNK N   1      -0.436  -0.650   0.164  0.00  0.00     0.039 A 
HETATM   33  C   UNK N   1       3.047   0.396   0.446  0.00  0.00     0.218 C 
HETATM   34  C   UNK N   1      -1.701  -0.061   0.080  0.00  0.00     0.003 A 
HETATM   35  C   UNK N   1      -1.824   1.330  -0.020  0.00  0.00     0.003 A 
ENDBRANCH  12  26
BRANCH  20  36
HETATM   36  O   UNK N   1      14.519  -2.457  -0.186  0.00  0.00    -0.353 OA
HETATM   37  C   UNK N   1      15.818  -2.007  -0.148  0.00  0.00     0.210 C 
ENDBRANCH  20  36
TORSDOF 4
