MODEL 1
REMARK VINA RESULT:      -8.0      0.000      0.000
REMARK  4 active torsions:
REMARK  status: ('A' for Active; 'I' for Inactive)
REMARK    1  A    between atoms: O_4  and  C_30 
REMARK    2  A    between atoms: O_5  and  C_31 
REMARK       I    between atoms: N_6  and  C_17 
REMARK       I    between atoms: N_7  and  C_19 
REMARK    3  A    between atoms: N_12  and  C_25 
REMARK    4  A    between atoms: C_17  and  C_18 
ROOT
HETATM    1  O   UNK N   1      35.687  17.349  10.188  0.00  0.00    -0.270 OA
HETATM    2  N   UNK N   1      33.746  16.425   9.530  0.00  0.00    -0.347 N 
HETATM    3  N   UNK N   1      32.352  16.097   7.234  0.00  0.00    -0.214 N 
HETATM    4  N   UNK N   1      30.562  17.031   5.918  0.00  0.00    -0.191 N 
ATOM      5  HN  UNK N   1      30.892  17.966   6.157  1.00  0.00     0.184 HD
HETATM    6  N   UNK N   1      30.789  14.690   6.072  0.00  0.00    -0.176 N 
ATOM      7  HN  UNK N   1      31.284  13.880   6.446  1.00  0.00     0.186 HD
HETATM    8  C   UNK N   1      33.242  17.648   8.938  0.00  0.00     0.146 C 
HETATM    9  C   UNK N   1      32.937  15.239   9.385  0.00  0.00     0.146 C 
HETATM   10  C   UNK N   1      32.979  17.397   7.442  0.00  0.00     0.161 C 
HETATM   11  C   UNK N   1      32.886  14.936   7.903  0.00  0.00     0.161 C 
HETATM   12  C   UNK N   1      34.989  16.349  10.091  0.00  0.00     0.251 C 
HETATM   13  C   UNK N   1      31.219  15.942   6.398  0.00  0.00     0.682 A 
HETATM   14  C   UNK N   1      29.472  16.887   5.123  0.00  0.00     0.066 A 
HETATM   15  C   UNK N   1      29.026  15.603   4.767  0.00  0.00     0.038 A 
HETATM   16  C   UNK N   1      29.720  14.497   5.262  0.00  0.00     0.127 A 
HETATM   17  C   UNK N   1      28.787  18.010   4.671  0.00  0.00     0.070 A 
HETATM   18  C   UNK N   1      27.909  15.459   3.942  0.00  0.00     0.057 A 
HETATM   19  C   UNK N   1      27.650  17.878   3.853  0.00  0.00     0.103 A 
HETATM   20  C   UNK N   1      27.211  16.577   3.474  0.00  0.00     0.102 A 
ENDROOT
BRANCH  16  21
HETATM   21  N   UNK N   1      29.319  13.182   4.938  0.00  0.00    -0.384 N 
HETATM   22  H   UNK N   1      28.489  12.808   5.311  0.00  0.00     0.157 HD
HETATM   23  H   UNK N   1      29.874  12.637   4.334  0.00  0.00     0.157 HD
ENDBRANCH  16  21
BRANCH  19  24
HETATM   24  O   UNK N   1      26.979  18.981   3.437  0.00  0.00    -0.353 OA
HETATM   25  C   UNK N   1      27.057  20.200   4.072  0.00  0.00     0.210 C 
ENDBRANCH  19  24
BRANCH  12  26
HETATM   26  C   UNK N   1      35.514  15.012  10.562  0.00  0.00     0.245 C 
HETATM   27  O   UNK N   1      35.619  14.895  11.939  0.00  0.00    -0.331 OA
HETATM   28  C   UNK N   1      36.269  13.823  12.461  0.00  0.00     0.103 A 
HETATM   29  C   UNK N   1      37.122  13.066  11.632  0.00  0.00     0.102 A 
HETATM   30  C   UNK N   1      36.095  13.456  13.798  0.00  0.00     0.040 A 
HETATM   31  O   UNK N   1      37.318  13.456  10.352  0.00  0.00    -0.345 OA
HETATM   32  C   UNK N   1      37.767  11.933  12.130  0.00  0.00     0.039 A 
HETATM   33  C   UNK N   1      36.870  14.689   9.914  0.00  0.00     0.218 C 
HETATM   34  C   UNK N   1      37.577  11.560  13.464  0.00  0.00     0.003 A 
HETATM   35  C   UNK N   1      36.752  12.325  14.298  0.00  0.00     0.003 A 
ENDBRANCH  12  26
BRANCH  20  36
HETATM   36  O   UNK N   1      26.133  16.351   2.679  0.00  0.00    -0.353 OA
HETATM   37  C   UNK N   1      26.000  15.312   1.788  0.00  0.00     0.210 C 
ENDBRANCH  20  36
TORSDOF 4
ENDMDL
MODEL 2
REMARK VINA RESULT:      -7.5      4.418      6.398
REMARK  4 active torsions:
REMARK  status: ('A' for Active; 'I' for Inactive)
REMARK    1  A    between atoms: O_4  and  C_30 
REMARK    2  A    between atoms: O_5  and  C_31 
REMARK       I    between atoms: N_6  and  C_17 
REMARK       I    between atoms: N_7  and  C_19 
REMARK    3  A    between atoms: N_12  and  C_25 
REMARK    4  A    between atoms: C_17  and  C_18 
ROOT
HETATM    1  O   UNK N   1      31.227  17.573   4.779  0.00  0.00    -0.270 OA
HETATM    2  N   UNK N   1      29.209  17.545   5.772  0.00  0.00    -0.347 N 
HETATM    3  N   UNK N   1      26.750  16.523   5.297  0.00  0.00    -0.214 N 
HETATM    4  N   UNK N   1      24.578  17.067   4.404  0.00  0.00    -0.191 N 
ATOM      5  HN  UNK N   1      25.031  17.606   3.666  1.00  0.00     0.184 HD
HETATM    6  N   UNK N   1      24.736  15.700   6.318  0.00  0.00    -0.176 N 
ATOM      7  HN  UNK N   1      25.315  15.237   7.019  1.00  0.00     0.186 HD
HETATM    8  C   UNK N   1      28.521  18.108   4.629  0.00  0.00     0.146 C 
HETATM    9  C   UNK N   1      28.402  17.152   6.902  0.00  0.00     0.146 C 
HETATM   10  C   UNK N   1      27.448  17.109   4.160  0.00  0.00     0.161 C 
HETATM   11  C   UNK N   1      27.510  16.030   6.420  0.00  0.00     0.161 C 
HETATM   12  C   UNK N   1      30.547  17.267   5.750  0.00  0.00     0.251 C 
HETATM   13  C   UNK N   1      25.337  16.432   5.337  0.00  0.00     0.682 A 
HETATM   14  C   UNK N   1      23.224  16.989   4.443  0.00  0.00     0.066 A 
HETATM   15  C   UNK N   1      22.591  16.226   5.440  0.00  0.00     0.038 A 
HETATM   16  C   UNK N   1      23.388  15.574   6.383  0.00  0.00     0.127 A 
HETATM   17  C   UNK N   1      22.460  17.675   3.505  0.00  0.00     0.070 A 
HETATM   18  C   UNK N   1      21.198  16.142   5.471  0.00  0.00     0.057 A 
HETATM   19  C   UNK N   1      21.055  17.611   3.535  0.00  0.00     0.103 A 
HETATM   20  C   UNK N   1      20.415  16.821   4.533  0.00  0.00     0.102 A 
ENDROOT
BRANCH  16  21
HETATM   21  N   UNK N   1      22.810  14.793   7.407  0.00  0.00    -0.384 N 
HETATM   22  H   UNK N   1      21.880  14.949   7.688  0.00  0.00     0.157 HD
HETATM   23  H   UNK N   1      23.340  14.087   7.843  0.00  0.00     0.157 HD
ENDBRANCH  16  21
BRANCH  19  24
HETATM   24  O   UNK N   1      20.323  18.302   2.628  0.00  0.00    -0.353 OA
HETATM   25  C   UNK N   1      19.904  19.600   2.820  0.00  0.00     0.210 C 
ENDBRANCH  19  24
BRANCH  12  26
HETATM   26  C   UNK N   1      31.179  16.547   6.919  0.00  0.00     0.245 C 
HETATM   27  O   UNK N   1      32.350  17.127   7.380  0.00  0.00    -0.331 OA
HETATM   28  C   UNK N   1      33.107  16.454   8.284  0.00  0.00     0.103 A 
HETATM   29  C   UNK N   1      32.904  15.070   8.455  0.00  0.00     0.102 A 
HETATM   30  C   UNK N   1      34.072  17.114   9.048  0.00  0.00     0.040 A 
HETATM   31  O   UNK N   1      31.999  14.432   7.678  0.00  0.00    -0.345 OA
HETATM   32  C   UNK N   1      33.636  14.362   9.409  0.00  0.00     0.039 A 
HETATM   33  C   UNK N   1      31.435  15.068   6.587  0.00  0.00     0.218 C 
HETATM   34  C   UNK N   1      34.588  15.029  10.184  0.00  0.00     0.003 A 
HETATM   35  C   UNK N   1      34.813  16.399   9.997  0.00  0.00     0.003 A 
ENDBRANCH  12  26
BRANCH  20  36
HETATM   36  O   UNK N   1      19.067  16.689   4.634  0.00  0.00    -0.353 OA
HETATM   37  C   UNK N   1      18.409  15.711   5.343  0.00  0.00     0.210 C 
ENDBRANCH  20  36
TORSDOF 4
ENDMDL
MODEL 3
REMARK VINA RESULT:      -7.4      5.376     13.103
REMARK  4 active torsions:
REMARK  status: ('A' for Active; 'I' for Inactive)
REMARK    1  A    between atoms: O_4  and  C_30 
REMARK    2  A    between atoms: O_5  and  C_31 
REMARK       I    between atoms: N_6  and  C_17 
REMARK       I    between atoms: N_7  and  C_19 
REMARK    3  A    between atoms: N_12  and  C_25 
REMARK    4  A    between atoms: C_17  and  C_18 
ROOT
HETATM    1  O   UNK N   1      36.613  12.289   9.930  0.00  0.00    -0.270 OA
HETATM    2  N   UNK N   1      35.571  12.279  11.923  0.00  0.00    -0.347 N 
HETATM    3  N   UNK N   1      36.243  12.166  14.541  0.00  0.00    -0.214 N 
HETATM    4  N   UNK N   1      36.482  10.656  16.404  0.00  0.00    -0.191 N 
ATOM      5  HN  UNK N   1      36.874   9.958  15.772  1.00  0.00     0.184 HD
HETATM    6  N   UNK N   1      35.592  12.809  16.764  0.00  0.00    -0.176 N 
ATOM      7  HN  UNK N   1      35.303  13.711  16.387  1.00  0.00     0.186 HD
HETATM    8  C   UNK N   1      36.171  11.031  12.349  0.00  0.00     0.146 C 
HETATM    9  C   UNK N   1      34.732  12.968  12.874  0.00  0.00     0.146 C 
HETATM   10  C   UNK N   1      36.974  11.287  13.637  0.00  0.00     0.161 C 
HETATM   11  C   UNK N   1      35.631  13.366  14.025  0.00  0.00     0.161 C 
HETATM   12  C   UNK N   1      35.878  12.860  10.725  0.00  0.00     0.251 C 
HETATM   13  C   UNK N   1      36.105  11.868  15.919  0.00  0.00     0.682 A 
HETATM   14  C   UNK N   1      36.345  10.364  17.723  0.00  0.00     0.066 A 
HETATM   15  C   UNK N   1      35.831  11.328  18.607  0.00  0.00     0.038 A 
HETATM   16  C   UNK N   1      35.458  12.571  18.091  0.00  0.00     0.127 A 
HETATM   17  C   UNK N   1      36.699   9.106  18.198  0.00  0.00     0.070 A 
HETATM   18  C   UNK N   1      35.699  11.027  19.964  0.00  0.00     0.057 A 
HETATM   19  C   UNK N   1      36.556   8.784  19.559  0.00  0.00     0.103 A 
HETATM   20  C   UNK N   1      36.055   9.768  20.459  0.00  0.00     0.102 A 
ENDROOT
BRANCH  16  21
HETATM   21  N   UNK N   1      34.937  13.580  18.931  0.00  0.00    -0.384 N 
HETATM   22  H   UNK N   1      34.711  13.380  19.868  0.00  0.00     0.157 HD
HETATM   23  H   UNK N   1      34.798  14.488  18.577  0.00  0.00     0.157 HD
ENDBRANCH  16  21
BRANCH  19  24
HETATM   24  O   UNK N   1      36.885   7.547  20.005  0.00  0.00    -0.353 OA
HETATM   25  C   UNK N   1      36.024   6.472  19.966  0.00  0.00     0.210 C 
ENDBRANCH  19  24
BRANCH  12  26
HETATM   26  C   UNK N   1      35.332  14.231  10.400  0.00  0.00     0.245 C 
HETATM   27  O   UNK N   1      34.693  14.313   9.172  0.00  0.00    -0.331 OA
HETATM   28  C   UNK N   1      34.349  15.535   8.689  0.00  0.00     0.103 A 
HETATM   29  C   UNK N   1      34.954  16.685   9.236  0.00  0.00     0.102 A 
HETATM   30  C   UNK N   1      33.402  15.666   7.671  0.00  0.00     0.040 A 
HETATM   31  O   UNK N   1      35.903  16.544  10.190  0.00  0.00    -0.345 OA
HETATM   32  C   UNK N   1      34.586  17.954   8.790  0.00  0.00     0.039 A 
HETATM   33  C   UNK N   1      36.434  15.300  10.477  0.00  0.00     0.218 C 
HETATM   34  C   UNK N   1      33.625  18.082   7.783  0.00  0.00     0.003 A 
HETATM   35  C   UNK N   1      33.043  16.941   7.218  0.00  0.00     0.003 A 
ENDBRANCH  12  26
BRANCH  20  36
HETATM   36  O   UNK N   1      35.894   9.555  21.791  0.00  0.00    -0.353 OA
HETATM   37  C   UNK N   1      34.689   9.487  22.450  0.00  0.00     0.210 C 
ENDBRANCH  20  36
TORSDOF 4
ENDMDL
MODEL 4
REMARK VINA RESULT:      -7.4      3.250     11.684
REMARK  4 active torsions:
REMARK  status: ('A' for Active; 'I' for Inactive)
REMARK    1  A    between atoms: O_4  and  C_30 
REMARK    2  A    between atoms: O_5  and  C_31 
REMARK       I    between atoms: N_6  and  C_17 
REMARK       I    between atoms: N_7  and  C_19 
REMARK    3  A    between atoms: N_12  and  C_25 
REMARK    4  A    between atoms: C_17  and  C_18 
ROOT
HETATM    1  O   UNK N   1      25.221  21.099   5.950  0.00  0.00    -0.270 OA
HETATM    2  N   UNK N   1      26.846  19.685   5.305  0.00  0.00    -0.347 N 
HETATM    3  N   UNK N   1      28.468  17.837   6.434  0.00  0.00    -0.214 N 
HETATM    4  N   UNK N   1      30.680  17.508   7.333  0.00  0.00    -0.191 N 
ATOM      5  HN  UNK N   1      30.632  18.435   7.755  1.00  0.00     0.184 HD
HETATM    6  N   UNK N   1      29.681  15.798   6.055  0.00  0.00    -0.176 N 
ATOM      7  HN  UNK N   1      28.889  15.462   5.507  1.00  0.00     0.186 HD
HETATM    8  C   UNK N   1      27.821  20.212   6.237  0.00  0.00     0.146 C 
HETATM    9  C   UNK N   1      27.238  18.545   4.512  0.00  0.00     0.146 C 
HETATM   10  C   UNK N   1      28.269  19.076   7.175  0.00  0.00     0.161 C 
HETATM   11  C   UNK N   1      27.469  17.409   5.485  0.00  0.00     0.161 C 
HETATM   12  C   UNK N   1      25.563  20.150   5.257  0.00  0.00     0.251 C 
HETATM   13  C   UNK N   1      29.627  17.042   6.611  0.00  0.00     0.682 A 
HETATM   14  C   UNK N   1      31.795  16.753   7.499  0.00  0.00     0.066 A 
HETATM   15  C   UNK N   1      31.860  15.463   6.943  0.00  0.00     0.038 A 
HETATM   16  C   UNK N   1      30.763  14.998   6.213  0.00  0.00     0.127 A 
HETATM   17  C   UNK N   1      32.880  17.259   8.207  0.00  0.00     0.070 A 
HETATM   18  C   UNK N   1      33.005  14.686   7.123  0.00  0.00     0.057 A 
HETATM   19  C   UNK N   1      34.046  16.492   8.381  0.00  0.00     0.103 A 
HETATM   20  C   UNK N   1      34.103  15.177   7.837  0.00  0.00     0.102 A 
ENDROOT
BRANCH  16  21
HETATM   21  N   UNK N   1      30.770  13.711   5.633  0.00  0.00    -0.384 N 
HETATM   22  H   UNK N   1      30.229  12.986   6.021  0.00  0.00     0.157 HD
HETATM   23  H   UNK N   1      31.320  13.537   4.835  0.00  0.00     0.157 HD
ENDBRANCH  16  21
BRANCH  19  24
HETATM   24  O   UNK N   1      35.104  17.006   9.055  0.00  0.00    -0.353 OA
HETATM   25  C   UNK N   1      35.311  16.813  10.403  0.00  0.00     0.210 C 
ENDBRANCH  19  24
BRANCH  12  26
HETATM   26  C   UNK N   1      24.553  19.463   4.365  0.00  0.00     0.245 C 
HETATM   27  O   UNK N   1      23.609  20.315   3.812  0.00  0.00    -0.331 OA
HETATM   28  C   UNK N   1      22.540  19.782   3.167  0.00  0.00     0.103 A 
HETATM   29  C   UNK N   1      22.213  18.427   3.382  0.00  0.00     0.102 A 
HETATM   30  C   UNK N   1      21.770  20.551   2.292  0.00  0.00     0.040 A 
HETATM   31  O   UNK N   1      22.936  17.704   4.267  0.00  0.00    -0.345 OA
HETATM   32  C   UNK N   1      21.146  17.842   2.699  0.00  0.00     0.039 A 
HETATM   33  C   UNK N   1      23.842  18.322   5.110  0.00  0.00     0.218 C 
HETATM   34  C   UNK N   1      20.390  18.611   1.810  0.00  0.00     0.003 A 
HETATM   35  C   UNK N   1      20.694  19.964   1.615  0.00  0.00     0.003 A 
ENDBRANCH  12  26
BRANCH  20  36
HETATM   36  O   UNK N   1      35.180  14.358   7.964  0.00  0.00    -0.353 OA
HETATM   37  C   UNK N   1      36.192  14.218   7.044  0.00  0.00     0.210 C 
ENDBRANCH  20  36
TORSDOF 4
ENDMDL
MODEL 5
REMARK VINA RESULT:      -7.2      3.762     11.440
REMARK  4 active torsions:
REMARK  status: ('A' for Active; 'I' for Inactive)
REMARK    1  A    between atoms: O_4  and  C_30 
REMARK    2  A    between atoms: O_5  and  C_31 
REMARK       I    between atoms: N_6  and  C_17 
REMARK       I    between atoms: N_7  and  C_19 
REMARK    3  A    between atoms: N_12  and  C_25 
REMARK    4  A    between atoms: C_17  and  C_18 
ROOT
HETATM    1  O   UNK N   1      35.196  17.572   9.752  0.00  0.00    -0.270 OA
HETATM    2  N   UNK N   1      35.513  15.348   9.640  0.00  0.00    -0.347 N 
HETATM    3  N   UNK N   1      35.385  13.214  11.299  0.00  0.00    -0.214 N 
HETATM    4  N   UNK N   1      36.728  11.771  12.686  0.00  0.00    -0.191 N 
ATOM      5  HN  UNK N   1      37.274  12.581  12.978  1.00  0.00     0.184 HD
HETATM    6  N   UNK N   1      34.957  10.853  11.429  0.00  0.00    -0.176 N 
ATOM      7  HN  UNK N   1      34.194  10.984  10.765  1.00  0.00     0.186 HD
HETATM    8  C   UNK N   1      36.506  15.330  10.694  0.00  0.00     0.146 C 
HETATM    9  C   UNK N   1      35.111  14.077   9.089  0.00  0.00     0.146 C 
HETATM   10  C   UNK N   1      36.001  14.424  11.831  0.00  0.00     0.161 C 
HETATM   11  C   UNK N   1      34.442  13.317  10.213  0.00  0.00     0.161 C 
HETATM   12  C   UNK N   1      34.876  16.497   9.263  0.00  0.00     0.251 C 
HETATM   13  C   UNK N   1      35.698  11.932  11.813  0.00  0.00     0.682 A 
HETATM   14  C   UNK N   1      37.036  10.543  13.175  0.00  0.00     0.066 A 
HETATM   15  C   UNK N   1      36.272   9.424  12.800  0.00  0.00     0.038 A 
HETATM   16  C   UNK N   1      35.212   9.612  11.909  0.00  0.00     0.127 A 
HETATM   17  C   UNK N   1      38.116  10.388  14.038  0.00  0.00     0.070 A 
HETATM   18  C   UNK N   1      36.586   8.164  13.311  0.00  0.00     0.057 A 
HETATM   19  C   UNK N   1      38.453   9.121  14.547  0.00  0.00     0.103 A 
HETATM   20  C   UNK N   1      37.666   7.991  14.184  0.00  0.00     0.102 A 
ENDROOT
BRANCH  16  21
HETATM   21  N   UNK N   1      34.409   8.526  11.496  0.00  0.00    -0.384 N 
HETATM   22  H   UNK N   1      34.458   7.663  11.967  0.00  0.00     0.157 HD
HETATM   23  H   UNK N   1      33.796   8.633  10.733  0.00  0.00     0.157 HD
ENDBRANCH  16  21
BRANCH  19  24
HETATM   24  O   UNK N   1      39.521   8.981  15.370  0.00  0.00    -0.353 OA
HETATM   25  C   UNK N   1      40.796   8.717  14.921  0.00  0.00     0.210 C 
ENDBRANCH  19  24
BRANCH  12  26
HETATM   26  C   UNK N   1      33.748  16.428   8.260  0.00  0.00     0.245 C 
HETATM   27  O   UNK N   1      34.031  17.026   7.042  0.00  0.00    -0.331 OA
HETATM   28  C   UNK N   1      33.026  17.205   6.146  0.00  0.00     0.103 A 
HETATM   29  C   UNK N   1      31.690  17.132   6.590  0.00  0.00     0.102 A 
HETATM   30  C   UNK N   1      33.298  17.449   4.798  0.00  0.00     0.040 A 
HETATM   31  O   UNK N   1      31.438  16.940   7.905  0.00  0.00    -0.345 OA
HETATM   32  C   UNK N   1      30.638  17.267   5.684  0.00  0.00     0.039 A 
HETATM   33  C   UNK N   1      32.455  17.029   8.837  0.00  0.00     0.218 C 
HETATM   34  C   UNK N   1      30.914  17.495   4.332  0.00  0.00     0.003 A 
HETATM   35  C   UNK N   1      32.240  17.596   3.893  0.00  0.00     0.003 A 
ENDBRANCH  12  26
BRANCH  20  36
HETATM   36  O   UNK N   1      37.907   6.733  14.634  0.00  0.00    -0.353 OA
HETATM   37  C   UNK N   1      38.576   5.749  13.944  0.00  0.00     0.210 C 
ENDBRANCH  20  36
TORSDOF 4
ENDMDL
MODEL 6
REMARK VINA RESULT:      -7.2      4.833      7.969
REMARK  4 active torsions:
REMARK  status: ('A' for Active; 'I' for Inactive)
REMARK    1  A    between atoms: O_4  and  C_30 
REMARK    2  A    between atoms: O_5  and  C_31 
REMARK       I    between atoms: N_6  and  C_17 
REMARK       I    between atoms: N_7  and  C_19 
REMARK    3  A    between atoms: N_12  and  C_25 
REMARK    4  A    between atoms: C_17  and  C_18 
ROOT
HETATM    1  O   UNK N   1      35.493   8.427  14.729  0.00  0.00    -0.270 OA
HETATM    2  N   UNK N   1      36.100  10.345  13.725  0.00  0.00    -0.347 N 
HETATM    3  N   UNK N   1      34.981  12.217  12.125  0.00  0.00    -0.214 N 
HETATM    4  N   UNK N   1      34.754  12.897   9.824  0.00  0.00    -0.191 N 
ATOM      5  HN  UNK N   1      34.671  11.917   9.556  1.00  0.00     0.184 HD
HETATM    6  N   UNK N   1      35.015  14.536  11.497  0.00  0.00    -0.176 N 
ATOM      7  HN  UNK N   1      35.147  14.771  12.481  1.00  0.00     0.186 HD
HETATM    8  C   UNK N   1      35.746   9.885  12.398  0.00  0.00     0.146 C 
HETATM    9  C   UNK N   1      36.548  11.710  13.854  0.00  0.00     0.146 C 
HETATM   10  C   UNK N   1      34.671  10.825  11.822  0.00  0.00     0.161 C 
HETATM   11  C   UNK N   1      35.375  12.582  13.463  0.00  0.00     0.161 C 
HETATM   12  C   UNK N   1      35.901   9.575  14.836  0.00  0.00     0.251 C 
HETATM   13  C   UNK N   1      34.916  13.226  11.133  0.00  0.00     0.682 A 
HETATM   14  C   UNK N   1      34.699  13.860   8.869  0.00  0.00     0.066 A 
HETATM   15  C   UNK N   1      34.785  15.216   9.232  0.00  0.00     0.038 A 
HETATM   16  C   UNK N   1      34.942  15.534  10.583  0.00  0.00     0.127 A 
HETATM   17  C   UNK N   1      34.572  13.507   7.530  0.00  0.00     0.070 A 
HETATM   18  C   UNK N   1      34.720  16.204   8.248  0.00  0.00     0.057 A 
HETATM   19  C   UNK N   1      34.522  14.492   6.528  0.00  0.00     0.103 A 
HETATM   20  C   UNK N   1      34.587  15.867   6.897  0.00  0.00     0.102 A 
ENDROOT
BRANCH  16  21
HETATM   21  N   UNK N   1      35.033  16.877  11.007  0.00  0.00    -0.384 N 
HETATM   22  H   UNK N   1      35.751  17.159  11.619  0.00  0.00     0.157 HD
HETATM   23  H   UNK N   1      34.375  17.536  10.688  0.00  0.00     0.157 HD
ENDBRANCH  16  21
BRANCH  19  24
HETATM   24  O   UNK N   1      34.419  14.133   5.225  0.00  0.00    -0.353 OA
HETATM   25  C   UNK N   1      35.501  13.796   4.443  0.00  0.00     0.210 C 
ENDBRANCH  19  24
BRANCH  12  26
HETATM   26  C   UNK N   1      36.155  10.163  16.205  0.00  0.00     0.245 C 
HETATM   27  O   UNK N   1      36.650   9.258  17.131  0.00  0.00    -0.331 OA
HETATM   28  C   UNK N   1      36.719   9.623  18.437  0.00  0.00     0.103 A 
HETATM   29  C   UNK N   1      35.968  10.731  18.881  0.00  0.00     0.102 A 
HETATM   30  C   UNK N   1      37.526   8.926  19.338  0.00  0.00     0.040 A 
HETATM   31  O   UNK N   1      35.154  11.371  18.011  0.00  0.00    -0.345 OA
HETATM   32  C   UNK N   1      36.054  11.155  20.207  0.00  0.00     0.039 A 
HETATM   33  C   UNK N   1      34.888  10.830  16.766  0.00  0.00     0.218 C 
HETATM   34  C   UNK N   1      36.877  10.465  21.102  0.00  0.00     0.003 A 
HETATM   35  C   UNK N   1      37.602   9.348  20.672  0.00  0.00     0.003 A 
ENDBRANCH  12  26
BRANCH  20  36
HETATM   36  O   UNK N   1      34.534  16.887   6.002  0.00  0.00    -0.353 OA
HETATM   37  C   UNK N   1      33.386  17.487   5.539  0.00  0.00     0.210 C 
ENDBRANCH  20  36
TORSDOF 4
ENDMDL
MODEL 7
REMARK VINA RESULT:      -7.2      3.076     11.662
REMARK  4 active torsions:
REMARK  status: ('A' for Active; 'I' for Inactive)
REMARK    1  A    between atoms: O_4  and  C_30 
REMARK    2  A    between atoms: O_5  and  C_31 
REMARK       I    between atoms: N_6  and  C_17 
REMARK       I    between atoms: N_7  and  C_19 
REMARK    3  A    between atoms: N_12  and  C_25 
REMARK    4  A    between atoms: C_17  and  C_18 
ROOT
HETATM    1  O   UNK N   1      25.993  15.255   2.004  0.00  0.00    -0.270 OA
HETATM    2  N   UNK N   1      26.909  15.352   4.056  0.00  0.00    -0.347 N 
HETATM    3  N   UNK N   1      28.953  16.628   5.286  0.00  0.00    -0.214 N 
HETATM    4  N   UNK N   1      31.250  16.374   5.967  0.00  0.00    -0.191 N 
ATOM      5  HN  UNK N   1      31.440  15.879   5.096  1.00  0.00     0.184 HD
HETATM    6  N   UNK N   1      29.741  17.509   7.378  0.00  0.00    -0.176 N 
ATOM      7  HN  UNK N   1      28.795  17.842   7.561  1.00  0.00     0.186 HD
HETATM    8  C   UNK N   1      28.231  14.976   3.599  0.00  0.00     0.146 C 
HETATM    9  C   UNK N   1      26.763  15.689   5.451  0.00  0.00     0.146 C 
HETATM   10  C   UNK N   1      29.213  16.108   3.949  0.00  0.00     0.161 C 
HETATM   11  C   UNK N   1      27.598  16.930   5.679  0.00  0.00     0.161 C 
HETATM   12  C   UNK N   1      25.862  15.513   3.193  0.00  0.00     0.251 C 
HETATM   13  C   UNK N   1      29.997  16.836   6.219  0.00  0.00     0.682 A 
HETATM   14  C   UNK N   1      32.252  16.564   6.863  0.00  0.00     0.066 A 
HETATM   15  C   UNK N   1      32.007  17.268   8.054  0.00  0.00     0.038 A 
HETATM   16  C   UNK N   1      30.715  17.744   8.291  0.00  0.00     0.127 A 
HETATM   17  C   UNK N   1      33.520  16.051   6.608  0.00  0.00     0.070 A 
HETATM   18  C   UNK N   1      33.041  17.469   8.969  0.00  0.00     0.057 A 
HETATM   19  C   UNK N   1      34.567  16.233   7.530  0.00  0.00     0.103 A 
HETATM   20  C   UNK N   1      34.324  16.964   8.727  0.00  0.00     0.102 A 
ENDROOT
BRANCH  16  21
HETATM   21  N   UNK N   1      30.408  18.458   9.469  0.00  0.00    -0.384 N 
HETATM   22  H   UNK N   1      31.123  18.890   9.990  0.00  0.00     0.157 HD
HETATM   23  H   UNK N   1      29.474  18.524   9.772  0.00  0.00     0.157 HD
ENDBRANCH  16  21
BRANCH  19  24
HETATM   24  O   UNK N   1      35.792  15.709   7.279  0.00  0.00    -0.353 OA
HETATM   25  C   UNK N   1      36.141  14.413   7.585  0.00  0.00     0.210 C 
ENDBRANCH  19  24
BRANCH  12  26
HETATM   26  C   UNK N   1      24.545  16.046   3.710  0.00  0.00     0.245 C 
HETATM   27  O   UNK N   1      23.429  15.518   3.080  0.00  0.00    -0.331 OA
HETATM   28  C   UNK N   1      22.213  16.073   3.318  0.00  0.00     0.103 A 
HETATM   29  C   UNK N   1      22.146  17.363   3.884  0.00  0.00     0.102 A 
HETATM   30  C   UNK N   1      21.036  15.383   3.021  0.00  0.00     0.040 A 
HETATM   31  O   UNK N   1      23.292  18.041   4.126  0.00  0.00    -0.345 OA
HETATM   32  C   UNK N   1      20.911  17.939   4.182  0.00  0.00     0.039 A 
HETATM   33  C   UNK N   1      24.500  17.581   3.634  0.00  0.00     0.218 C 
HETATM   34  C   UNK N   1      19.735  17.238   3.899  0.00  0.00     0.003 A 
HETATM   35  C   UNK N   1      19.797  15.969   3.311  0.00  0.00     0.003 A 
ENDBRANCH  12  26
BRANCH  20  36
HETATM   36  O   UNK N   1      35.274  17.201   9.668  0.00  0.00    -0.353 OA
HETATM   37  C   UNK N   1      35.404  16.530  10.861  0.00  0.00     0.210 C 
ENDBRANCH  20  36
TORSDOF 4
ENDMDL
MODEL 8
REMARK VINA RESULT:      -7.0      6.158     10.130
REMARK  4 active torsions:
REMARK  status: ('A' for Active; 'I' for Inactive)
REMARK    1  A    between atoms: O_4  and  C_30 
REMARK    2  A    between atoms: O_5  and  C_31 
REMARK       I    between atoms: N_6  and  C_17 
REMARK       I    between atoms: N_7  and  C_19 
REMARK    3  A    between atoms: N_12  and  C_25 
REMARK    4  A    between atoms: C_17  and  C_18 
ROOT
HETATM    1  O   UNK N   1      35.478  12.893  19.968  0.00  0.00    -0.270 OA
HETATM    2  N   UNK N   1      35.153  12.272  17.832  0.00  0.00    -0.347 N 
HETATM    3  N   UNK N   1      36.250  12.763  15.407  0.00  0.00    -0.214 N 
HETATM    4  N   UNK N   1      36.012  14.111  13.424  0.00  0.00    -0.191 N 
ATOM      5  HN  UNK N   1      35.754  14.905  14.010  1.00  0.00     0.184 HD
HETATM    6  N   UNK N   1      36.664  11.855  13.221  0.00  0.00    -0.176 N 
ATOM      7  HN  UNK N   1      36.873  10.960  13.664  1.00  0.00     0.186 HD
HETATM    8  C   UNK N   1      34.996  13.629  17.350  0.00  0.00     0.146 C 
HETATM    9  C   UNK N   1      35.138  11.216  16.848  0.00  0.00     0.146 C 
HETATM   10  C   UNK N   1      36.083  13.906  16.296  0.00  0.00     0.161 C 
HETATM   11  C   UNK N   1      36.348  11.437  15.967  0.00  0.00     0.161 C 
HETATM   12  C   UNK N   1      35.436  11.994  19.139  0.00  0.00     0.251 C 
HETATM   13  C   UNK N   1      36.307  12.916  14.000  0.00  0.00     0.682 A 
HETATM   14  C   UNK N   1      36.058  14.260  12.076  0.00  0.00     0.066 A 
HETATM   15  C   UNK N   1      36.439  13.180  11.261  0.00  0.00     0.038 A 
HETATM   16  C   UNK N   1      36.747  11.962  11.873  0.00  0.00     0.127 A 
HETATM   17  C   UNK N   1      35.717  15.478  11.498  0.00  0.00     0.070 A 
HETATM   18  C   UNK N   1      36.493  13.339   9.876  0.00  0.00     0.057 A 
HETATM   19  C   UNK N   1      35.752  15.647  10.102  0.00  0.00     0.103 A 
HETATM   20  C   UNK N   1      36.158  14.558   9.278  0.00  0.00     0.102 A 
ENDROOT
BRANCH  16  21
HETATM   21  N   UNK N   1      37.137  10.842  11.107  0.00  0.00    -0.384 N 
HETATM   22  H   UNK N   1      37.080  10.866  10.125  0.00  0.00     0.157 HD
HETATM   23  H   UNK N   1      37.467  10.032  11.558  0.00  0.00     0.157 HD
ENDBRANCH  16  21
BRANCH  19  24
HETATM   24  O   UNK N   1      35.395  16.833   9.551  0.00  0.00    -0.353 OA
HETATM   25  C   UNK N   1      34.129  17.102   9.082  0.00  0.00     0.210 C 
ENDBRANCH  19  24
BRANCH  12  26
HETATM   26  C   UNK N   1      35.731  10.570  19.551  0.00  0.00     0.245 C 
HETATM   27  O   UNK N   1      34.626   9.867  20.004  0.00  0.00    -0.331 OA
HETATM   28  C   UNK N   1      34.810   8.657  20.591  0.00  0.00     0.103 A 
HETATM   29  C   UNK N   1      36.094   8.308  21.057  0.00  0.00     0.102 A 
HETATM   30  C   UNK N   1      33.753   7.755  20.728  0.00  0.00     0.040 A 
HETATM   31  O   UNK N   1      37.101   9.206  20.961  0.00  0.00    -0.345 OA
HETATM   32  C   UNK N   1      36.322   7.053  21.623  0.00  0.00     0.039 A 
HETATM   33  C   UNK N   1      36.842  10.519  20.613  0.00  0.00     0.218 C 
HETATM   34  C   UNK N   1      35.264   6.146  21.743  0.00  0.00     0.003 A 
HETATM   35  C   UNK N   1      33.982   6.500  21.306  0.00  0.00     0.003 A 
ENDBRANCH  12  26
BRANCH  20  36
HETATM   36  O   UNK N   1      36.234  14.630   7.924  0.00  0.00    -0.353 OA
HETATM   37  C   UNK N   1      35.299  14.142   7.042  0.00  0.00     0.210 C 
ENDBRANCH  20  36
TORSDOF 4
ENDMDL
MODEL 9
REMARK VINA RESULT:      -6.9      2.373      3.077
REMARK  4 active torsions:
REMARK  status: ('A' for Active; 'I' for Inactive)
REMARK    1  A    between atoms: O_4  and  C_30 
REMARK    2  A    between atoms: O_5  and  C_31 
REMARK       I    between atoms: N_6  and  C_17 
REMARK       I    between atoms: N_7  and  C_19 
REMARK    3  A    between atoms: N_12  and  C_25 
REMARK    4  A    between atoms: C_17  and  C_18 
ROOT
HETATM    1  O   UNK N   1      35.058  16.454   6.055  0.00  0.00    -0.270 OA
HETATM    2  N   UNK N   1      32.956  16.774   6.785  0.00  0.00    -0.347 N 
HETATM    3  N   UNK N   1      30.435  16.353   5.898  0.00  0.00    -0.214 N 
HETATM    4  N   UNK N   1      28.569  17.429   4.817  0.00  0.00    -0.191 N 
ATOM      5  HN  UNK N   1      29.222  17.921   4.208  1.00  0.00     0.184 HD
HETATM    6  N   UNK N   1      28.171  15.897   6.563  0.00  0.00    -0.176 N 
ATOM      7  HN  UNK N   1      28.538  15.259   7.270  1.00  0.00     0.186 HD
HETATM    8  C   UNK N   1      32.567  17.571   5.640  0.00  0.00     0.146 C 
HETATM    9  C   UNK N   1      31.932  16.467   7.755  0.00  0.00     0.146 C 
HETATM   10  C   UNK N   1      31.393  16.873   4.930  0.00  0.00     0.161 C 
HETATM   11  C   UNK N   1      30.911  15.610   7.039  0.00  0.00     0.161 C 
HETATM   12  C   UNK N   1      34.199  16.218   6.893  0.00  0.00     0.251 C 
HETATM   13  C   UNK N   1      29.042  16.566   5.754  0.00  0.00     0.682 A 
HETATM   14  C   UNK N   1      27.236  17.642   4.681  0.00  0.00     0.066 A 
HETATM   15  C   UNK N   1      26.326  16.949   5.498  0.00  0.00     0.038 A 
HETATM   16  C   UNK N   1      26.831  16.059   6.449  0.00  0.00     0.127 A 
HETATM   17  C   UNK N   1      26.768  18.557   3.743  0.00  0.00     0.070 A 
HETATM   18  C   UNK N   1      24.954  17.164   5.350  0.00  0.00     0.057 A 
HETATM   19  C   UNK N   1      25.390  18.795   3.595  0.00  0.00     0.103 A 
HETATM   20  C   UNK N   1      24.467  18.077   4.408  0.00  0.00     0.102 A 
ENDROOT
BRANCH  16  21
HETATM   21  N   UNK N   1      25.965  15.333   7.296  0.00  0.00    -0.384 N 
HETATM   22  H   UNK N   1      24.996  15.325   7.129  0.00  0.00     0.157 HD
HETATM   23  H   UNK N   1      26.335  14.833   8.059  0.00  0.00     0.157 HD
ENDBRANCH  16  21
BRANCH  19  24
HETATM   24  O   UNK N   1      24.950  19.706   2.692  0.00  0.00    -0.353 OA
HETATM   25  C   UNK N   1      25.602  20.890   2.429  0.00  0.00     0.210 C 
ENDBRANCH  19  24
BRANCH  12  26
HETATM   26  C   UNK N   1      34.498  15.278   8.038  0.00  0.00     0.245 C 
HETATM   27  O   UNK N   1      34.944  15.907   9.190  0.00  0.00    -0.331 OA
HETATM   28  C   UNK N   1      35.436  15.151  10.205  0.00  0.00     0.103 A 
HETATM   29  C   UNK N   1      35.825  13.821   9.945  0.00  0.00     0.102 A 
HETATM   30  C   UNK N   1      35.552  15.669  11.498  0.00  0.00     0.040 A 
HETATM   31  O   UNK N   1      35.752  13.345   8.681  0.00  0.00    -0.345 OA
HETATM   32  C   UNK N   1      36.292  13.008  10.978  0.00  0.00     0.039 A 
HETATM   33  C   UNK N   1      35.508  14.197   7.620  0.00  0.00     0.218 C 
HETATM   34  C   UNK N   1      36.389  13.525  12.274  0.00  0.00     0.003 A 
HETATM   35  C   UNK N   1      36.031  14.853  12.531  0.00  0.00     0.003 A 
ENDBRANCH  12  26
BRANCH  20  36
HETATM   36  O   UNK N   1      23.120  18.230   4.329  0.00  0.00    -0.353 OA
HETATM   37  C   UNK N   1      22.245  18.182   5.389  0.00  0.00     0.210 C 
ENDBRANCH  20  36
TORSDOF 4
ENDMDL
