MODEL 1
REMARK VINA RESULT:      -7.7      0.000      0.000
REMARK  4 active torsions:
REMARK  status: ('A' for Active; 'I' for Inactive)
REMARK    1  A    between atoms: C_17  and  O_5 
REMARK    2  A    between atoms: O_7  and  C_27 
REMARK    3  A    between atoms: C_12  and  C_22 
REMARK    4  A    between atoms: C_22  and  C_27 
ROOT
HETATM    1  F   UNK N   1      27.564  27.706  -6.449  0.00  0.00    -0.238 F 
HETATM    2  F   UNK N   1      30.377  26.688  -3.013  0.00  0.00    -0.245 F 
HETATM    3  O   UNK N   1      26.997  23.744  -8.852  0.00  0.00    -0.334 OA
HETATM    4  O   UNK N   1      28.312  21.914  -8.241  0.00  0.00    -0.347 OA
HETATM    5  O   UNK N   1      27.982  30.956  -1.647  0.00  0.00    -0.289 OA
HETATM    6  C   UNK N   1      26.359  24.312  -6.555  0.00  0.00     0.004 C 
HETATM    7  C   UNK N   1      27.819  24.727  -6.375  0.00  0.00     0.007 C 
HETATM    8  C   UNK N   1      28.010  25.701  -5.197  0.00  0.00     0.037 C 
HETATM    9  C   UNK N   1      26.496  23.234  -7.647  0.00  0.00     0.160 C 
HETATM   10  C   UNK N   1      27.091  26.956  -5.379  0.00  0.00     0.147 C 
HETATM   11  C   UNK N   1      27.653  22.408  -7.117  0.00  0.00     0.168 C 
HETATM   12  C   UNK N   1      28.555  23.386  -6.318  0.00  0.00     0.041 C 
HETATM   13  C   UNK N   1      25.537  25.553  -6.890  0.00  0.00     0.048 C 
HETATM   14  C   UNK N   1      25.623  26.540  -5.714  0.00  0.00     0.160 C 
HETATM   15  C   UNK N   1      27.177  27.811  -4.075  0.00  0.00     0.039 C 
HETATM   16  C   UNK N   1      29.467  26.168  -5.152  0.00  0.00     0.050 C 
HETATM   17  C   UNK N   1      25.771  23.669  -5.276  0.00  0.00     0.019 C 
HETATM   18  C   UNK N   1      29.791  27.262  -4.126  0.00  0.00     0.201 C 
HETATM   19  C   UNK N   1      27.925  22.769  -9.298  0.00  0.00     0.159 C 
HETATM   20  C   UNK N   1      28.629  28.136  -3.697  0.00  0.00    -0.027 C 
HETATM   21  C   UNK N   1      26.600  27.015  -2.898  0.00  0.00     0.028 C 
HETATM   22  C   UNK N   1      26.335  29.075  -4.139  0.00  0.00    -0.006 C 
HETATM   23  C   UNK N   1      29.159  23.467  -9.838  0.00  0.00     0.078 C 
HETATM   24  C   UNK N   1      27.302  21.941 -10.409  0.00  0.00     0.078 C 
HETATM   25  C   UNK N   1      28.883  29.170  -2.869  0.00  0.00     0.061 C 
HETATM   26  C   UNK N   1      26.567  30.100  -3.306  0.00  0.00     0.052 C 
HETATM   27  C   UNK N   1      27.803  30.107  -2.503  0.00  0.00     0.172 C 
ENDROOT
BRANCH   9  28
HETATM   28  C   UNK N   1      25.210  22.482  -7.954  0.00  0.00     0.188 C 
HETATM   29  O   UNK N   1      24.331  22.996  -8.630  0.00  0.00    -0.292 OA
BRANCH  28  30
HETATM   30  C   UNK N   1      24.999  21.111  -7.395  0.00  0.00     0.245 C 
BRANCH  30  31
HETATM   31  O   UNK N   1      23.846  21.094  -6.608  0.00  0.00    -0.393 OA
HETATM   32  H   UNK N   1      23.641  20.495  -5.873  0.00  0.00     0.209 HD
ENDBRANCH  30  31
ENDBRANCH  28  30
ENDBRANCH   9  28
BRANCH  14  33
HETATM   33  O   UNK N   1      24.833  27.653  -6.009  0.00  0.00    -0.392 OA
HETATM   34  H   UNK N   1      23.960  27.891  -5.658  0.00  0.00     0.210 HD
ENDBRANCH  14  33
TORSDOF 4
ENDMDL
MODEL 2
REMARK VINA RESULT:      -7.7     19.935     21.498
REMARK  4 active torsions:
REMARK  status: ('A' for Active; 'I' for Inactive)
REMARK    1  A    between atoms: C_17  and  O_5 
REMARK    2  A    between atoms: O_7  and  C_27 
REMARK    3  A    between atoms: C_12  and  C_22 
REMARK    4  A    between atoms: C_22  and  C_27 
ROOT
HETATM    1  F   UNK N   1      33.329  13.713   8.178  0.00  0.00    -0.238 F 
HETATM    2  F   UNK N   1      36.719  15.207   5.527  0.00  0.00    -0.245 F 
HETATM    3  O   UNK N   1      35.368  11.984  12.006  0.00  0.00    -0.334 OA
HETATM    4  O   UNK N   1      37.699  11.842  12.016  0.00  0.00    -0.347 OA
HETATM    5  O   UNK N   1      32.525  17.578   3.912  0.00  0.00    -0.289 OA
HETATM    6  C   UNK N   1      35.307  14.275  11.137  0.00  0.00     0.004 C 
HETATM    7  C   UNK N   1      35.821  13.669   9.831  0.00  0.00     0.007 C 
HETATM    8  C   UNK N   1      35.533  14.571   8.615  0.00  0.00     0.037 C 
HETATM    9  C   UNK N   1      35.879  13.278  12.163  0.00  0.00     0.160 C 
HETATM   10  C   UNK N   1      34.001  14.880   8.522  0.00  0.00     0.147 C 
HETATM   11  C   UNK N   1      37.314  13.140  11.688  0.00  0.00     0.168 C 
HETATM   12  C   UNK N   1      37.284  13.350  10.150  0.00  0.00     0.041 C 
HETATM   13  C   UNK N   1      33.790  14.402  11.051  0.00  0.00     0.048 C 
HETATM   14  C   UNK N   1      33.434  15.356   9.898  0.00  0.00     0.160 C 
HETATM   15  C   UNK N   1      33.790  15.944   7.399  0.00  0.00     0.039 C 
HETATM   16  C   UNK N   1      35.962  13.852   7.334  0.00  0.00     0.050 C 
HETATM   17  C   UNK N   1      35.900  15.678  11.405  0.00  0.00     0.019 C 
HETATM   18  C   UNK N   1      35.604  14.553   6.017  0.00  0.00     0.201 C 
HETATM   19  C   UNK N   1      36.488  11.130  12.175  0.00  0.00     0.159 C 
HETATM   20  C   UNK N   1      34.432  15.513   6.073  0.00  0.00    -0.027 C 
HETATM   21  C   UNK N   1      34.476  17.256   7.798  0.00  0.00     0.028 C 
HETATM   22  C   UNK N   1      32.328  16.314   7.202  0.00  0.00    -0.006 C 
HETATM   23  C   UNK N   1      36.432  10.024  11.139  0.00  0.00     0.078 C 
HETATM   24  C   UNK N   1      36.451  10.508  13.561  0.00  0.00     0.078 C 
HETATM   25  C   UNK N   1      34.020  16.082   4.922  0.00  0.00     0.061 C 
HETATM   26  C   UNK N   1      31.913  16.898   6.068  0.00  0.00     0.052 C 
HETATM   27  C   UNK N   1      32.824  16.946   4.909  0.00  0.00     0.172 C 
ENDROOT
BRANCH   9  28
HETATM   28  C   UNK N   1      35.682  13.687  13.615  0.00  0.00     0.188 C 
HETATM   29  O   UNK N   1      34.659  13.394  14.214  0.00  0.00    -0.292 OA
BRANCH  28  30
HETATM   30  C   UNK N   1      36.736  14.488  14.312  0.00  0.00     0.245 C 
BRANCH  30  31
HETATM   31  O   UNK N   1      37.528  13.646  15.095  0.00  0.00    -0.393 OA
HETATM   32  H   UNK N   1      37.556  13.592  16.063  0.00  0.00     0.209 HD
ENDBRANCH  30  31
ENDBRANCH  28  30
ENDBRANCH   9  28
BRANCH  14  33
HETATM   33  O   UNK N   1      32.046  15.503   9.854  0.00  0.00    -0.392 OA
HETATM   34  H   UNK N   1      31.520  16.198   9.428  0.00  0.00     0.210 HD
ENDBRANCH  14  33
TORSDOF 4
ENDMDL
MODEL 3
REMARK VINA RESULT:      -7.6      3.744      7.083
REMARK  4 active torsions:
REMARK  status: ('A' for Active; 'I' for Inactive)
REMARK    1  A    between atoms: C_17  and  O_5 
REMARK    2  A    between atoms: O_7  and  C_27 
REMARK    3  A    between atoms: C_12  and  C_22 
REMARK    4  A    between atoms: C_22  and  C_27 
ROOT
HETATM    1  F   UNK N   1      31.104  23.842  -6.581  0.00  0.00    -0.238 F 
HETATM    2  F   UNK N   1      29.953  19.434  -6.553  0.00  0.00    -0.245 F 
HETATM    3  O   UNK N   1      27.155  26.197  -5.771  0.00  0.00    -0.334 OA
HETATM    4  O   UNK N   1      25.163  24.979  -5.717  0.00  0.00    -0.347 OA
HETATM    5  O   UNK N   1      34.971  19.580  -5.766  0.00  0.00    -0.289 OA
HETATM    6  C   UNK N   1      28.390  24.632  -4.346  0.00  0.00     0.004 C 
HETATM    7  C   UNK N   1      28.308  23.670  -5.531  0.00  0.00     0.007 C 
HETATM    8  C   UNK N   1      29.388  22.573  -5.469  0.00  0.00     0.037 C 
HETATM    9  C   UNK N   1      27.121  25.477  -4.570  0.00  0.00     0.160 C 
HETATM   10  C   UNK N   1      30.811  23.220  -5.373  0.00  0.00     0.147 C 
HETATM   11  C   UNK N   1      26.084  24.403  -4.844  0.00  0.00     0.168 C 
HETATM   12  C   UNK N   1      26.842  23.228  -5.517  0.00  0.00     0.041 C 
HETATM   13  C   UNK N   1      29.732  25.353  -4.395  0.00  0.00     0.048 C 
HETATM   14  C   UNK N   1      30.861  24.316  -4.260  0.00  0.00     0.160 C 
HETATM   15  C   UNK N   1      31.845  22.078  -5.119  0.00  0.00     0.039 C 
HETATM   16  C   UNK N   1      29.326  21.724  -6.742  0.00  0.00     0.050 C 
HETATM   17  C   UNK N   1      28.280  23.899  -2.988  0.00  0.00     0.019 C 
HETATM   18  C   UNK N   1      30.438  20.679  -6.908  0.00  0.00     0.201 C 
HETATM   19  C   UNK N   1      25.849  26.065  -6.309  0.00  0.00     0.159 C 
HETATM   20  C   UNK N   1      31.727  20.957  -6.161  0.00  0.00    -0.027 C 
HETATM   21  C   UNK N   1      31.569  21.426  -3.759  0.00  0.00     0.028 C 
HETATM   22  C   UNK N   1      33.275  22.585  -5.024  0.00  0.00    -0.006 C 
HETATM   23  C   UNK N   1      25.948  25.825  -7.803  0.00  0.00     0.078 C 
HETATM   24  C   UNK N   1      25.065  27.344  -6.067  0.00  0.00     0.078 C 
HETATM   25  C   UNK N   1      32.765  20.116  -6.350  0.00  0.00     0.061 C 
HETATM   26  C   UNK N   1      34.313  21.753  -5.191  0.00  0.00     0.052 C 
HETATM   27  C   UNK N   1      34.071  20.399  -5.723  0.00  0.00     0.172 C 
ENDROOT
BRANCH   9  28
HETATM   28  C   UNK N   1      26.807  26.452  -3.446  0.00  0.00     0.188 C 
HETATM   29  O   UNK N   1      26.040  26.143  -2.546  0.00  0.00    -0.292 OA
BRANCH  28  30
HETATM   30  C   UNK N   1      27.416  27.818  -3.455  0.00  0.00     0.245 C 
BRANCH  30  31
HETATM   31  O   UNK N   1      26.545  28.727  -2.852  0.00  0.00    -0.393 OA
HETATM   32  H   UNK N   1      25.880  29.286  -3.285  0.00  0.00     0.209 HD
ENDBRANCH  30  31
ENDBRANCH  28  30
ENDBRANCH   9  28
BRANCH  14  33
HETATM   33  O   UNK N   1      32.085  24.988  -4.261  0.00  0.00    -0.392 OA
HETATM   34  H   UNK N   1      32.697  25.138  -4.999  0.00  0.00     0.210 HD
ENDBRANCH  14  33
TORSDOF 4
ENDMDL
MODEL 4
REMARK VINA RESULT:      -7.5      3.989      7.001
REMARK  4 active torsions:
REMARK  status: ('A' for Active; 'I' for Inactive)
REMARK    1  A    between atoms: C_17  and  O_5 
REMARK    2  A    between atoms: O_7  and  C_27 
REMARK    3  A    between atoms: C_12  and  C_22 
REMARK    4  A    between atoms: C_22  and  C_27 
ROOT
HETATM    1  F   UNK N   1      32.109  24.468  -3.965  0.00  0.00    -0.238 F 
HETATM    2  F   UNK N   1      32.866  22.120  -7.795  0.00  0.00    -0.245 F 
HETATM    3  O   UNK N   1      28.577  27.368  -4.922  0.00  0.00    -0.334 OA
HETATM    4  O   UNK N   1      27.838  27.475  -7.134  0.00  0.00    -0.347 OA
HETATM    5  O   UNK N   1      34.945  19.395  -4.045  0.00  0.00    -0.289 OA
HETATM    6  C   UNK N   1      28.644  24.919  -4.848  0.00  0.00     0.004 C 
HETATM    7  C   UNK N   1      29.826  25.038  -5.811  0.00  0.00     0.007 C 
HETATM    8  C   UNK N   1      30.717  23.782  -5.803  0.00  0.00     0.037 C 
HETATM    9  C   UNK N   1      27.857  26.197  -5.195  0.00  0.00     0.160 C 
HETATM   10  C   UNK N   1      31.211  23.478  -4.348  0.00  0.00     0.147 C 
HETATM   11  C   UNK N   1      27.847  26.148  -6.712  0.00  0.00     0.168 C 
HETATM   12  C   UNK N   1      29.157  25.429  -7.132  0.00  0.00     0.041 C 
HETATM   13  C   UNK N   1      29.185  24.789  -3.428  0.00  0.00     0.048 C 
HETATM   14  C   UNK N   1      30.026  23.505  -3.330  0.00  0.00     0.160 C 
HETATM   15  C   UNK N   1      31.942  22.099  -4.364  0.00  0.00     0.039 C 
HETATM   16  C   UNK N   1      31.940  24.017  -6.692  0.00  0.00     0.050 C 
HETATM   17  C   UNK N   1      27.765  23.682  -5.150  0.00  0.00     0.019 C 
HETATM   18  C   UNK N   1      33.008  22.916  -6.674  0.00  0.00     0.201 C 
HETATM   19  C   UNK N   1      28.324  28.214  -6.031  0.00  0.00     0.159 C 
HETATM   20  C   UNK N   1      33.044  22.046  -5.432  0.00  0.00    -0.027 C 
HETATM   21  C   UNK N   1      30.946  20.992  -4.725  0.00  0.00     0.028 C 
HETATM   22  C   UNK N   1      32.486  21.702  -3.001  0.00  0.00    -0.006 C 
HETATM   23  C   UNK N   1      29.613  28.904  -6.435  0.00  0.00     0.078 C 
HETATM   24  C   UNK N   1      27.301  29.269  -5.646  0.00  0.00     0.078 C 
HETATM   25  C   UNK N   1      34.024  21.126  -5.328  0.00  0.00     0.061 C 
HETATM   26  C   UNK N   1      33.447  20.774  -2.887  0.00  0.00     0.052 C 
HETATM   27  C   UNK N   1      34.159  20.324  -4.097  0.00  0.00     0.172 C 
ENDROOT
BRANCH   9  28
HETATM   28  C   UNK N   1      26.503  26.307  -4.510  0.00  0.00     0.188 C 
HETATM   29  O   UNK N   1      25.474  26.047  -5.115  0.00  0.00    -0.292 OA
BRANCH  28  30
HETATM   30  C   UNK N   1      26.424  26.772  -3.091  0.00  0.00     0.245 C 
BRANCH  30  31
HETATM   31  O   UNK N   1      25.494  27.808  -2.985  0.00  0.00    -0.393 OA
HETATM   32  H   UNK N   1      24.850  28.095  -3.651  0.00  0.00     0.209 HD
ENDBRANCH  30  31
ENDBRANCH  28  30
ENDBRANCH   9  28
BRANCH  14  33
HETATM   33  O   UNK N   1      30.480  23.369  -2.017  0.00  0.00    -0.392 OA
HETATM   34  H   UNK N   1      30.654  22.558  -1.513  0.00  0.00     0.210 HD
ENDBRANCH  14  33
TORSDOF 4
ENDMDL
MODEL 5
REMARK VINA RESULT:      -7.5     24.718     26.006
REMARK  4 active torsions:
REMARK  status: ('A' for Active; 'I' for Inactive)
REMARK    1  A    between atoms: C_17  and  O_5 
REMARK    2  A    between atoms: O_7  and  C_27 
REMARK    3  A    between atoms: C_12  and  C_22 
REMARK    4  A    between atoms: C_22  and  C_27 
ROOT
HETATM    1  F   UNK N   1      37.136  12.365  15.448  0.00  0.00    -0.238 F 
HETATM    2  F   UNK N   1      37.682   7.849  15.695  0.00  0.00    -0.245 F 
HETATM    3  O   UNK N   1      36.849  13.370  10.897  0.00  0.00    -0.334 OA
HETATM    4  O   UNK N   1      37.253  11.639   9.383  0.00  0.00    -0.347 OA
HETATM    5  O   UNK N   1      36.004   9.312  20.263  0.00  0.00    -0.289 OA
HETATM    6  C   UNK N   1      35.362  12.046  12.327  0.00  0.00     0.004 C 
HETATM    7  C   UNK N   1      36.619  11.267  12.714  0.00  0.00     0.007 C 
HETATM    8  C   UNK N   1      36.458  10.525  14.054  0.00  0.00     0.037 C 
HETATM    9  C   UNK N   1      35.738  12.517  10.909  0.00  0.00     0.160 C 
HETATM   10  C   UNK N   1      36.056  11.532  15.185  0.00  0.00     0.147 C 
HETATM   11  C   UNK N   1      36.281  11.238  10.297  0.00  0.00     0.168 C 
HETATM   12  C   UNK N   1      36.904  10.428  11.465  0.00  0.00     0.041 C 
HETATM   13  C   UNK N   1      35.112  13.120  13.381  0.00  0.00     0.048 C 
HETATM   14  C   UNK N   1      34.865  12.439  14.738  0.00  0.00     0.160 C 
HETATM   15  C   UNK N   1      35.718  10.708  16.468  0.00  0.00     0.039 C 
HETATM   16  C   UNK N   1      37.787   9.870  14.438  0.00  0.00     0.050 C 
HETATM   17  C   UNK N   1      34.112  11.139  12.248  0.00  0.00     0.019 C 
HETATM   18  C   UNK N   1      37.840   9.216  15.826  0.00  0.00     0.201 C 
HETATM   19  C   UNK N   1      37.620  12.943   9.786  0.00  0.00     0.159 C 
HETATM   20  C   UNK N   1      36.854   9.748  16.848  0.00  0.00    -0.027 C 
HETATM   21  C   UNK N   1      34.489   9.830  16.208  0.00  0.00     0.028 C 
HETATM   22  C   UNK N   1      35.328  11.584  17.647  0.00  0.00    -0.006 C 
HETATM   23  C   UNK N   1      39.087  12.942  10.169  0.00  0.00     0.078 C 
HETATM   24  C   UNK N   1      37.416  13.902   8.625  0.00  0.00     0.078 C 
HETATM   25  C   UNK N   1      36.925   9.271  18.107  0.00  0.00     0.061 C 
HETATM   26  C   UNK N   1      35.376  11.112  18.901  0.00  0.00     0.052 C 
HETATM   27  C   UNK N   1      36.054   9.828  19.160  0.00  0.00     0.172 C 
ENDROOT
BRANCH   9  28
HETATM   28  C   UNK N   1      34.610  13.204  10.155  0.00  0.00     0.188 C 
HETATM   29  O   UNK N   1      33.945  12.593   9.332  0.00  0.00    -0.292 OA
BRANCH  28  30
HETATM   30  C   UNK N   1      34.331  14.654  10.394  0.00  0.00     0.245 C 
BRANCH  30  31
HETATM   31  O   UNK N   1      33.078  14.800  10.991  0.00  0.00    -0.393 OA
HETATM   32  H   UNK N   1      32.858  15.305  11.790  0.00  0.00     0.209 HD
ENDBRANCH  30  31
ENDBRANCH  28  30
ENDBRANCH   9  28
BRANCH  14  33
HETATM   33  O   UNK N   1      34.592  13.425  15.688  0.00  0.00    -0.392 OA
HETATM   34  H   UNK N   1      34.145  14.278  15.569  0.00  0.00     0.210 HD
ENDBRANCH  14  33
TORSDOF 4
ENDMDL
MODEL 6
REMARK VINA RESULT:      -7.4     14.095     16.101
REMARK  4 active torsions:
REMARK  status: ('A' for Active; 'I' for Inactive)
REMARK    1  A    between atoms: C_17  and  O_5 
REMARK    2  A    between atoms: O_7  and  C_27 
REMARK    3  A    between atoms: C_12  and  C_22 
REMARK    4  A    between atoms: C_22  and  C_27 
ROOT
HETATM    1  F   UNK N   1      22.330  16.162   2.994  0.00  0.00    -0.238 F 
HETATM    2  F   UNK N   1      24.762  19.606   4.721  0.00  0.00    -0.245 F 
HETATM    3  O   UNK N   1      23.143  12.503   5.778  0.00  0.00    -0.334 OA
HETATM    4  O   UNK N   1      24.769  12.749   7.436  0.00  0.00    -0.347 OA
HETATM    5  O   UNK N   1      21.195  21.735   1.795  0.00  0.00    -0.289 OA
HETATM    6  C   UNK N   1      22.046  14.644   6.250  0.00  0.00     0.004 C 
HETATM    7  C   UNK N   1      23.312  15.285   5.680  0.00  0.00     0.007 C 
HETATM    8  C   UNK N   1      23.073  16.733   5.210  0.00  0.00     0.037 C 
HETATM    9  C   UNK N   1      22.611  13.316   6.788  0.00  0.00     0.160 C 
HETATM   10  C   UNK N   1      21.906  16.777   4.166  0.00  0.00     0.147 C 
HETATM   11  C   UNK N   1      23.847  13.789   7.532  0.00  0.00     0.168 C 
HETATM   12  C   UNK N   1      24.343  15.056   6.788  0.00  0.00     0.041 C 
HETATM   13  C   UNK N   1      20.999  14.565   5.143  0.00  0.00     0.048 C 
HETATM   14  C   UNK N   1      20.657  15.991   4.679  0.00  0.00     0.160 C 
HETATM   15  C   UNK N   1      21.579  18.275   3.871  0.00  0.00     0.039 C 
HETATM   16  C   UNK N   1      24.342  17.268   4.543  0.00  0.00     0.050 C 
HETATM   17  C   UNK N   1      21.454  15.459   7.424  0.00  0.00     0.019 C 
HETATM   18  C   UNK N   1      24.224  18.648   3.882  0.00  0.00     0.201 C 
HETATM   19  C   UNK N   1      24.342  11.983   6.327  0.00  0.00     0.159 C 
HETATM   20  C   UNK N   1      22.829  19.065   3.459  0.00  0.00    -0.027 C 
HETATM   21  C   UNK N   1      21.051  18.947   5.143  0.00  0.00     0.028 C 
HETATM   22  C   UNK N   1      20.465  18.447   2.850  0.00  0.00    -0.006 C 
HETATM   23  C   UNK N   1      25.427  12.010   5.268  0.00  0.00     0.078 C 
HETATM   24  C   UNK N   1      24.121  10.545   6.767  0.00  0.00     0.078 C 
HETATM   25  C   UNK N   1      22.688  20.227   2.790  0.00  0.00     0.061 C 
HETATM   26  C   UNK N   1      20.305  19.606   2.194  0.00  0.00     0.052 C 
HETATM   27  C   UNK N   1      21.366  20.627   2.272  0.00  0.00     0.172 C 
ENDROOT
BRANCH   9  28
HETATM   28  C   UNK N   1      21.616  12.485   7.584  0.00  0.00     0.188 C 
HETATM   29  O   UNK N   1      20.719  11.876   7.021  0.00  0.00    -0.292 OA
BRANCH  28  30
HETATM   30  C   UNK N   1      21.713  12.437   9.076  0.00  0.00     0.245 C 
BRANCH  30  31
HETATM   31  O   UNK N   1      20.541  12.941   9.641  0.00  0.00    -0.393 OA
HETATM   32  H   UNK N   1      20.014  13.696   9.336  0.00  0.00     0.209 HD
ENDBRANCH  30  31
ENDBRANCH  28  30
ENDBRANCH   9  28
BRANCH  14  33
HETATM   33  O   UNK N   1      19.666  15.914   3.698  0.00  0.00    -0.392 OA
HETATM   34  H   UNK N   1      18.980  15.239   3.577  0.00  0.00     0.210 HD
ENDBRANCH  14  33
TORSDOF 4
ENDMDL
MODEL 7
REMARK VINA RESULT:      -7.3     14.696     16.667
REMARK  4 active torsions:
REMARK  status: ('A' for Active; 'I' for Inactive)
REMARK    1  A    between atoms: C_17  and  O_5 
REMARK    2  A    between atoms: O_7  and  C_27 
REMARK    3  A    between atoms: C_12  and  C_22 
REMARK    4  A    between atoms: C_22  and  C_27 
ROOT
HETATM    1  F   UNK N   1      28.008  15.755   6.917  0.00  0.00    -0.238 F 
HETATM    2  F   UNK N   1      27.627  13.308   3.092  0.00  0.00    -0.245 F 
HETATM    3  O   UNK N   1      32.546  15.707   8.015  0.00  0.00    -0.334 OA
HETATM    4  O   UNK N   1      33.948  14.334   6.750  0.00  0.00    -0.347 OA
HETATM    5  O   UNK N   1      23.445  16.185   3.341  0.00  0.00    -0.289 OA
HETATM    6  C   UNK N   1      31.392  16.664   6.076  0.00  0.00     0.004 C 
HETATM    7  C   UNK N   1      30.780  15.273   5.901  0.00  0.00     0.007 C 
HETATM    8  C   UNK N   1      29.483  15.306   5.070  0.00  0.00     0.037 C 
HETATM    9  C   UNK N   1      32.725  16.309   6.763  0.00  0.00     0.160 C 
HETATM   10  C   UNK N   1      28.452  16.293   5.715  0.00  0.00     0.147 C 
HETATM   11  C   UNK N   1      33.218  15.162   5.900  0.00  0.00     0.168 C 
HETATM   12  C   UNK N   1      31.950  14.446   5.364  0.00  0.00     0.041 C 
HETATM   13  C   UNK N   1      30.410  17.534   6.853  0.00  0.00     0.048 C 
HETATM   14  C   UNK N   1      29.113  17.672   6.037  0.00  0.00     0.160 C 
HETATM   15  C   UNK N   1      27.243  16.435   4.738  0.00  0.00     0.039 C 
HETATM   16  C   UNK N   1      28.862  13.907   5.039  0.00  0.00     0.050 C 
HETATM   17  C   UNK N   1      31.685  17.349   4.720  0.00  0.00     0.019 C 
HETATM   18  C   UNK N   1      27.482  13.798   4.377  0.00  0.00     0.201 C 
HETATM   19  C   UNK N   1      33.497  14.656   8.051  0.00  0.00     0.159 C 
HETATM   20  C   UNK N   1      26.657  15.070   4.348  0.00  0.00    -0.027 C 
HETATM   21  C   UNK N   1      27.710  17.085   3.430  0.00  0.00     0.028 C 
HETATM   22  C   UNK N   1      26.160  17.361   5.267  0.00  0.00    -0.006 C 
HETATM   23  C   UNK N   1      32.858  13.426   8.665  0.00  0.00     0.078 C 
HETATM   24  C   UNK N   1      34.685  15.072   8.903  0.00  0.00     0.078 C 
HETATM   25  C   UNK N   1      25.401  15.002   3.862  0.00  0.00     0.061 C 
HETATM   26  C   UNK N   1      24.913  17.315   4.775  0.00  0.00     0.052 C 
HETATM   27  C   UNK N   1      24.526  16.190   3.904  0.00  0.00     0.172 C 
ENDROOT
BRANCH   9  28
HETATM   28  C   UNK N   1      33.675  17.484   6.938  0.00  0.00     0.188 C 
HETATM   29  O   UNK N   1      34.550  17.707   6.116  0.00  0.00    -0.292 OA
BRANCH  28  30
HETATM   30  C   UNK N   1      33.561  18.358   8.146  0.00  0.00     0.245 C 
BRANCH  30  31
HETATM   31  O   UNK N   1      34.747  19.071   8.326  0.00  0.00    -0.393 OA
HETATM   32  H   UNK N   1      34.851  19.965   8.691  0.00  0.00     0.209 HD
ENDBRANCH  30  31
ENDBRANCH  28  30
ENDBRANCH   9  28
BRANCH  14  33
HETATM   33  O   UNK N   1      28.236  18.506   6.733  0.00  0.00    -0.392 OA
HETATM   34  H   UNK N   1      27.273  18.433   6.831  0.00  0.00     0.210 HD
ENDBRANCH  14  33
TORSDOF 4
ENDMDL
MODEL 8
REMARK VINA RESULT:      -7.3     17.378     18.803
REMARK  4 active torsions:
REMARK  status: ('A' for Active; 'I' for Inactive)
REMARK    1  A    between atoms: C_17  and  O_5 
REMARK    2  A    between atoms: O_7  and  C_27 
REMARK    3  A    between atoms: C_12  and  C_22 
REMARK    4  A    between atoms: C_22  and  C_27 
ROOT
HETATM    1  F   UNK N   1      32.915  14.188   9.202  0.00  0.00    -0.238 F 
HETATM    2  F   UNK N   1      35.855  17.381  10.586  0.00  0.00    -0.245 F 
HETATM    3  O   UNK N   1      31.546  15.479   4.929  0.00  0.00    -0.334 OA
HETATM    4  O   UNK N   1      32.247  17.568   4.157  0.00  0.00    -0.347 OA
HETATM    5  O   UNK N   1      36.759  13.297  13.471  0.00  0.00    -0.289 OA
HETATM    6  C   UNK N   1      33.756  14.815   5.755  0.00  0.00     0.004 C 
HETATM    7  C   UNK N   1      33.550  15.888   6.825  0.00  0.00     0.007 C 
HETATM    8  C   UNK N   1      34.440  15.658   8.061  0.00  0.00     0.037 C 
HETATM    9  C   UNK N   1      32.905  15.386   4.604  0.00  0.00     0.160 C 
HETATM   10  C   UNK N   1      34.190  14.228   8.650  0.00  0.00     0.147 C 
HETATM   11  C   UNK N   1      33.352  16.836   4.585  0.00  0.00     0.168 C 
HETATM   12  C   UNK N   1      33.736  17.192   6.045  0.00  0.00     0.041 C 
HETATM   13  C   UNK N   1      33.342  13.466   6.332  0.00  0.00     0.048 C 
HETATM   14  C   UNK N   1      34.248  13.138   7.532  0.00  0.00     0.160 C 
HETATM   15  C   UNK N   1      35.245  13.977   9.772  0.00  0.00     0.039 C 
HETATM   16  C   UNK N   1      34.096  16.692   9.136  0.00  0.00     0.050 C 
HETATM   17  C   UNK N   1      35.231  14.718   5.298  0.00  0.00     0.019 C 
HETATM   18  C   UNK N   1      34.787  16.508  10.493  0.00  0.00     0.201 C 
HETATM   19  C   UNK N   1      31.135  16.733   4.408  0.00  0.00     0.159 C 
HETATM   20  C   UNK N   1      35.249  15.101  10.818  0.00  0.00    -0.027 C 
HETATM   21  C   UNK N   1      36.651  13.957   9.163  0.00  0.00     0.028 C 
HETATM   22  C   UNK N   1      35.090  12.617  10.435  0.00  0.00    -0.006 C 
HETATM   23  C   UNK N   1      30.227  17.416   5.413  0.00  0.00     0.078 C 
HETATM   24  C   UNK N   1      30.366  16.520   3.115  0.00  0.00     0.078 C 
HETATM   25  C   UNK N   1      35.778  14.870  12.037  0.00  0.00     0.061 C 
HETATM   26  C   UNK N   1      35.629  12.373  11.639  0.00  0.00     0.052 C 
HETATM   27  C   UNK N   1      36.150  13.499  12.435  0.00  0.00     0.172 C 
ENDROOT
BRANCH   9  28
HETATM   28  C   UNK N   1      33.023  14.622   3.295  0.00  0.00     0.188 C 
HETATM   29  O   UNK N   1      33.524  15.143   2.310  0.00  0.00    -0.292 OA
BRANCH  28  30
HETATM   30  C   UNK N   1      32.492  13.227   3.197  0.00  0.00     0.245 C 
BRANCH  30  31
HETATM   31  O   UNK N   1      31.125  13.222   3.478  0.00  0.00    -0.393 OA
HETATM   32  H   UNK N   1      30.694  12.991   4.317  0.00  0.00     0.209 HD
ENDBRANCH  30  31
ENDBRANCH  28  30
ENDBRANCH   9  28
BRANCH  14  33
HETATM   33  O   UNK N   1      33.893  11.882   8.028  0.00  0.00    -0.392 OA
HETATM   34  H   UNK N   1      33.743  11.609   8.947  0.00  0.00     0.210 HD
ENDBRANCH  14  33
TORSDOF 4
ENDMDL
MODEL 9
REMARK VINA RESULT:      -7.2      4.066      7.075
REMARK  4 active torsions:
REMARK  status: ('A' for Active; 'I' for Inactive)
REMARK    1  A    between atoms: C_17  and  O_5 
REMARK    2  A    between atoms: O_7  and  C_27 
REMARK    3  A    between atoms: C_12  and  C_22 
REMARK    4  A    between atoms: C_22  and  C_27 
ROOT
HETATM    1  F   UNK N   1      31.798  23.680  -2.996  0.00  0.00    -0.238 F 
HETATM    2  F   UNK N   1      34.479  24.394  -6.610  0.00  0.00    -0.245 F 
HETATM    3  O   UNK N   1      27.973  26.259  -3.715  0.00  0.00    -0.334 OA
HETATM    4  O   UNK N   1      27.976  27.707  -5.547  0.00  0.00    -0.347 OA
HETATM    5  O   UNK N   1      36.082  20.055  -4.509  0.00  0.00    -0.289 OA
HETATM    6  C   UNK N   1      28.855  24.345  -4.966  0.00  0.00     0.004 C 
HETATM    7  C   UNK N   1      30.160  25.138  -5.031  0.00  0.00     0.007 C 
HETATM    8  C   UNK N   1      31.380  24.235  -5.299  0.00  0.00     0.037 C 
HETATM    9  C   UNK N   1      27.826  25.489  -4.875  0.00  0.00     0.160 C 
HETATM   10  C   UNK N   1      31.465  23.106  -4.217  0.00  0.00     0.147 C 
HETATM   11  C   UNK N   1      28.310  26.422  -5.970  0.00  0.00     0.168 C 
HETATM   12  C   UNK N   1      29.848  26.235  -6.052  0.00  0.00     0.041 C 
HETATM   13  C   UNK N   1      28.932  23.374  -3.793  0.00  0.00     0.048 C 
HETATM   14  C   UNK N   1      30.089  22.389  -4.036  0.00  0.00     0.160 C 
HETATM   15  C   UNK N   1      32.593  22.114  -4.643  0.00  0.00     0.039 C 
HETATM   16  C   UNK N   1      32.659  25.072  -5.230  0.00  0.00     0.050 C 
HETATM   17  C   UNK N   1      28.599  23.531  -6.257  0.00  0.00     0.019 C 
HETATM   18  C   UNK N   1      33.978  24.294  -5.325  0.00  0.00     0.201 C 
HETATM   19  C   UNK N   1      27.805  27.599  -4.147  0.00  0.00     0.159 C 
HETATM   20  C   UNK N   1      33.921  22.836  -4.913  0.00  0.00    -0.027 C 
HETATM   21  C   UNK N   1      32.207  21.428  -5.959  0.00  0.00     0.028 C 
HETATM   22  C   UNK N   1      32.784  20.975  -3.653  0.00  0.00    -0.006 C 
HETATM   23  C   UNK N   1      28.834  28.476  -3.460  0.00  0.00     0.078 C 
HETATM   24  C   UNK N   1      26.415  28.086  -3.774  0.00  0.00     0.078 C 
HETATM   25  C   UNK N   1      35.073  22.136  -4.889  0.00  0.00     0.061 C 
HETATM   26  C   UNK N   1      33.918  20.261  -3.636  0.00  0.00     0.052 C 
HETATM   27  C   UNK N   1      35.083  20.743  -4.401  0.00  0.00     0.172 C 
ENDROOT
BRANCH   9  28
HETATM   28  C   UNK N   1      26.375  25.038  -4.960  0.00  0.00     0.188 C 
HETATM   29  O   UNK N   1      25.843  24.465  -4.021  0.00  0.00    -0.292 OA
BRANCH  28  30
HETATM   30  C   UNK N   1      25.598  25.266  -6.217  0.00  0.00     0.245 C 
BRANCH  30  31
HETATM   31  O   UNK N   1      25.204  24.041  -6.757  0.00  0.00    -0.393 OA
HETATM   32  H   UNK N   1      25.291  23.744  -7.676  0.00  0.00     0.209 HD
ENDBRANCH  30  31
ENDBRANCH  28  30
ENDBRANCH   9  28
BRANCH  14  33
HETATM   33  O   UNK N   1      30.125  21.476  -2.981  0.00  0.00    -0.392 OA
HETATM   34  H   UNK N   1      30.367  20.537  -2.996  0.00  0.00     0.210 HD
ENDBRANCH  14  33
TORSDOF 4
ENDMDL
