MODEL 1
REMARK VINA RESULT:      -2.9      0.000      0.000
REMARK  0 active torsions:
REMARK  status: ('A' for Active; 'I' for Inactive)
ROOT
HETATM    1  N   UNK N   1      24.096  13.065  10.107  0.00  0.00    -0.418 N 
HETATM    2  N   UNK N   1      21.835  11.919  11.662  0.00  0.00    -0.418 N 
HETATM    3  C   UNK N   1      24.363  12.266  11.297  0.00  0.00     0.133 A 
HETATM    4  C   UNK N   1      22.725  13.304   9.677  0.00  0.00     0.133 A 
HETATM    5  C   UNK N   1      23.208  11.680  12.092  0.00  0.00     0.133 A 
HETATM    6  C   UNK N   1      21.568  12.717  10.473  0.00  0.00     0.133 A 
HETATM    7  H   UNK N   1      24.872  13.458   9.573  0.00  0.00     0.153 HD
HETATM    8  H   UNK N   1      21.060  11.525  12.195  0.00  0.00     0.153 HD
ENDROOT
TORSDOF 0
ENDMDL
MODEL 2
REMARK VINA RESULT:      -2.9      1.361      2.204
REMARK  0 active torsions:
REMARK  status: ('A' for Active; 'I' for Inactive)
ROOT
HETATM    1  N   UNK N   1      24.878  12.374  11.122  0.00  0.00    -0.418 N 
HETATM    2  N   UNK N   1      22.249  12.816   9.805  0.00  0.00    -0.418 N 
HETATM    3  C   UNK N   1      24.818  13.025   9.819  0.00  0.00     0.133 A 
HETATM    4  C   UNK N   1      23.654  11.939  11.781  0.00  0.00     0.133 A 
HETATM    5  C   UNK N   1      23.474  13.251   9.146  0.00  0.00     0.133 A 
HETATM    6  C   UNK N   1      22.308  12.165  11.107  0.00  0.00     0.133 A 
HETATM    7  H   UNK N   1      25.780  12.222  11.574  0.00  0.00     0.153 HD
HETATM    8  H   UNK N   1      21.347  12.967   9.353  0.00  0.00     0.153 HD
ENDROOT
TORSDOF 0
ENDMDL
MODEL 3
REMARK VINA RESULT:      -2.9      0.154      2.124
REMARK  0 active torsions:
REMARK  status: ('A' for Active; 'I' for Inactive)
ROOT
HETATM    1  N   UNK N   1      21.667  11.925  11.664  0.00  0.00    -0.418 N 
HETATM    2  N   UNK N   1      23.980  13.066  10.182  0.00  0.00    -0.418 N 
HETATM    3  C   UNK N   1      23.026  11.668  12.127  0.00  0.00     0.133 A 
HETATM    4  C   UNK N   1      21.439  12.739  10.478  0.00  0.00     0.133 A 
HETATM    5  C   UNK N   1      24.208  12.251  11.370  0.00  0.00     0.133 A 
HETATM    6  C   UNK N   1      22.622  13.324   9.720  0.00  0.00     0.133 A 
HETATM    7  H   UNK N   1      20.874  11.534  12.172  0.00  0.00     0.153 HD
HETATM    8  H   UNK N   1      24.773  13.458   9.674  0.00  0.00     0.153 HD
ENDROOT
TORSDOF 0
ENDMDL
MODEL 4
REMARK VINA RESULT:      -2.9      1.365      2.568
REMARK  0 active torsions:
REMARK  status: ('A' for Active; 'I' for Inactive)
ROOT
HETATM    1  N   UNK N   1      22.250  12.802   9.810  0.00  0.00    -0.418 N 
HETATM    2  N   UNK N   1      24.885  12.384  11.123  0.00  0.00    -0.418 N 
HETATM    3  C   UNK N   1      23.472  13.224   9.137  0.00  0.00     0.133 A 
HETATM    4  C   UNK N   1      22.315  12.175  11.123  0.00  0.00     0.133 A 
HETATM    5  C   UNK N   1      24.819  13.011   9.808  0.00  0.00     0.133 A 
HETATM    6  C   UNK N   1      23.664  11.961  11.795  0.00  0.00     0.133 A 
HETATM    7  H   UNK N   1      21.346  12.945   9.359  0.00  0.00     0.153 HD
HETATM    8  H   UNK N   1      25.789  12.240  11.574  0.00  0.00     0.153 HD
ENDROOT
TORSDOF 0
ENDMDL
MODEL 5
REMARK VINA RESULT:      -2.9      1.143      2.837
REMARK  0 active torsions:
REMARK  status: ('A' for Active; 'I' for Inactive)
ROOT
HETATM    1  N   UNK N   1      22.073  11.627  11.891  0.00  0.00    -0.418 N 
HETATM    2  N   UNK N   1      22.266  13.543   9.625  0.00  0.00    -0.418 N 
HETATM    3  C   UNK N   1      20.866  12.251  11.361  0.00  0.00     0.133 A 
HETATM    4  C   UNK N   1      23.373  11.940  11.313  0.00  0.00     0.133 A 
HETATM    5  C   UNK N   1      20.965  13.230  10.203  0.00  0.00     0.133 A 
HETATM    6  C   UNK N   1      23.472  12.921  10.154  0.00  0.00     0.133 A 
HETATM    7  H   UNK N   1      22.006  10.970  12.668  0.00  0.00     0.153 HD
HETATM    8  H   UNK N   1      22.332  14.201   8.847  0.00  0.00     0.153 HD
ENDROOT
TORSDOF 0
ENDMDL
MODEL 6
REMARK VINA RESULT:      -2.8      0.979      2.128
REMARK  0 active torsions:
REMARK  status: ('A' for Active; 'I' for Inactive)
ROOT
HETATM    1  N   UNK N   1      22.875  13.334   9.465  0.00  0.00    -0.418 N 
HETATM    2  N   UNK N   1      22.157  11.724  11.860  0.00  0.00    -0.418 N 
HETATM    3  C   UNK N   1      21.475  13.178   9.844  0.00  0.00     0.133 A 
HETATM    4  C   UNK N   1      23.923  12.702  10.256  0.00  0.00     0.133 A 
HETATM    5  C   UNK N   1      21.108  12.355  11.068  0.00  0.00     0.133 A 
HETATM    6  C   UNK N   1      23.555  11.879  11.482  0.00  0.00     0.133 A 
HETATM    7  H   UNK N   1      23.121  13.886   8.643  0.00  0.00     0.153 HD
HETATM    8  H   UNK N   1      21.911  11.172  12.681  0.00  0.00     0.153 HD
ENDROOT
TORSDOF 0
ENDMDL
MODEL 7
REMARK VINA RESULT:      -2.8     10.185     11.388
REMARK  0 active torsions:
REMARK  status: ('A' for Active; 'I' for Inactive)
ROOT
HETATM    1  N   UNK N   1      20.356  19.049   0.891  0.00  0.00    -0.418 N 
HETATM    2  N   UNK N   1      20.863  19.746   3.737  0.00  0.00    -0.418 N 
HETATM    3  C   UNK N   1      20.096  18.067   1.937  0.00  0.00     0.133 A 
HETATM    4  C   UNK N   1      20.863  20.370   1.235  0.00  0.00     0.133 A 
HETATM    5  C   UNK N   1      20.355  18.424   3.392  0.00  0.00     0.133 A 
HETATM    6  C   UNK N   1      21.123  20.727   2.691  0.00  0.00     0.133 A 
HETATM    7  H   UNK N   1      20.182  18.809  -0.086  0.00  0.00     0.153 HD
HETATM    8  H   UNK N   1      21.037  19.985   4.713  0.00  0.00     0.153 HD
ENDROOT
TORSDOF 0
ENDMDL
MODEL 8
REMARK VINA RESULT:      -2.8     10.932     11.975
REMARK  0 active torsions:
REMARK  status: ('A' for Active; 'I' for Inactive)
ROOT
HETATM    1  N   UNK N   1      33.643  14.491  10.326  0.00  0.00    -0.418 N 
HETATM    2  N   UNK N   1      34.907  17.178  10.155  0.00  0.00    -0.418 N 
HETATM    3  C   UNK N   1      34.658  14.880  11.298  0.00  0.00     0.133 A 
HETATM    4  C   UNK N   1      33.246  15.414   9.271  0.00  0.00     0.133 A 
HETATM    5  C   UNK N   1      35.304  16.253  11.210  0.00  0.00     0.133 A 
HETATM    6  C   UNK N   1      33.893  16.789   9.184  0.00  0.00     0.133 A 
HETATM    7  H   UNK N   1      33.210  13.569  10.384  0.00  0.00     0.153 HD
HETATM    8  H   UNK N   1      35.341  18.099  10.096  0.00  0.00     0.153 HD
ENDROOT
TORSDOF 0
ENDMDL
MODEL 9
REMARK VINA RESULT:      -2.8     10.800     11.752
REMARK  0 active torsions:
REMARK  status: ('A' for Active; 'I' for Inactive)
ROOT
HETATM    1  N   UNK N   1      34.752  17.167   9.963  0.00  0.00    -0.418 N 
HETATM    2  N   UNK N   1      33.619  14.465  10.472  0.00  0.00    -0.418 N 
HETATM    3  C   UNK N   1      35.263  16.360  11.065  0.00  0.00     0.133 A 
HETATM    4  C   UNK N   1      33.689  16.653   9.110  0.00  0.00     0.133 A 
HETATM    5  C   UNK N   1      34.683  14.979  11.326  0.00  0.00     0.133 A 
HETATM    6  C   UNK N   1      33.109  15.270   9.370  0.00  0.00     0.133 A 
HETATM    7  H   UNK N   1      35.141  18.093   9.788  0.00  0.00     0.153 HD
HETATM    8  H   UNK N   1      33.230  13.538  10.647  0.00  0.00     0.153 HD
ENDROOT
TORSDOF 0
ENDMDL
