REMARK  0 active torsions:
REMARK  status: ('A' for Active; 'I' for Inactive)
ROOT
HETATM    1  N   UNK N   1       2.423  -1.487   0.000  0.00  0.00    -0.418 N 
HETATM    2  N   UNK N   1       2.423   1.487   0.000  0.00  0.00    -0.418 N 
HETATM    3  C   UNK N   1       3.687  -0.760   0.000  0.00  0.00     0.133 A 
HETATM    4  C   UNK N   1       1.160  -0.761   0.000  0.00  0.00     0.133 A 
HETATM    5  C   UNK N   1       3.687   0.760   0.000  0.00  0.00     0.133 A 
HETATM    6  C   UNK N   1       1.160   0.761   0.000  0.00  0.00     0.133 A 
HETATM    7  H   UNK N   1       2.423  -2.507   0.000  0.00  0.00     0.153 HD
HETATM    8  H   UNK N   1       2.423   2.507   0.000  0.00  0.00     0.153 HD
ENDROOT
TORSDOF 0
