MODEL 1
REMARK VINA RESULT:      -4.6      0.000      0.000
REMARK  1 active torsions:
REMARK  status: ('A' for Active; 'I' for Inactive)
REMARK    1  A    between atoms: C_4  and  C_6 
ROOT
HETATM    1  O   UNK N   1      35.025  19.093   8.328  0.00  0.00    -0.272 OA
HETATM    2  O   UNK N   1      34.726  15.529  10.941  0.00  0.00    -0.273 OA
HETATM    3  N   UNK N   1      35.092  17.432   9.825  0.00  0.00    -0.297 N 
HETATM    4  C   UNK N   1      33.675  17.125   7.945  0.00  0.00     0.045 A 
HETATM    5  C   UNK N   1      33.622  15.859   8.836  0.00  0.00     0.122 A 
HETATM    6  C   UNK N   1      34.663  17.986   8.690  0.00  0.00     0.233 A 
HETATM    7  C   UNK N   1      32.303  17.777   7.924  0.00  0.00     0.026 C 
HETATM    8  C   UNK N   1      34.525  16.236   9.969  0.00  0.00     0.225 A 
HETATM    9  H   UNK N   1      35.727  17.843  10.455  0.00  0.00     0.171 HD
ENDROOT
BRANCH   4  10
HETATM   10  C   UNK N   1      34.143  16.759   6.533  0.00  0.00     0.015 C 
HETATM   11  C   UNK N   1      33.353  17.475   5.445  0.00  0.00     0.006 C 
ENDBRANCH   4  10
TORSDOF 1
ENDMDL
MODEL 2
REMARK VINA RESULT:      -4.6      5.985      8.280
REMARK  1 active torsions:
REMARK  status: ('A' for Active; 'I' for Inactive)
REMARK    1  A    between atoms: C_4  and  C_6 
ROOT
HETATM    1  O   UNK N   1      37.523  14.791  15.915  0.00  0.00    -0.272 OA
HETATM    2  O   UNK N   1      35.664  14.484  11.907  0.00  0.00    -0.273 OA
HETATM    3  N   UNK N   1      36.737  14.901  13.824  0.00  0.00    -0.297 N 
HETATM    4  C   UNK N   1      35.932  13.127  15.180  0.00  0.00     0.045 A 
HETATM    5  C   UNK N   1      35.244  13.062  13.794  0.00  0.00     0.122 A 
HETATM    6  C   UNK N   1      36.801  14.350  15.036  0.00  0.00     0.233 A 
HETATM    7  C   UNK N   1      36.784  11.883  15.372  0.00  0.00     0.026 C 
HETATM    8  C   UNK N   1      35.885  14.207  13.073  0.00  0.00     0.225 A 
HETATM    9  H   UNK N   1      37.240  15.696  13.532  0.00  0.00     0.171 HD
ENDROOT
BRANCH   4  10
HETATM   10  C   UNK N   1      34.882  13.264  16.287  0.00  0.00     0.015 C 
HETATM   11  C   UNK N   1      35.278  12.542  17.569  0.00  0.00     0.006 C 
ENDBRANCH   4  10
TORSDOF 1
ENDMDL
MODEL 3
REMARK VINA RESULT:      -4.6      1.250      2.961
REMARK  1 active torsions:
REMARK  status: ('A' for Active; 'I' for Inactive)
REMARK    1  A    between atoms: C_4  and  C_6 
ROOT
HETATM    1  O   UNK N   1      33.136  15.458   9.676  0.00  0.00    -0.272 OA
HETATM    2  O   UNK N   1      35.249  19.168   8.495  0.00  0.00    -0.273 OA
HETATM    3  N   UNK N   1      34.305  17.341   9.376  0.00  0.00    -0.297 N 
HETATM    4  C   UNK N   1      33.039  16.559   7.527  0.00  0.00     0.045 A 
HETATM    5  C   UNK N   1      33.736  17.887   7.142  0.00  0.00     0.122 A 
HETATM    6  C   UNK N   1      33.473  16.386   8.959  0.00  0.00     0.233 A 
HETATM    7  C   UNK N   1      33.589  15.438   6.659  0.00  0.00     0.026 C 
HETATM    8  C   UNK N   1      34.504  18.209   8.386  0.00  0.00     0.225 A 
HETATM    9  H   UNK N   1      34.707  17.396  10.273  0.00  0.00     0.171 HD
ENDROOT
BRANCH   4  10
HETATM   10  C   UNK N   1      31.521  16.693   7.372  0.00  0.00     0.015 C 
HETATM   11  C   UNK N   1      30.924  17.746   8.297  0.00  0.00     0.006 C 
ENDBRANCH   4  10
TORSDOF 1
ENDMDL
MODEL 4
REMARK VINA RESULT:      -4.5     13.076     14.392
REMARK  1 active torsions:
REMARK  status: ('A' for Active; 'I' for Inactive)
REMARK    1  A    between atoms: C_4  and  C_6 
ROOT
HETATM    1  O   UNK N   1      30.792  22.843  -1.652  0.00  0.00    -0.272 OA
HETATM    2  O   UNK N   1      26.650  23.857  -2.851  0.00  0.00    -0.273 OA
HETATM    3  N   UNK N   1      28.613  23.210  -1.994  0.00  0.00    -0.297 N 
HETATM    4  C   UNK N   1      30.102  23.932  -3.696  0.00  0.00     0.045 A 
HETATM    5  C   UNK N   1      28.645  24.230  -4.132  0.00  0.00     0.122 A 
HETATM    6  C   UNK N   1      29.893  23.266  -2.360  0.00  0.00     0.233 A 
HETATM    7  C   UNK N   1      30.851  25.244  -3.532  0.00  0.00     0.026 C 
HETATM    8  C   UNK N   1      27.861  23.755  -2.949  0.00  0.00     0.225 A 
HETATM    9  H   UNK N   1      28.277  22.827  -1.152  0.00  0.00     0.171 HD
ENDROOT
BRANCH   4  10
HETATM   10  C   UNK N   1      30.785  23.020  -4.720  0.00  0.00     0.015 C 
HETATM   11  C   UNK N   1      30.067  21.688  -4.896  0.00  0.00     0.006 C 
ENDBRANCH   4  10
TORSDOF 1
ENDMDL
MODEL 5
REMARK VINA RESULT:      -4.4      2.045      2.889
REMARK  1 active torsions:
REMARK  status: ('A' for Active; 'I' for Inactive)
REMARK    1  A    between atoms: C_4  and  C_6 
ROOT
HETATM    1  O   UNK N   1      31.130  17.032   8.711  0.00  0.00    -0.272 OA
HETATM    2  O   UNK N   1      35.060  19.051   8.398  0.00  0.00    -0.273 OA
HETATM    3  N   UNK N   1      33.034  18.201   8.816  0.00  0.00    -0.297 N 
HETATM    4  C   UNK N   1      32.741  16.797   6.924  0.00  0.00     0.045 A 
HETATM    5  C   UNK N   1      34.088  17.551   6.796  0.00  0.00     0.122 A 
HETATM    6  C   UNK N   1      32.202  17.347   8.220  0.00  0.00     0.233 A 
HETATM    7  C   UNK N   1      33.015  15.307   7.045  0.00  0.00     0.026 C 
HETATM    8  C   UNK N   1      34.125  18.344   8.066  0.00  0.00     0.225 A 
HETATM    9  H   UNK N   1      32.868  18.654   9.674  0.00  0.00     0.171 HD
ENDROOT
BRANCH   4  10
HETATM   10  C   UNK N   1      31.844  17.106   5.722  0.00  0.00     0.015 C 
HETATM   11  C   UNK N   1      32.632  17.544   4.494  0.00  0.00     0.006 C 
ENDBRANCH   4  10
TORSDOF 1
ENDMDL
MODEL 6
REMARK VINA RESULT:      -4.4     10.844     11.519
REMARK  1 active torsions:
REMARK  status: ('A' for Active; 'I' for Inactive)
REMARK    1  A    between atoms: C_4  and  C_6 
ROOT
HETATM    1  O   UNK N   1      25.224  13.460   8.664  0.00  0.00    -0.272 OA
HETATM    2  O   UNK N   1      24.203  11.958  12.703  0.00  0.00    -0.273 OA
HETATM    3  N   UNK N   1      24.974  12.838  10.797  0.00  0.00    -0.297 N 
HETATM    4  C   UNK N   1      23.340  12.068   9.257  0.00  0.00     0.045 A 
HETATM    5  C   UNK N   1      23.023  11.501  10.663  0.00  0.00     0.122 A 
HETATM    6  C   UNK N   1      24.604  12.848   9.517  0.00  0.00     0.233 A 
HETATM    7  C   UNK N   1      22.214  12.996   8.830  0.00  0.00     0.026 C 
HETATM    8  C   UNK N   1      24.109  12.106  11.497  0.00  0.00     0.225 A 
HETATM    9  H   UNK N   1      25.762  13.299  11.166  0.00  0.00     0.171 HD
ENDROOT
BRANCH   4  10
HETATM   10  C   UNK N   1      23.535  10.925   8.257  0.00  0.00     0.015 C 
HETATM   11  C   UNK N   1      22.995  11.255   6.871  0.00  0.00     0.006 C 
ENDBRANCH   4  10
TORSDOF 1
ENDMDL
MODEL 7
REMARK VINA RESULT:      -4.2     18.853     20.017
REMARK  1 active torsions:
REMARK  status: ('A' for Active; 'I' for Inactive)
REMARK    1  A    between atoms: C_4  and  C_6 
ROOT
HETATM    1  O   UNK N   1      50.572  22.303  12.989  0.00  0.00    -0.272 OA
HETATM    2  O   UNK N   1      52.622  25.657  10.947  0.00  0.00    -0.273 OA
HETATM    3  N   UNK N   1      51.320  24.114  11.910  0.00  0.00    -0.297 N 
HETATM    4  C   UNK N   1      52.944  22.515  12.576  0.00  0.00     0.045 A 
HETATM    5  C   UNK N   1      53.644  23.665  11.810  0.00  0.00     0.122 A 
HETATM    6  C   UNK N   1      51.499  22.939  12.514  0.00  0.00     0.233 A 
HETATM    7  C   UNK N   1      53.439  22.500  14.013  0.00  0.00     0.026 C 
HETATM    8  C   UNK N   1      52.500  24.580  11.505  0.00  0.00     0.225 A 
HETATM    9  H   UNK N   1      50.454  24.564  11.783  0.00  0.00     0.171 HD
ENDROOT
BRANCH   4  10
HETATM   10  C   UNK N   1      53.207  21.177  11.879  0.00  0.00     0.015 C 
HETATM   11  C   UNK N   1      53.561  20.062  12.855  0.00  0.00     0.006 C 
ENDBRANCH   4  10
TORSDOF 1
ENDMDL
MODEL 8
REMARK VINA RESULT:      -4.1     17.452     18.698
REMARK  1 active torsions:
REMARK  status: ('A' for Active; 'I' for Inactive)
REMARK    1  A    between atoms: C_4  and  C_6 
ROOT
HETATM    1  O   UNK N   1      28.250  26.445  -4.002  0.00  0.00    -0.272 OA
HETATM    2  O   UNK N   1      25.277  24.667  -6.763  0.00  0.00    -0.273 OA
HETATM    3  N   UNK N   1      26.923  25.287  -5.381  0.00  0.00    -0.297 N 
HETATM    4  C   UNK N   1      26.360  27.563  -5.011  0.00  0.00     0.045 A 
HETATM    5  C   UNK N   1      25.359  26.948  -6.020  0.00  0.00     0.122 A 
HETATM    6  C   UNK N   1      27.283  26.402  -4.745  0.00  0.00     0.233 A 
HETATM    7  C   UNK N   1      25.613  27.956  -3.746  0.00  0.00     0.026 C 
HETATM    8  C   UNK N   1      25.831  25.530  -6.104  0.00  0.00     0.225 A 
HETATM    9  H   UNK N   1      27.389  24.422  -5.324  0.00  0.00     0.171 HD
ENDROOT
BRANCH   4  10
HETATM   10  C   UNK N   1      27.072  28.765  -5.637  0.00  0.00     0.015 C 
HETATM   11  C   UNK N   1      27.812  28.410  -6.921  0.00  0.00     0.006 C 
ENDBRANCH   4  10
TORSDOF 1
ENDMDL
MODEL 9
REMARK VINA RESULT:      -4.1      8.359      9.596
REMARK  1 active torsions:
REMARK  status: ('A' for Active; 'I' for Inactive)
REMARK    1  A    between atoms: C_4  and  C_6 
ROOT
HETATM    1  O   UNK N   1      37.136  10.625  14.559  0.00  0.00    -0.272 OA
HETATM    2  O   UNK N   1      37.157  14.986  15.330  0.00  0.00    -0.273 OA
HETATM    3  N   UNK N   1      37.415  12.832  14.786  0.00  0.00    -0.297 N 
HETATM    4  C   UNK N   1      35.548  11.867  15.891  0.00  0.00     0.045 A 
HETATM    5  C   UNK N   1      35.597  13.384  16.201  0.00  0.00     0.122 A 
HETATM    6  C   UNK N   1      36.771  11.690  15.027  0.00  0.00     0.233 A 
HETATM    7  C   UNK N   1      34.285  11.561  15.103  0.00  0.00     0.026 C 
HETATM    8  C   UNK N   1      36.788  13.828  15.410  0.00  0.00     0.225 A 
HETATM    9  H   UNK N   1      38.225  12.924  14.234  0.00  0.00     0.171 HD
ENDROOT
BRANCH   4  10
HETATM   10  C   UNK N   1      35.609  11.058  17.190  0.00  0.00     0.015 C 
HETATM   11  C   UNK N   1      35.353  11.909  18.428  0.00  0.00     0.006 C 
ENDBRANCH   4  10
TORSDOF 1
ENDMDL
