REMARK  3 active torsions:
REMARK  status: ('A' for Active; 'I' for Inactive)
REMARK    1  A    between atoms: N_7  and  C_14 
REMARK       I    between atoms: N_8  and  C_17 
REMARK    2  A    between atoms: N_10  and  C_15 
REMARK       I    between atoms: N_11  and  C_18 
REMARK       I    between atoms: N_12  and  C_18 
REMARK    3  A    between atoms: C_13  and  C_17 
ROOT
HETATM    1 Cl   UNK N   1       7.860   0.573  -0.000  0.00  0.00    -0.060 Cl
HETATM    2  N   UNK N   1       5.407  -2.600  -0.000  0.00  0.00    -0.325 N 
ATOM      3  HN  UNK N   1       5.484  -3.617  -0.000  1.00  0.00     0.169 HD
HETATM    4  N   UNK N   1       5.209   0.122  -0.000  0.00  0.00    -0.336 N 
ATOM      5  HN  UNK N   1       5.139   1.139  -0.000  1.00  0.00     0.167 HD
HETATM    6  C   UNK N   1       4.068  -0.618  -0.000  0.00  0.00     0.146 A 
HETATM    7  C   UNK N   1       4.174  -2.027  -0.000  0.00  0.00     0.133 A 
HETATM    8  C   UNK N   1       6.538  -1.846  -0.000  0.00  0.00     0.140 A 
HETATM    9  C   UNK N   1       6.435  -0.452  -0.000  0.00  0.00     0.148 A 
ENDROOT
BRANCH   6  10
HETATM   10  C   UNK N   1       2.776   0.103  -0.000  0.00  0.00     0.290 C 
HETATM   11  O   UNK N   1       1.718  -0.513   0.000  0.00  0.00    -0.265 OA
HETATM   12  N   UNK N   1       2.802   1.467   0.000  0.00  0.00    -0.155 N 
HETATM   13  C   UNK N   1       1.782   2.260   0.000  0.00  0.00     0.672 C 
ATOM     14  HN  UNK N   1       3.722   1.906  -0.000  1.00  0.00     0.187 HD
HETATM   15  N   UNK N   1       1.999   3.654   0.000  0.00  0.00    -0.235 N 
HETATM   16  N   UNK N   1       0.454   1.769   0.000  0.00  0.00    -0.235 N 
HETATM   17  H   UNK N   1       2.917   4.009   0.000  0.00  0.00     0.174 HD
HETATM   18  H   UNK N   1       1.232   4.272   0.000  0.00  0.00     0.174 HD
HETATM   19  H   UNK N   1      -0.304   2.397   0.000  0.00  0.00     0.174 HD
HETATM   20  H   UNK N   1       0.288   0.798   0.000  0.00  0.00     0.174 HD
ENDBRANCH   6  10
BRANCH   7  21
HETATM   21  N   UNK N   1       3.029  -2.852  -0.000  0.00  0.00    -0.383 N 
HETATM   22  H   UNK N   1       2.131  -2.448  -0.000  0.00  0.00     0.157 HD
HETATM   23  H   UNK N   1       3.128  -3.831  -0.000  0.00  0.00     0.157 HD
ENDBRANCH   7  21
BRANCH   8  24
HETATM   24  N   UNK N   1       7.800  -2.475   0.000  0.00  0.00    -0.383 N 
HETATM   25  H   UNK N   1       7.860  -3.457   0.000  0.00  0.00     0.157 HD
HETATM   26  H   UNK N   1       8.620  -1.931   0.000  0.00  0.00     0.157 HD
ENDBRANCH   8  24
TORSDOF 3
