MODEL 1
REMARK VINA RESULT:      -5.6      0.000      0.000
REMARK  3 active torsions:
REMARK  status: ('A' for Active; 'I' for Inactive)
REMARK    1  A    between atoms: N_7  and  C_14 
REMARK       I    between atoms: N_8  and  C_17 
REMARK    2  A    between atoms: N_10  and  C_15 
REMARK       I    between atoms: N_11  and  C_18 
REMARK       I    between atoms: N_12  and  C_18 
REMARK    3  A    between atoms: C_13  and  C_17 
ROOT
HETATM    1 Cl   UNK N   1      34.601  11.931  13.312  0.00  0.00    -0.060 Cl
HETATM    2  N   UNK N   1      37.124  14.720  14.704  0.00  0.00    -0.325 N 
ATOM      3  HN  UNK N   1      37.864  15.322  14.341  1.00  0.00     0.169 HD
HETATM    4  N   UNK N   1      35.143  13.109  15.668  0.00  0.00    -0.336 N 
ATOM      5  HN  UNK N   1      34.403  12.505  16.024  1.00  0.00     0.167 HD
HETATM    6  C   UNK N   1      35.777  13.952  16.526  0.00  0.00     0.146 A 
HETATM    7  C   UNK N   1      36.802  14.785  16.024  0.00  0.00     0.133 A 
HETATM    8  C   UNK N   1      36.480  13.872  13.859  0.00  0.00     0.140 A 
HETATM    9  C   UNK N   1      35.466  13.047  14.354  0.00  0.00     0.148 A 
ENDROOT
BRANCH   6  10
HETATM   10  C   UNK N   1      35.352  13.946  17.943  0.00  0.00     0.290 C 
HETATM   11  O   UNK N   1      35.058  14.990  18.510  0.00  0.00    -0.265 OA
HETATM   12  N   UNK N   1      35.298  12.747  18.591  0.00  0.00    -0.155 N 
HETATM   13  C   UNK N   1      34.952  12.548  19.820  0.00  0.00     0.672 C 
ATOM     14  HN  UNK N   1      35.558  11.923  18.050  1.00  0.00     0.187 HD
HETATM   15  N   UNK N   1      34.956  11.231  20.327  0.00  0.00    -0.235 N 
HETATM   16  N   UNK N   1      34.571  13.613  20.671  0.00  0.00    -0.235 N 
HETATM   17  H   UNK N   1      35.219  10.481  19.746  0.00  0.00     0.174 HD
HETATM   18  H   UNK N   1      34.694  11.062  21.261  0.00  0.00     0.174 HD
HETATM   19  H   UNK N   1      34.312  13.431  21.603  0.00  0.00     0.174 HD
HETATM   20  H   UNK N   1      34.564  14.537  20.331  0.00  0.00     0.174 HD
ENDBRANCH   6  10
BRANCH   7  21
HETATM   21  N   UNK N   1      37.499  15.683  16.861  0.00  0.00    -0.383 N 
HETATM   22  H   UNK N   1      38.395  15.449  17.195  0.00  0.00     0.157 HD
HETATM   23  H   UNK N   1      37.089  16.542  17.111  0.00  0.00     0.157 HD
ENDBRANCH   7  21
BRANCH   8  24
HETATM   24  N   UNK N   1      36.841  13.832  12.497  0.00  0.00    -0.383 N 
HETATM   25  H   UNK N   1      37.665  14.275  12.193  0.00  0.00     0.157 HD
HETATM   26  H   UNK N   1      36.268  13.359  11.851  0.00  0.00     0.157 HD
ENDBRANCH   8  24
TORSDOF 3
ENDMDL
MODEL 2
REMARK VINA RESULT:      -5.5      4.129      7.320
REMARK  3 active torsions:
REMARK  status: ('A' for Active; 'I' for Inactive)
REMARK    1  A    between atoms: N_7  and  C_14 
REMARK       I    between atoms: N_8  and  C_17 
REMARK    2  A    between atoms: N_10  and  C_15 
REMARK       I    between atoms: N_11  and  C_18 
REMARK       I    between atoms: N_12  and  C_18 
REMARK    3  A    between atoms: C_13  and  C_17 
ROOT
HETATM    1 Cl   UNK N   1      37.278  14.776  15.597  0.00  0.00    -0.060 Cl
HETATM    2  N   UNK N   1      35.229  12.662  12.874  0.00  0.00    -0.325 N 
ATOM      3  HN  UNK N   1      34.849  11.720  12.775  1.00  0.00     0.169 HD
HETATM    4  N   UNK N   1      36.248  15.179  13.146  0.00  0.00    -0.336 N 
ATOM      5  HN  UNK N   1      36.629  16.118  13.251  1.00  0.00     0.167 HD
HETATM    6  C   UNK N   1      35.587  14.860  12.001  0.00  0.00     0.146 A 
HETATM    7  C   UNK N   1      35.060  13.556  11.864  0.00  0.00     0.133 A 
HETATM    8  C   UNK N   1      35.892  12.997  14.012  0.00  0.00     0.140 A 
HETATM    9  C   UNK N   1      36.413  14.286  14.150  0.00  0.00     0.148 A 
ENDROOT
BRANCH   6  10
HETATM   10  C   UNK N   1      35.458  15.905  10.962  0.00  0.00     0.290 C 
HETATM   11  O   UNK N   1      36.428  16.573  10.626  0.00  0.00    -0.265 OA
HETATM   12  N   UNK N   1      34.233  16.099  10.394  0.00  0.00    -0.155 N 
HETATM   13  C   UNK N   1      33.933  16.960   9.479  0.00  0.00     0.672 C 
ATOM     14  HN  UNK N   1      33.476  15.503  10.728  1.00  0.00     0.187 HD
HETATM   15  N   UNK N   1      32.605  17.020   9.006  0.00  0.00    -0.235 N 
HETATM   16  N   UNK N   1      34.898  17.842   8.937  0.00  0.00    -0.235 N 
HETATM   17  H   UNK N   1      31.923  16.413   9.374  0.00  0.00     0.174 HD
HETATM   18  H   UNK N   1      32.359  17.670   8.308  0.00  0.00     0.174 HD
HETATM   19  H   UNK N   1      34.640  18.487   8.240  0.00  0.00     0.174 HD
HETATM   20  H   UNK N   1      35.829  17.810   9.257  0.00  0.00     0.174 HD
ENDBRANCH   6  10
BRANCH   7  21
HETATM   21  N   UNK N   1      34.365  13.161  10.701  0.00  0.00    -0.383 N 
HETATM   22  H   UNK N   1      33.380  13.142  10.699  0.00  0.00     0.157 HD
HETATM   23  H   UNK N   1      34.863  12.904   9.893  0.00  0.00     0.157 HD
ENDBRANCH   7  21
BRANCH   8  24
HETATM   24  N   UNK N   1      36.047  12.044  15.040  0.00  0.00    -0.383 N 
HETATM   25  H   UNK N   1      35.284  11.484  15.311  0.00  0.00     0.157 HD
HETATM   26  H   UNK N   1      36.918  11.938  15.485  0.00  0.00     0.157 HD
ENDBRANCH   8  24
TORSDOF 3
ENDMDL
MODEL 3
REMARK VINA RESULT:      -5.4      2.112      5.256
REMARK  3 active torsions:
REMARK  status: ('A' for Active; 'I' for Inactive)
REMARK    1  A    between atoms: N_7  and  C_14 
REMARK       I    between atoms: N_8  and  C_17 
REMARK    2  A    between atoms: N_10  and  C_15 
REMARK       I    between atoms: N_11  and  C_18 
REMARK       I    between atoms: N_12  and  C_18 
REMARK    3  A    between atoms: C_13  and  C_17 
ROOT
HETATM    1 Cl   UNK N   1      34.871   9.519  18.327  0.00  0.00    -0.060 Cl
HETATM    2  N   UNK N   1      35.274  13.372  19.364  0.00  0.00    -0.325 N 
ATOM      3  HN  UNK N   1      35.184  13.944  20.204  1.00  0.00     0.169 HD
HETATM    4  N   UNK N   1      35.513  11.835  17.122  0.00  0.00    -0.336 N 
ATOM      5  HN  UNK N   1      35.601  11.258  16.286  1.00  0.00     0.167 HD
HETATM    6  C   UNK N   1      35.752  13.171  17.029  0.00  0.00     0.146 A 
HETATM    7  C   UNK N   1      35.627  13.964  18.192  0.00  0.00     0.133 A 
HETATM    8  C   UNK N   1      35.039  12.036  19.440  0.00  0.00     0.140 A 
HETATM    9  C   UNK N   1      35.162  11.250  18.291  0.00  0.00     0.148 A 
ENDROOT
BRANCH   6  10
HETATM   10  C   UNK N   1      36.130  13.716  15.707  0.00  0.00     0.290 C 
HETATM   11  O   UNK N   1      37.063  14.501  15.599  0.00  0.00    -0.265 OA
HETATM   12  N   UNK N   1      35.410  13.318  14.618  0.00  0.00    -0.155 N 
HETATM   13  C   UNK N   1      35.593  13.685  13.393  0.00  0.00     0.672 C 
ATOM     14  HN  UNK N   1      34.649  12.662  14.790  1.00  0.00     0.187 HD
HETATM   15  N   UNK N   1      34.747  13.168  12.390  0.00  0.00    -0.235 N 
HETATM   16  N   UNK N   1      36.618  14.592  13.031  0.00  0.00    -0.235 N 
HETATM   17  H   UNK N   1      34.030  12.537  12.628  0.00  0.00     0.174 HD
HETATM   18  H   UNK N   1      34.873  13.438  11.451  0.00  0.00     0.174 HD
HETATM   19  H   UNK N   1      36.734  14.854  12.089  0.00  0.00     0.174 HD
HETATM   20  H   UNK N   1      37.217  14.960  13.721  0.00  0.00     0.174 HD
ENDBRANCH   6  10
BRANCH   7  21
HETATM   21  N   UNK N   1      35.861  15.355  18.164  0.00  0.00    -0.383 N 
HETATM   22  H   UNK N   1      35.851  15.839  17.306  0.00  0.00     0.157 HD
HETATM   23  H   UNK N   1      36.034  15.842  19.001  0.00  0.00     0.157 HD
ENDBRANCH   7  21
BRANCH   8  24
HETATM   24  N   UNK N   1      34.675  11.456  20.673  0.00  0.00    -0.383 N 
HETATM   25  H   UNK N   1      35.259  11.561  21.457  0.00  0.00     0.157 HD
HETATM   26  H   UNK N   1      33.836  10.947  20.748  0.00  0.00     0.157 HD
ENDBRANCH   8  24
TORSDOF 3
ENDMDL
MODEL 4
REMARK VINA RESULT:      -5.4      4.333      6.939
REMARK  3 active torsions:
REMARK  status: ('A' for Active; 'I' for Inactive)
REMARK    1  A    between atoms: N_7  and  C_14 
REMARK       I    between atoms: N_8  and  C_17 
REMARK    2  A    between atoms: N_10  and  C_15 
REMARK       I    between atoms: N_11  and  C_18 
REMARK       I    between atoms: N_12  and  C_18 
REMARK    3  A    between atoms: C_13  and  C_17 
ROOT
HETATM    1 Cl   UNK N   1      34.856  13.111  15.461  0.00  0.00    -0.060 Cl
HETATM    2  N   UNK N   1      37.548  12.544  12.543  0.00  0.00    -0.325 N 
ATOM      3  HN  UNK N   1      38.316  11.906  12.334  1.00  0.00     0.169 HD
HETATM    4  N   UNK N   1      35.492  14.247  13.108  0.00  0.00    -0.336 N 
ATOM      5  HN  UNK N   1      34.723  14.882  13.323  1.00  0.00     0.167 HD
HETATM    6  C   UNK N   1      36.182  14.416  11.949  0.00  0.00     0.146 A 
HETATM    7  C   UNK N   1      37.246  13.532  11.659  0.00  0.00     0.133 A 
HETATM    8  C   UNK N   1      36.848  12.389  13.697  0.00  0.00     0.140 A 
HETATM    9  C   UNK N   1      35.795  13.262  13.986  0.00  0.00     0.148 A 
ENDROOT
BRANCH   6  10
HETATM   10  C   UNK N   1      35.774  15.522  11.056  0.00  0.00     0.290 C 
HETATM   11  O   UNK N   1      36.563  16.412  10.764  0.00  0.00    -0.265 OA
HETATM   12  N   UNK N   1      34.499  15.519  10.570  0.00  0.00    -0.155 N 
HETATM   13  C   UNK N   1      33.969  16.395   9.783  0.00  0.00     0.672 C 
ATOM     14  HN  UNK N   1      33.903  14.744  10.859  1.00  0.00     0.187 HD
HETATM   15  N   UNK N   1      32.627  16.230   9.380  0.00  0.00    -0.235 N 
HETATM   16  N   UNK N   1      34.696  17.516   9.315  0.00  0.00    -0.235 N 
HETATM   17  H   UNK N   1      32.109  15.456   9.699  0.00  0.00     0.174 HD
HETATM   18  H   UNK N   1      32.208  16.889   8.781  0.00  0.00     0.174 HD
HETATM   19  H   UNK N   1      34.266  18.168   8.716  0.00  0.00     0.174 HD
HETATM   20  H   UNK N   1      35.634  17.644   9.588  0.00  0.00     0.174 HD
ENDBRANCH   6  10
BRANCH   7  21
HETATM   21  N   UNK N   1      38.002  13.653  10.473  0.00  0.00    -0.383 N 
HETATM   22  H   UNK N   1      38.654  14.384  10.378  0.00  0.00     0.157 HD
HETATM   23  H   UNK N   1      37.877  13.007   9.742  0.00  0.00     0.157 HD
ENDBRANCH   7  21
BRANCH   8  24
HETATM   24  N   UNK N   1      37.189  11.352  14.590  0.00  0.00    -0.383 N 
HETATM   25  H   UNK N   1      36.888  10.432  14.414  0.00  0.00     0.157 HD
HETATM   26  H   UNK N   1      37.728  11.550  15.389  0.00  0.00     0.157 HD
ENDBRANCH   8  24
TORSDOF 3
ENDMDL
MODEL 5
REMARK VINA RESULT:      -5.3      4.331      7.173
REMARK  3 active torsions:
REMARK  status: ('A' for Active; 'I' for Inactive)
REMARK    1  A    between atoms: N_7  and  C_14 
REMARK       I    between atoms: N_8  and  C_17 
REMARK    2  A    between atoms: N_10  and  C_15 
REMARK       I    between atoms: N_11  and  C_18 
REMARK       I    between atoms: N_12  and  C_18 
REMARK    3  A    between atoms: C_13  and  C_17 
ROOT
HETATM    1 Cl   UNK N   1      34.593  11.539  14.621  0.00  0.00    -0.060 Cl
HETATM    2  N   UNK N   1      36.806  14.455  12.983  0.00  0.00    -0.325 N 
ATOM      3  HN  UNK N   1      37.647  14.986  13.210  1.00  0.00     0.169 HD
HETATM    4  N   UNK N   1      34.556  13.030  12.384  0.00  0.00    -0.336 N 
ATOM      5  HN  UNK N   1      33.716  12.496  12.164  1.00  0.00     0.167 HD
HETATM    6  C   UNK N   1      34.986  13.976  11.507  0.00  0.00     0.146 A 
HETATM    7  C   UNK N   1      36.151  14.712  11.820  0.00  0.00     0.133 A 
HETATM    8  C   UNK N   1      36.363  13.505  13.850  0.00  0.00     0.140 A 
HETATM    9  C   UNK N   1      35.211  12.777  13.542  0.00  0.00     0.148 A 
ENDROOT
BRANCH   6  10
HETATM   10  C   UNK N   1      34.201  14.179  10.269  0.00  0.00     0.290 C 
HETATM   11  O   UNK N   1      34.535  13.637   9.223  0.00  0.00    -0.265 OA
HETATM   12  N   UNK N   1      33.101  14.983  10.331  0.00  0.00    -0.155 N 
HETATM   13  C   UNK N   1      32.300  15.274   9.359  0.00  0.00     0.672 C 
ATOM     14  HN  UNK N   1      32.888  15.397  11.238  1.00  0.00     0.187 HD
HETATM   15  N   UNK N   1      31.205  16.128   9.608  0.00  0.00    -0.235 N 
HETATM   16  N   UNK N   1      32.491  14.760   8.054  0.00  0.00    -0.235 N 
HETATM   17  H   UNK N   1      31.061  16.493  10.510  0.00  0.00     0.174 HD
HETATM   18  H   UNK N   1      30.586  16.360   8.878  0.00  0.00     0.174 HD
HETATM   19  H   UNK N   1      31.865  14.999   7.333  0.00  0.00     0.174 HD
HETATM   20  H   UNK N   1      33.251  14.162   7.867  0.00  0.00     0.174 HD
ENDBRANCH   6  10
BRANCH   7  21
HETATM   21  N   UNK N   1      36.649  15.708  10.953  0.00  0.00    -0.383 N 
HETATM   22  H   UNK N   1      37.007  16.547  11.321  0.00  0.00     0.157 HD
HETATM   23  H   UNK N   1      36.638  15.562   9.979  0.00  0.00     0.157 HD
ENDBRANCH   7  21
BRANCH   8  24
HETATM   24  N   UNK N   1      37.068  13.266  15.047  0.00  0.00    -0.383 N 
HETATM   25  H   UNK N   1      37.605  12.447  15.146  0.00  0.00     0.157 HD
HETATM   26  H   UNK N   1      37.023  13.917  15.783  0.00  0.00     0.157 HD
ENDBRANCH   8  24
TORSDOF 3
ENDMDL
MODEL 6
REMARK VINA RESULT:      -5.3     15.638     16.618
REMARK  3 active torsions:
REMARK  status: ('A' for Active; 'I' for Inactive)
REMARK    1  A    between atoms: N_7  and  C_14 
REMARK       I    between atoms: N_8  and  C_17 
REMARK    2  A    between atoms: N_10  and  C_15 
REMARK       I    between atoms: N_11  and  C_18 
REMARK       I    between atoms: N_12  and  C_18 
REMARK    3  A    between atoms: C_13  and  C_17 
ROOT
HETATM    1 Cl   UNK N   1      24.001  15.048   5.900  0.00  0.00    -0.060 Cl
HETATM    2  N   UNK N   1      20.753  16.910   7.339  0.00  0.00    -0.325 N 
ATOM      3  HN  UNK N   1      20.226  17.764   7.157  1.00  0.00     0.169 HD
HETATM    4  N   UNK N   1      22.168  14.627   7.822  0.00  0.00    -0.336 N 
ATOM      5  HN  UNK N   1      22.699  13.775   8.000  1.00  0.00     0.167 HD
HETATM    6  C   UNK N   1      21.072  14.891   8.582  0.00  0.00     0.146 A 
HETATM    7  C   UNK N   1      20.342  16.074   8.330  0.00  0.00     0.133 A 
HETATM    8  C   UNK N   1      21.851  16.631   6.589  0.00  0.00     0.140 A 
HETATM    9  C   UNK N   1      22.575  15.461   6.837  0.00  0.00     0.148 A 
ENDROOT
BRANCH   6  10
HETATM   10  C   UNK N   1      20.708  13.917   9.635  0.00  0.00     0.290 C 
HETATM   11  O   UNK N   1      19.543  13.782   9.984  0.00  0.00    -0.265 OA
HETATM   12  N   UNK N   1      21.707  13.180  10.200  0.00  0.00    -0.155 N 
HETATM   13  C   UNK N   1      21.581  12.288  11.126  0.00  0.00     0.672 C 
ATOM     14  HN  UNK N   1      22.652  13.351   9.856  1.00  0.00     0.187 HD
HETATM   15  N   UNK N   1      22.733  11.620  11.594  0.00  0.00    -0.235 N 
HETATM   16  N   UNK N   1      20.321  11.963  11.684  0.00  0.00    -0.235 N 
HETATM   17  H   UNK N   1      23.615  11.836  11.215  0.00  0.00     0.174 HD
HETATM   18  H   UNK N   1      22.654  10.937  12.300  0.00  0.00     0.174 HD
HETATM   19  H   UNK N   1      20.256  11.279  12.389  0.00  0.00     0.174 HD
HETATM   20  H   UNK N   1      19.509  12.422  11.367  0.00  0.00     0.174 HD
ENDBRANCH   6  10
BRANCH   7  21
HETATM   21  N   UNK N   1      19.195  16.407   9.082  0.00  0.00    -0.383 N 
HETATM   22  H   UNK N   1      18.335  16.560   8.628  0.00  0.00     0.157 HD
HETATM   23  H   UNK N   1      19.255  16.487  10.061  0.00  0.00     0.157 HD
ENDBRANCH   7  21
BRANCH   8  24
HETATM   24  N   UNK N   1      22.249  17.521   5.570  0.00  0.00    -0.383 N 
HETATM   25  H   UNK N   1      23.055  18.073   5.686  0.00  0.00     0.157 HD
HETATM   26  H   UNK N   1      21.720  17.589   4.743  0.00  0.00     0.157 HD
ENDBRANCH   8  24
TORSDOF 3
ENDMDL
MODEL 7
REMARK VINA RESULT:      -5.2      6.166      8.490
REMARK  3 active torsions:
REMARK  status: ('A' for Active; 'I' for Inactive)
REMARK    1  A    between atoms: N_7  and  C_14 
REMARK       I    between atoms: N_8  and  C_17 
REMARK    2  A    between atoms: N_10  and  C_15 
REMARK       I    between atoms: N_11  and  C_18 
REMARK       I    between atoms: N_12  and  C_18 
REMARK    3  A    between atoms: C_13  and  C_17 
ROOT
HETATM    1 Cl   UNK N   1      38.533  12.926  10.916  0.00  0.00    -0.060 Cl
HETATM    2  N   UNK N   1      34.558  13.228  11.354  0.00  0.00    -0.325 N 
ATOM      3  HN  UNK N   1      33.791  12.663  11.718  1.00  0.00     0.169 HD
HETATM    4  N   UNK N   1      36.616  14.734  10.382  0.00  0.00    -0.336 N 
ATOM      5  HN  UNK N   1      37.387  15.294  10.020  1.00  0.00     0.167 HD
HETATM    6  C   UNK N   1      35.355  15.241  10.337  0.00  0.00     0.146 A 
HETATM    7  C   UNK N   1      34.291  14.458  10.841  0.00  0.00     0.133 A 
HETATM    8  C   UNK N   1      35.825  12.736  11.392  0.00  0.00     0.140 A 
HETATM    9  C   UNK N   1      36.877  13.508  10.894  0.00  0.00     0.148 A 
ENDROOT
BRANCH   6  10
HETATM   10  C   UNK N   1      35.172  16.590   9.759  0.00  0.00     0.290 C 
HETATM   11  O   UNK N   1      35.542  17.586  10.368  0.00  0.00    -0.265 OA
HETATM   12  N   UNK N   1      34.581  16.689   8.533  0.00  0.00    -0.155 N 
HETATM   13  C   UNK N   1      34.340  17.774   7.875  0.00  0.00     0.672 C 
ATOM     14  HN  UNK N   1      34.301  15.814   8.090  1.00  0.00     0.187 HD
HETATM   15  N   UNK N   1      33.718  17.686   6.612  0.00  0.00    -0.235 N 
HETATM   16  N   UNK N   1      34.683  19.049   8.387  0.00  0.00    -0.235 N 
HETATM   17  H   UNK N   1      33.474  16.806   6.245  0.00  0.00     0.174 HD
HETATM   18  H   UNK N   1      33.527  18.504   6.098  0.00  0.00     0.174 HD
HETATM   19  H   UNK N   1      34.488  19.860   7.863  0.00  0.00     0.174 HD
HETATM   20  H   UNK N   1      35.118  19.126   9.267  0.00  0.00     0.174 HD
ENDBRANCH   6  10
BRANCH   7  21
HETATM   21  N   UNK N   1      32.960  14.926  10.824  0.00  0.00    -0.383 N 
HETATM   22  H   UNK N   1      32.465  15.034  11.668  0.00  0.00     0.157 HD
HETATM   23  H   UNK N   1      32.526  15.143   9.968  0.00  0.00     0.157 HD
ENDBRANCH   7  21
BRANCH   8  24
HETATM   24  N   UNK N   1      36.063  11.455  11.932  0.00  0.00    -0.383 N 
HETATM   25  H   UNK N   1      35.386  11.028  12.503  0.00  0.00     0.157 HD
HETATM   26  H   UNK N   1      36.908  10.989  11.736  0.00  0.00     0.157 HD
ENDBRANCH   8  24
TORSDOF 3
ENDMDL
MODEL 8
REMARK VINA RESULT:      -5.2      7.261      9.386
REMARK  3 active torsions:
REMARK  status: ('A' for Active; 'I' for Inactive)
REMARK    1  A    between atoms: N_7  and  C_14 
REMARK       I    between atoms: N_8  and  C_17 
REMARK    2  A    between atoms: N_10  and  C_15 
REMARK       I    between atoms: N_11  and  C_18 
REMARK       I    between atoms: N_12  and  C_18 
REMARK    3  A    between atoms: C_13  and  C_17 
ROOT
HETATM    1 Cl   UNK N   1      29.237  17.887   9.166  0.00  0.00    -0.060 Cl
HETATM    2  N   UNK N   1      32.019  17.000   6.417  0.00  0.00    -0.325 N 
ATOM      3  HN  UNK N   1      32.079  16.905   5.403  1.00  0.00     0.169 HD
HETATM    4  N   UNK N   1      31.850  17.254   9.129  0.00  0.00    -0.336 N 
ATOM      5  HN  UNK N   1      31.783  17.350  10.142  1.00  0.00     0.167 HD
HETATM    6  C   UNK N   1      33.047  16.922   8.575  0.00  0.00     0.146 A 
HETATM    7  C   UNK N   1      33.131  16.791   7.171  0.00  0.00     0.133 A 
HETATM    8  C   UNK N   1      30.830  17.331   6.986  0.00  0.00     0.140 A 
HETATM    9  C   UNK N   1      30.745  17.461   8.375  0.00  0.00     0.148 A 
ENDROOT
BRANCH   6  10
HETATM   10  C   UNK N   1      34.196  16.716   9.484  0.00  0.00     0.290 C 
HETATM   11  O   UNK N   1      35.137  17.500   9.488  0.00  0.00    -0.265 OA
HETATM   12  N   UNK N   1      34.174  15.632  10.312  0.00  0.00    -0.155 N 
HETATM   13  C   UNK N   1      35.082  15.293  11.167  0.00  0.00     0.672 C 
ATOM     14  HN  UNK N   1      33.356  15.026  10.249  1.00  0.00     0.187 HD
HETATM   15  N   UNK N   1      34.890  14.131  11.944  0.00  0.00    -0.235 N 
HETATM   16  N   UNK N   1      36.262  16.054  11.345  0.00  0.00    -0.235 N 
HETATM   17  H   UNK N   1      34.074  13.592  11.830  0.00  0.00     0.174 HD
HETATM   18  H   UNK N   1      35.572  13.859  12.600  0.00  0.00     0.174 HD
HETATM   19  H   UNK N   1      36.937  15.771  12.004  0.00  0.00     0.174 HD
HETATM   20  H   UNK N   1      36.409  16.867  10.809  0.00  0.00     0.174 HD
ENDBRANCH   6  10
BRANCH   7  21
HETATM   21  N   UNK N   1      34.343  16.448   6.534  0.00  0.00    -0.383 N 
HETATM   22  H   UNK N   1      35.026  17.139   6.371  0.00  0.00     0.157 HD
HETATM   23  H   UNK N   1      34.506  15.519   6.253  0.00  0.00     0.157 HD
ENDBRANCH   7  21
BRANCH   8  24
HETATM   24  N   UNK N   1      29.698  17.541   6.172  0.00  0.00    -0.383 N 
HETATM   25  H   UNK N   1      28.974  16.875   6.157  0.00  0.00     0.157 HD
HETATM   26  H   UNK N   1      29.632  18.353   5.621  0.00  0.00     0.157 HD
ENDBRANCH   8  24
TORSDOF 3
ENDMDL
MODEL 9
REMARK VINA RESULT:      -5.2      9.691     11.743
REMARK  3 active torsions:
REMARK  status: ('A' for Active; 'I' for Inactive)
REMARK    1  A    between atoms: N_7  and  C_14 
REMARK       I    between atoms: N_8  and  C_17 
REMARK    2  A    between atoms: N_10  and  C_15 
REMARK       I    between atoms: N_11  and  C_18 
REMARK       I    between atoms: N_12  and  C_18 
REMARK    3  A    between atoms: C_13  and  C_17 
ROOT
HETATM    1 Cl   UNK N   1      28.540  17.585   4.320  0.00  0.00    -0.060 Cl
HETATM    2  N   UNK N   1      28.293  18.795   8.136  0.00  0.00    -0.325 N 
ATOM      3  HN  UNK N   1      27.633  19.297   8.730  1.00  0.00     0.169 HD
HETATM    4  N   UNK N   1      30.054  17.455   6.539  0.00  0.00    -0.336 N 
ATOM      5  HN  UNK N   1      30.709  16.954   5.939  1.00  0.00     0.167 HD
HETATM    6  C   UNK N   1      30.379  17.662   7.843  0.00  0.00     0.146 A 
HETATM    7  C   UNK N   1      29.465  18.357   8.667  0.00  0.00     0.133 A 
HETATM    8  C   UNK N   1      27.983  18.580   6.830  0.00  0.00     0.140 A 
HETATM    9  C   UNK N   1      28.886  17.893   6.013  0.00  0.00     0.148 A 
ENDROOT
BRANCH   6  10
HETATM   10  C   UNK N   1      31.680  17.144   8.322  0.00  0.00     0.290 C 
HETATM   11  O   UNK N   1      31.776  16.002   8.751  0.00  0.00    -0.265 OA
HETATM   12  N   UNK N   1      32.760  17.976   8.271  0.00  0.00    -0.155 N 
HETATM   13  C   UNK N   1      33.966  17.700   8.643  0.00  0.00     0.672 C 
ATOM     14  HN  UNK N   1      32.599  18.912   7.901  1.00  0.00     0.187 HD
HETATM   15  N   UNK N   1      34.964  18.690   8.517  0.00  0.00    -0.235 N 
HETATM   16  N   UNK N   1      34.314  16.434   9.173  0.00  0.00    -0.235 N 
HETATM   17  H   UNK N   1      34.736  19.574   8.150  0.00  0.00     0.174 HD
HETATM   18  H   UNK N   1      35.889  18.495   8.796  0.00  0.00     0.174 HD
HETATM   19  H   UNK N   1      35.241  16.252   9.448  0.00  0.00     0.174 HD
HETATM   20  H   UNK N   1      33.627  15.734   9.266  0.00  0.00     0.174 HD
ENDBRANCH   6  10
BRANCH   7  21
HETATM   21  N   UNK N   1      29.742  18.605  10.028  0.00  0.00    -0.383 N 
HETATM   22  H   UNK N   1      30.040  19.498  10.315  0.00  0.00     0.157 HD
HETATM   23  H   UNK N   1      29.638  17.885  10.691  0.00  0.00     0.157 HD
ENDBRANCH   7  21
BRANCH   8  24
HETATM   24  N   UNK N   1      26.758  19.049   6.313  0.00  0.00    -0.383 N 
HETATM   25  H   UNK N   1      26.243  18.493   5.686  0.00  0.00     0.157 HD
HETATM   26  H   UNK N   1      26.419  19.933   6.581  0.00  0.00     0.157 HD
ENDBRANCH   8  24
TORSDOF 3
ENDMDL
