MODEL 1
REMARK VINA RESULT:      -7.0      0.000      0.000
REMARK  10 active torsions:
REMARK  status: ('A' for Active; 'I' for Inactive)
REMARK    1  A    between atoms: O_1  and  C_10 
REMARK    2  A    between atoms: O_2  and  C_20 
REMARK    3  A    between atoms: N_4  and  C_6 
REMARK    4  A    between atoms: N_4  and  C_8 
REMARK       I    between atoms: N_5  and  C_24 
REMARK    5  A    between atoms: C_6  and  C_7 
REMARK    6  A    between atoms: C_7  and  C_9 
REMARK    7  A    between atoms: C_8  and  C_10 
REMARK    8  A    between atoms: C_9  and  C_13 
REMARK    9  A    between atoms: C_10  and  C_12 
REMARK   10  A    between atoms: C_18  and  C_24 
ROOT
HETATM    1  C   UNK N   1      29.849  20.937  -7.148  0.00  0.00     0.168 C 
ENDROOT
BRANCH   1   2
HETATM    2  O   UNK N   1      29.185  19.713  -7.263  0.00  0.00    -0.389 OA
HETATM    3  H   UNK N   1      29.475  18.952  -6.735  0.00  0.00     0.210 HD
ENDBRANCH   1   2
BRANCH   1   4
HETATM    4  C   UNK N   1      28.873  22.076  -7.384  0.00  0.00     0.150 C 
BRANCH   4   5
HETATM    5  N   UNK N   1      27.549  21.514  -7.603  0.00  0.00    -0.415 N 
HETATM    6  H   UNK N   1      27.342  20.525  -7.748  0.00  0.00     0.153 HD
BRANCH   5   7
HETATM    7  C   UNK N   1      26.564  22.592  -7.582  0.00  0.00     0.072 C 
HETATM    8  C   UNK N   1      25.233  22.092  -7.052  0.00  0.00     0.031 C 
BRANCH   7   9
HETATM    9  C   UNK N   1      27.032  23.693  -6.650  0.00  0.00     0.029 C 
BRANCH   9  10
HETATM   10  C   UNK N   1      26.169  23.761  -5.403  0.00  0.00     0.040 C 
BRANCH  10  11
HETATM   11  C   UNK N   1      25.965  25.168  -4.954  0.00  0.00    -0.058 A 
HETATM   12  C   UNK N   1      26.485  25.579  -3.723  0.00  0.00     0.007 A 
HETATM   13  C   UNK N   1      26.280  26.888  -3.277  0.00  0.00     0.001 A 
HETATM   14  C   UNK N   1      25.548  27.787  -4.058  0.00  0.00     0.000 A 
HETATM   15  C   UNK N   1      25.022  27.378  -5.288  0.00  0.00     0.001 A 
HETATM   16  C   UNK N   1      25.229  26.071  -5.735  0.00  0.00     0.007 A 
ENDBRANCH  10  11
ENDBRANCH   9  10
ENDBRANCH   7   9
ENDBRANCH   5   7
ENDBRANCH   4   5
ENDBRANCH   1   4
BRANCH   1  17
HETATM   17  C   UNK N   1      30.557  21.075  -5.831  0.00  0.00    -0.027 A 
HETATM   18  C   UNK N   1      30.190  22.064  -4.912  0.00  0.00     0.029 A 
HETATM   19  C   UNK N   1      30.821  22.158  -3.663  0.00  0.00     0.065 A 
HETATM   20  C   UNK N   1      31.850  21.240  -3.343  0.00  0.00     0.081 A 
HETATM   21  C   UNK N   1      32.216  20.256  -4.263  0.00  0.00     0.038 A 
HETATM   22  C   UNK N   1      31.569  20.169  -5.493  0.00  0.00     0.012 A 
BRANCH  19  23
HETATM   23  C   UNK N   1      30.378  23.211  -2.713  0.00  0.00     0.252 C 
HETATM   24  O   UNK N   1      30.435  23.031  -1.510  0.00  0.00    -0.268 OA
HETATM   25  N   UNK N   1      29.891  24.380  -3.183  0.00  0.00    -0.366 N 
HETATM   26  H   UNK N   1      29.884  24.558  -4.150  0.00  0.00     0.159 HD
HETATM   27  H   UNK N   1      29.543  25.055  -2.556  0.00  0.00     0.159 HD
ENDBRANCH  19  23
BRANCH  20  28
HETATM   28  O   UNK N   1      32.485  21.290  -2.160  0.00  0.00    -0.360 OA
HETATM   29  H   UNK N   1      33.399  21.494  -2.125  0.00  0.00     0.217 HD
ENDBRANCH  20  28
ENDBRANCH   1  17
TORSDOF 10
ENDMDL
MODEL 2
REMARK VINA RESULT:      -7.0     13.065     15.403
REMARK  10 active torsions:
REMARK  status: ('A' for Active; 'I' for Inactive)
REMARK    1  A    between atoms: O_1  and  C_10 
REMARK    2  A    between atoms: O_2  and  C_20 
REMARK    3  A    between atoms: N_4  and  C_6 
REMARK    4  A    between atoms: N_4  and  C_8 
REMARK       I    between atoms: N_5  and  C_24 
REMARK    5  A    between atoms: C_6  and  C_7 
REMARK    6  A    between atoms: C_7  and  C_9 
REMARK    7  A    between atoms: C_8  and  C_10 
REMARK    8  A    between atoms: C_9  and  C_13 
REMARK    9  A    between atoms: C_10  and  C_12 
REMARK   10  A    between atoms: C_18  and  C_24 
ROOT
HETATM    1  C   UNK N   1      35.131  13.901   5.752  0.00  0.00     0.168 C 
ENDROOT
BRANCH   1   2
HETATM    2  O   UNK N   1      36.117  12.910   5.774  0.00  0.00    -0.389 OA
HETATM    3  H   UNK N   1      36.701  12.789   5.009  0.00  0.00     0.210 HD
ENDBRANCH   1   2
BRANCH   1   4
HETATM    4  C   UNK N   1      34.038  13.516   4.772  0.00  0.00     0.150 C 
BRANCH   4   5
HETATM    5  N   UNK N   1      34.321  14.146   3.490  0.00  0.00    -0.415 N 
HETATM    6  H   UNK N   1      35.211  14.102   2.993  0.00  0.00     0.153 HD
BRANCH   5   7
HETATM    7  C   UNK N   1      33.127  14.850   3.031  0.00  0.00     0.072 C 
HETATM    8  C   UNK N   1      31.872  14.161   3.535  0.00  0.00     0.031 C 
BRANCH   7   9
HETATM    9  C   UNK N   1      33.119  16.259   3.591  0.00  0.00     0.029 C 
BRANCH   9  10
HETATM   10  C   UNK N   1      31.890  16.503   4.449  0.00  0.00     0.040 C 
BRANCH  10  11
HETATM   11  C   UNK N   1      32.257  17.033   5.794  0.00  0.00    -0.058 A 
HETATM   12  C   UNK N   1      31.290  17.076   6.803  0.00  0.00     0.007 A 
HETATM   13  C   UNK N   1      31.612  17.594   8.061  0.00  0.00     0.001 A 
HETATM   14  C   UNK N   1      32.900  18.077   8.310  0.00  0.00     0.000 A 
HETATM   15  C   UNK N   1      33.869  18.040   7.301  0.00  0.00     0.001 A 
HETATM   16  C   UNK N   1      33.548  17.520   6.045  0.00  0.00     0.007 A 
ENDBRANCH  10  11
ENDBRANCH   9  10
ENDBRANCH   7   9
ENDBRANCH   5   7
ENDBRANCH   4   5
ENDBRANCH   1   4
BRANCH   1  17
HETATM   17  C   UNK N   1      34.579  14.180   7.121  0.00  0.00    -0.027 A 
HETATM   18  C   UNK N   1      35.332  14.869   8.078  0.00  0.00     0.029 A 
HETATM   19  C   UNK N   1      34.795  15.170   9.337  0.00  0.00     0.065 A 
HETATM   20  C   UNK N   1      33.475  14.757   9.638  0.00  0.00     0.081 A 
HETATM   21  C   UNK N   1      32.727  14.067   8.682  0.00  0.00     0.038 A 
HETATM   22  C   UNK N   1      33.272  13.789   7.431  0.00  0.00     0.012 A 
BRANCH  19  23
HETATM   23  C   UNK N   1      35.626  15.925  10.310  0.00  0.00     0.252 C 
HETATM   24  O   UNK N   1      36.786  15.613  10.515  0.00  0.00    -0.268 OA
HETATM   25  N   UNK N   1      35.093  16.964  10.988  0.00  0.00    -0.366 N 
HETATM   26  H   UNK N   1      34.174  17.258  10.797  0.00  0.00     0.159 HD
HETATM   27  H   UNK N   1      35.625  17.429  11.674  0.00  0.00     0.159 HD
ENDBRANCH  19  23
BRANCH  20  28
HETATM   28  O   UNK N   1      32.916  15.021  10.831  0.00  0.00    -0.360 OA
HETATM   29  H   UNK N   1      33.210  14.570  11.597  0.00  0.00     0.217 HD
ENDBRANCH  20  28
ENDBRANCH   1  17
TORSDOF 10
ENDMDL
MODEL 3
REMARK VINA RESULT:      -7.0     14.981     16.774
REMARK  10 active torsions:
REMARK  status: ('A' for Active; 'I' for Inactive)
REMARK    1  A    between atoms: O_1  and  C_10 
REMARK    2  A    between atoms: O_2  and  C_20 
REMARK    3  A    between atoms: N_4  and  C_6 
REMARK    4  A    between atoms: N_4  and  C_8 
REMARK       I    between atoms: N_5  and  C_24 
REMARK    5  A    between atoms: C_6  and  C_7 
REMARK    6  A    between atoms: C_7  and  C_9 
REMARK    7  A    between atoms: C_8  and  C_10 
REMARK    8  A    between atoms: C_9  and  C_13 
REMARK    9  A    between atoms: C_10  and  C_12 
REMARK   10  A    between atoms: C_18  and  C_24 
ROOT
HETATM    1  C   UNK N   1      21.512  17.901   6.222  0.00  0.00     0.168 C 
ENDROOT
BRANCH   1   2
HETATM    2  O   UNK N   1      20.981  18.930   7.003  0.00  0.00    -0.389 OA
HETATM    3  H   UNK N   1      20.161  18.788   7.503  0.00  0.00     0.210 HD
ENDBRANCH   1   2
BRANCH   1   4
HETATM    4  C   UNK N   1      21.111  16.556   6.800  0.00  0.00     0.150 C 
BRANCH   4   5
HETATM    5  N   UNK N   1      20.429  16.781   8.066  0.00  0.00    -0.415 N 
HETATM    6  H   UNK N   1      19.840  17.584   8.287  0.00  0.00     0.153 HD
BRANCH   5   7
HETATM    7  C   UNK N   1      20.723  15.671   8.969  0.00  0.00     0.072 C 
HETATM    8  C   UNK N   1      19.440  15.006   9.435  0.00  0.00     0.031 C 
BRANCH   7   9
HETATM    9  C   UNK N   1      21.532  14.618   8.237  0.00  0.00     0.029 C 
BRANCH   9  10
HETATM   10  C   UNK N   1      21.287  13.236   8.816  0.00  0.00     0.040 C 
BRANCH  10  11
HETATM   11  C   UNK N   1      22.380  12.828   9.744  0.00  0.00    -0.058 A 
HETATM   12  C   UNK N   1      23.712  12.991   9.351  0.00  0.00     0.007 A 
HETATM   13  C   UNK N   1      24.748  12.591  10.201  0.00  0.00     0.001 A 
HETATM   14  C   UNK N   1      24.454  12.020  11.442  0.00  0.00     0.000 A 
HETATM   15  C   UNK N   1      23.122  11.851  11.837  0.00  0.00     0.001 A 
HETATM   16  C   UNK N   1      22.087  12.254  10.989  0.00  0.00     0.007 A 
ENDBRANCH  10  11
ENDBRANCH   9  10
ENDBRANCH   7   9
ENDBRANCH   5   7
ENDBRANCH   4   5
ENDBRANCH   1   4
BRANCH   1  17
HETATM   17  C   UNK N   1      21.118  18.026   4.778  0.00  0.00    -0.027 A 
HETATM   18  C   UNK N   1      21.242  19.241   4.096  0.00  0.00     0.029 A 
HETATM   19  C   UNK N   1      20.918  19.341   2.736  0.00  0.00     0.065 A 
HETATM   20  C   UNK N   1      20.450  18.193   2.055  0.00  0.00     0.081 A 
HETATM   21  C   UNK N   1      20.324  16.982   2.738  0.00  0.00     0.038 A 
HETATM   22  C   UNK N   1      20.663  16.897   4.086  0.00  0.00     0.012 A 
BRANCH  19  23
HETATM   23  C   UNK N   1      21.091  20.649   2.052  0.00  0.00     0.252 C 
HETATM   24  O   UNK N   1      21.917  21.454   2.443  0.00  0.00    -0.268 OA
HETATM   25  N   UNK N   1      20.317  20.962   0.990  0.00  0.00    -0.366 N 
HETATM   26  H   UNK N   1      19.680  20.302   0.634  0.00  0.00     0.159 HD
HETATM   27  H   UNK N   1      20.391  21.851   0.573  0.00  0.00     0.159 HD
ENDBRANCH  19  23
BRANCH  20  28
HETATM   28  O   UNK N   1      20.126  18.238   0.751  0.00  0.00    -0.360 OA
HETATM   29  H   UNK N   1      20.292  19.014   0.253  0.00  0.00     0.217 HD
ENDBRANCH  20  28
ENDBRANCH   1  17
TORSDOF 10
ENDMDL
MODEL 4
REMARK VINA RESULT:      -7.0      3.119      6.055
REMARK  10 active torsions:
REMARK  status: ('A' for Active; 'I' for Inactive)
REMARK    1  A    between atoms: O_1  and  C_10 
REMARK    2  A    between atoms: O_2  and  C_20 
REMARK    3  A    between atoms: N_4  and  C_6 
REMARK    4  A    between atoms: N_4  and  C_8 
REMARK       I    between atoms: N_5  and  C_24 
REMARK    5  A    between atoms: C_6  and  C_7 
REMARK    6  A    between atoms: C_7  and  C_9 
REMARK    7  A    between atoms: C_8  and  C_10 
REMARK    8  A    between atoms: C_9  and  C_13 
REMARK    9  A    between atoms: C_10  and  C_12 
REMARK   10  A    between atoms: C_18  and  C_24 
ROOT
HETATM    1  C   UNK N   1      26.424  24.621  -3.900  0.00  0.00     0.168 C 
ENDROOT
BRANCH   1   2
HETATM    2  O   UNK N   1      26.697  23.866  -2.755  0.00  0.00    -0.389 OA
HETATM    3  H   UNK N   1      25.969  23.548  -2.198  0.00  0.00     0.210 HD
ENDBRANCH   1   2
BRANCH   1   4
HETATM    4  C   UNK N   1      27.111  25.971  -3.801  0.00  0.00     0.150 C 
BRANCH   4   5
HETATM    5  N   UNK N   1      26.200  26.909  -3.162  0.00  0.00    -0.415 N 
HETATM    6  H   UNK N   1      25.888  26.864  -2.192  0.00  0.00     0.153 HD
BRANCH   5   7
HETATM    7  C   UNK N   1      25.805  27.926  -4.133  0.00  0.00     0.072 C 
HETATM    8  C   UNK N   1      26.207  29.309  -3.655  0.00  0.00     0.031 C 
BRANCH   7   9
HETATM    9  C   UNK N   1      26.520  27.682  -5.448  0.00  0.00     0.029 C 
BRANCH   9  10
HETATM   10  C   UNK N   1      25.567  27.148  -6.502  0.00  0.00     0.040 C 
BRANCH  10  11
HETATM   11  C   UNK N   1      26.302  26.582  -7.669  0.00  0.00    -0.058 A 
HETATM   12  C   UNK N   1      27.676  26.814  -7.795  0.00  0.00     0.007 A 
HETATM   13  C   UNK N   1      28.374  26.311  -8.897  0.00  0.00     0.001 A 
HETATM   14  C   UNK N   1      27.698  25.580  -9.879  0.00  0.00     0.000 A 
HETATM   15  C   UNK N   1      26.324  25.350  -9.759  0.00  0.00     0.001 A 
HETATM   16  C   UNK N   1      25.627  25.850  -8.656  0.00  0.00     0.007 A 
ENDBRANCH  10  11
ENDBRANCH   9  10
ENDBRANCH   7   9
ENDBRANCH   5   7
ENDBRANCH   4   5
ENDBRANCH   1   4
BRANCH   1  17
HETATM   17  C   UNK N   1      26.802  23.895  -5.159  0.00  0.00    -0.027 A 
HETATM   18  C   UNK N   1      25.834  23.262  -5.947  0.00  0.00     0.029 A 
HETATM   19  C   UNK N   1      26.185  22.626  -7.147  0.00  0.00     0.065 A 
HETATM   20  C   UNK N   1      27.541  22.624  -7.552  0.00  0.00     0.081 A 
HETATM   21  C   UNK N   1      28.504  23.254  -6.763  0.00  0.00     0.038 A 
HETATM   22  C   UNK N   1      28.136  23.891  -5.581  0.00  0.00     0.012 A 
BRANCH  19  23
HETATM   23  C   UNK N   1      25.116  21.990  -7.959  0.00  0.00     0.252 C 
HETATM   24  O   UNK N   1      24.117  22.611  -8.275  0.00  0.00    -0.268 OA
HETATM   25  N   UNK N   1      25.241  20.701  -8.346  0.00  0.00    -0.366 N 
HETATM   26  H   UNK N   1      26.064  20.203  -8.140  0.00  0.00     0.159 HD
HETATM   27  H   UNK N   1      24.508  20.261  -8.835  0.00  0.00     0.159 HD
ENDBRANCH  19  23
BRANCH  20  28
HETATM   28  O   UNK N   1      27.927  22.028  -8.693  0.00  0.00    -0.360 OA
HETATM   29  H   UNK N   1      28.182  22.547  -9.431  0.00  0.00     0.217 HD
ENDBRANCH  20  28
ENDBRANCH   1  17
TORSDOF 10
ENDMDL
MODEL 5
REMARK VINA RESULT:      -6.8     11.259     13.379
REMARK  10 active torsions:
REMARK  status: ('A' for Active; 'I' for Inactive)
REMARK    1  A    between atoms: O_1  and  C_10 
REMARK    2  A    between atoms: O_2  and  C_20 
REMARK    3  A    between atoms: N_4  and  C_6 
REMARK    4  A    between atoms: N_4  and  C_8 
REMARK       I    between atoms: N_5  and  C_24 
REMARK    5  A    between atoms: C_6  and  C_7 
REMARK    6  A    between atoms: C_7  and  C_9 
REMARK    7  A    between atoms: C_8  and  C_10 
REMARK    8  A    between atoms: C_9  and  C_13 
REMARK    9  A    between atoms: C_10  and  C_12 
REMARK   10  A    between atoms: C_18  and  C_24 
ROOT
HETATM    1  C   UNK N   1      29.306  17.540   8.588  0.00  0.00     0.168 C 
ENDROOT
BRANCH   1   2
HETATM    2  O   UNK N   1      29.212  18.555   9.544  0.00  0.00    -0.389 OA
HETATM    3  H   UNK N   1      28.879  19.431   9.292  0.00  0.00     0.210 HD
ENDBRANCH   1   2
BRANCH   1   4
HETATM    4  C   UNK N   1      28.128  17.621   7.634  0.00  0.00     0.150 C 
BRANCH   4   5
HETATM    5  N   UNK N   1      27.797  19.022   7.423  0.00  0.00    -0.415 N 
HETATM    6  H   UNK N   1      27.986  19.781   8.079  0.00  0.00     0.153 HD
BRANCH   5   7
HETATM    7  C   UNK N   1      27.152  19.169   6.121  0.00  0.00     0.072 C 
HETATM    8  C   UNK N   1      28.050  19.928   5.161  0.00  0.00     0.031 C 
BRANCH   7   9
HETATM    9  C   UNK N   1      26.906  17.800   5.516  0.00  0.00     0.029 C 
BRANCH   9  10
HETATM   10  C   UNK N   1      26.686  17.893   4.017  0.00  0.00     0.040 C 
BRANCH  10  11
HETATM   11  C   UNK N   1      27.323  16.752   3.298  0.00  0.00    -0.058 A 
HETATM   12  C   UNK N   1      28.716  16.626   3.307  0.00  0.00     0.007 A 
HETATM   13  C   UNK N   1      29.329  15.577   2.616  0.00  0.00     0.001 A 
HETATM   14  C   UNK N   1      28.551  14.656   1.908  0.00  0.00     0.000 A 
HETATM   15  C   UNK N   1      27.158  14.782   1.894  0.00  0.00     0.001 A 
HETATM   16  C   UNK N   1      26.545  15.829   2.587  0.00  0.00     0.007 A 
ENDBRANCH  10  11
ENDBRANCH   9  10
ENDBRANCH   7   9
ENDBRANCH   5   7
ENDBRANCH   4   5
ENDBRANCH   1   4
BRANCH   1  17
HETATM   17  C   UNK N   1      30.618  17.573   7.856  0.00  0.00    -0.027 A 
HETATM   18  C   UNK N   1      31.814  17.849   8.528  0.00  0.00     0.029 A 
HETATM   19  C   UNK N   1      33.041  17.831   7.850  0.00  0.00     0.065 A 
HETATM   20  C   UNK N   1      33.058  17.538   6.466  0.00  0.00     0.081 A 
HETATM   21  C   UNK N   1      31.863  17.265   5.798  0.00  0.00     0.038 A 
HETATM   22  C   UNK N   1      30.654  17.274   6.490  0.00  0.00     0.012 A 
BRANCH  19  23
HETATM   23  C   UNK N   1      34.286  18.107   8.614  0.00  0.00     0.252 C 
HETATM   24  O   UNK N   1      35.027  19.020   8.293  0.00  0.00    -0.268 OA
HETATM   25  N   UNK N   1      34.613  17.332   9.671  0.00  0.00    -0.366 N 
HETATM   26  H   UNK N   1      34.001  16.623   9.970  0.00  0.00     0.159 HD
HETATM   27  H   UNK N   1      35.466  17.478  10.142  0.00  0.00     0.159 HD
ENDBRANCH  19  23
BRANCH  20  28
HETATM   28  O   UNK N   1      34.209  17.508   5.772  0.00  0.00    -0.360 OA
HETATM   29  H   UNK N   1      34.918  16.970   6.062  0.00  0.00     0.217 HD
ENDBRANCH  20  28
ENDBRANCH   1  17
TORSDOF 10
ENDMDL
MODEL 6
REMARK VINA RESULT:      -6.6     12.530     14.987
REMARK  10 active torsions:
REMARK  status: ('A' for Active; 'I' for Inactive)
REMARK    1  A    between atoms: O_1  and  C_10 
REMARK    2  A    between atoms: O_2  and  C_20 
REMARK    3  A    between atoms: N_4  and  C_6 
REMARK    4  A    between atoms: N_4  and  C_8 
REMARK       I    between atoms: N_5  and  C_24 
REMARK    5  A    between atoms: C_6  and  C_7 
REMARK    6  A    between atoms: C_7  and  C_9 
REMARK    7  A    between atoms: C_8  and  C_10 
REMARK    8  A    between atoms: C_9  and  C_13 
REMARK    9  A    between atoms: C_10  and  C_12 
REMARK   10  A    between atoms: C_18  and  C_24 
ROOT
HETATM    1  C   UNK N   1      34.260  15.638   5.593  0.00  0.00     0.168 C 
ENDROOT
BRANCH   1   2
HETATM    2  O   UNK N   1      34.231  14.436   4.880  0.00  0.00    -0.389 OA
HETATM    3  H   UNK N   1      33.403  14.130   4.477  0.00  0.00     0.210 HD
ENDBRANCH   1   2
BRANCH   1   4
HETATM    4  C   UNK N   1      33.311  16.637   4.956  0.00  0.00     0.150 C 
BRANCH   4   5
HETATM    5  N   UNK N   1      32.663  16.001   3.818  0.00  0.00    -0.415 N 
HETATM    6  H   UNK N   1      33.144  15.550   3.040  0.00  0.00     0.153 HD
BRANCH   5   7
HETATM    7  C   UNK N   1      31.215  16.113   3.971  0.00  0.00     0.072 C 
HETATM    8  C   UNK N   1      30.621  14.793   4.429  0.00  0.00     0.031 C 
BRANCH   7   9
HETATM    9  C   UNK N   1      30.892  17.142   5.036  0.00  0.00     0.029 C 
BRANCH   9  10
HETATM   10  C   UNK N   1      29.559  16.846   5.701  0.00  0.00     0.040 C 
BRANCH  10  11
HETATM   11  C   UNK N   1      29.509  17.384   7.091  0.00  0.00    -0.058 A 
HETATM   12  C   UNK N   1      30.695  17.772   7.722  0.00  0.00     0.007 A 
HETATM   13  C   UNK N   1      30.666  18.254   9.033  0.00  0.00     0.001 A 
HETATM   14  C   UNK N   1      29.452  18.343   9.720  0.00  0.00     0.000 A 
HETATM   15  C   UNK N   1      28.264  17.951   9.094  0.00  0.00     0.001 A 
HETATM   16  C   UNK N   1      28.292  17.472   7.781  0.00  0.00     0.007 A 
ENDBRANCH  10  11
ENDBRANCH   9  10
ENDBRANCH   7   9
ENDBRANCH   5   7
ENDBRANCH   4   5
ENDBRANCH   1   4
BRANCH   1  17
HETATM   17  C   UNK N   1      33.962  15.438   7.051  0.00  0.00    -0.027 A 
HETATM   18  C   UNK N   1      34.850  15.878   8.039  0.00  0.00     0.029 A 
HETATM   19  C   UNK N   1      34.544  15.732   9.399  0.00  0.00     0.065 A 
HETATM   20  C   UNK N   1      33.322  15.121   9.768  0.00  0.00     0.081 A 
HETATM   21  C   UNK N   1      32.439  14.680   8.780  0.00  0.00     0.038 A 
HETATM   22  C   UNK N   1      32.753  14.846   7.433  0.00  0.00     0.012 A 
BRANCH  19  23
HETATM   23  C   UNK N   1      35.510  16.237  10.409  0.00  0.00     0.252 C 
HETATM   24  O   UNK N   1      35.318  17.294  10.984  0.00  0.00    -0.268 OA
HETATM   25  N   UNK N   1      36.625  15.528  10.689  0.00  0.00    -0.366 N 
HETATM   26  H   UNK N   1      36.769  14.650  10.269  0.00  0.00     0.159 HD
HETATM   27  H   UNK N   1      37.294  15.890  11.315  0.00  0.00     0.159 HD
ENDBRANCH  19  23
BRANCH  20  28
HETATM   28  O   UNK N   1      32.984  14.958  11.058  0.00  0.00    -0.360 OA
HETATM   29  H   UNK N   1      32.646  15.680  11.550  0.00  0.00     0.217 HD
ENDBRANCH  20  28
ENDBRANCH   1  17
TORSDOF 10
ENDMDL
MODEL 7
REMARK VINA RESULT:      -6.5      2.680      5.039
REMARK  10 active torsions:
REMARK  status: ('A' for Active; 'I' for Inactive)
REMARK    1  A    between atoms: O_1  and  C_10 
REMARK    2  A    between atoms: O_2  and  C_20 
REMARK    3  A    between atoms: N_4  and  C_6 
REMARK    4  A    between atoms: N_4  and  C_8 
REMARK       I    between atoms: N_5  and  C_24 
REMARK    5  A    between atoms: C_6  and  C_7 
REMARK    6  A    between atoms: C_7  and  C_9 
REMARK    7  A    between atoms: C_8  and  C_10 
REMARK    8  A    between atoms: C_9  and  C_13 
REMARK    9  A    between atoms: C_10  and  C_12 
REMARK   10  A    between atoms: C_18  and  C_24 
ROOT
HETATM    1  C   UNK N   1      29.638  27.358  -5.175  0.00  0.00     0.168 C 
ENDROOT
BRANCH   1   2
HETATM    2  O   UNK N   1      28.919  27.761  -6.303  0.00  0.00    -0.389 OA
HETATM    3  H   UNK N   1      29.232  28.509  -6.837  0.00  0.00     0.210 HD
ENDBRANCH   1   2
BRANCH   1   4
HETATM    4  C   UNK N   1      29.047  27.998  -3.932  0.00  0.00     0.150 C 
BRANCH   4   5
HETATM    5  N   UNK N   1      28.238  29.137  -4.337  0.00  0.00    -0.415 N 
HETATM    6  H   UNK N   1      28.380  29.695  -5.180  0.00  0.00     0.153 HD
BRANCH   5   7
HETATM    7  C   UNK N   1      27.190  29.355  -3.344  0.00  0.00     0.072 C 
HETATM    8  C   UNK N   1      26.354  30.570  -3.704  0.00  0.00     0.031 C 
BRANCH   7   9
HETATM    9  C   UNK N   1      26.255  28.161  -3.318  0.00  0.00     0.029 C 
BRANCH   9  10
HETATM   10  C   UNK N   1      25.612  27.936  -4.674  0.00  0.00     0.040 C 
BRANCH  10  11
HETATM   11  C   UNK N   1      25.797  26.533  -5.143  0.00  0.00    -0.058 A 
HETATM   12  C   UNK N   1      25.677  26.241  -6.505  0.00  0.00     0.007 A 
HETATM   13  C   UNK N   1      25.823  24.926  -6.956  0.00  0.00     0.001 A 
HETATM   14  C   UNK N   1      26.082  23.898  -6.044  0.00  0.00     0.000 A 
HETATM   15  C   UNK N   1      26.198  24.186  -4.680  0.00  0.00     0.001 A 
HETATM   16  C   UNK N   1      26.055  25.501  -4.230  0.00  0.00     0.007 A 
ENDBRANCH  10  11
ENDBRANCH   9  10
ENDBRANCH   7   9
ENDBRANCH   5   7
ENDBRANCH   4   5
ENDBRANCH   1   4
BRANCH   1  17
HETATM   17  C   UNK N   1      29.705  25.862  -5.052  0.00  0.00    -0.027 A 
HETATM   18  C   UNK N   1      29.728  25.239  -3.800  0.00  0.00     0.029 A 
HETATM   19  C   UNK N   1      29.742  23.841  -3.691  0.00  0.00     0.065 A 
HETATM   20  C   UNK N   1      29.741  23.059  -4.871  0.00  0.00     0.081 A 
HETATM   21  C   UNK N   1      29.720  23.684  -6.119  0.00  0.00     0.038 A 
HETATM   22  C   UNK N   1      29.693  25.073  -6.209  0.00  0.00     0.012 A 
BRANCH  19  23
HETATM   23  C   UNK N   1      29.742  23.228  -2.338  0.00  0.00     0.252 C 
HETATM   24  O   UNK N   1      30.786  23.028  -1.742  0.00  0.00    -0.268 OA
HETATM   25  N   UNK N   1      28.574  22.873  -1.759  0.00  0.00    -0.366 N 
HETATM   26  H   UNK N   1      27.721  23.072  -2.207  0.00  0.00     0.159 HD
HETATM   27  H   UNK N   1      28.577  22.414  -0.887  0.00  0.00     0.159 HD
ENDBRANCH  19  23
BRANCH  20  28
HETATM   28  O   UNK N   1      29.754  21.717  -4.818  0.00  0.00    -0.360 OA
HETATM   29  H   UNK N   1      29.201  21.219  -5.388  0.00  0.00     0.217 HD
ENDBRANCH  20  28
ENDBRANCH   1  17
TORSDOF 10
ENDMDL
MODEL 8
REMARK VINA RESULT:      -6.5     10.607     13.278
REMARK  10 active torsions:
REMARK  status: ('A' for Active; 'I' for Inactive)
REMARK    1  A    between atoms: O_1  and  C_10 
REMARK    2  A    between atoms: O_2  and  C_20 
REMARK    3  A    between atoms: N_4  and  C_6 
REMARK    4  A    between atoms: N_4  and  C_8 
REMARK       I    between atoms: N_5  and  C_24 
REMARK    5  A    between atoms: C_6  and  C_7 
REMARK    6  A    between atoms: C_7  and  C_9 
REMARK    7  A    between atoms: C_8  and  C_10 
REMARK    8  A    between atoms: C_9  and  C_13 
REMARK    9  A    between atoms: C_10  and  C_12 
REMARK   10  A    between atoms: C_18  and  C_24 
ROOT
HETATM    1  C   UNK N   1      33.588  17.746   8.165  0.00  0.00     0.168 C 
ENDROOT
BRANCH   1   2
HETATM    2  O   UNK N   1      34.433  18.859   8.167  0.00  0.00    -0.389 OA
HETATM    3  H   UNK N   1      34.492  19.426   7.381  0.00  0.00     0.210 HD
ENDBRANCH   1   2
BRANCH   1   4
HETATM    4  C   UNK N   1      32.162  18.181   8.455  0.00  0.00     0.150 C 
BRANCH   4   5
HETATM    5  N   UNK N   1      31.440  17.054   9.025  0.00  0.00    -0.415 N 
HETATM    6  H   UNK N   1      31.862  16.182   9.346  0.00  0.00     0.153 HD
BRANCH   5   7
HETATM    7  C   UNK N   1      30.015  17.371   9.061  0.00  0.00     0.072 C 
HETATM    8  C   UNK N   1      29.754  18.562   9.965  0.00  0.00     0.031 C 
BRANCH   7   9
HETATM    9  C   UNK N   1      29.541  17.752   7.672  0.00  0.00     0.029 C 
BRANCH   9  10
HETATM   10  C   UNK N   1      28.284  18.601   7.734  0.00  0.00     0.040 C 
BRANCH  10  11
HETATM   11  C   UNK N   1      27.886  19.091   6.383  0.00  0.00    -0.058 A 
HETATM   12  C   UNK N   1      27.483  20.420   6.225  0.00  0.00     0.007 A 
HETATM   13  C   UNK N   1      27.083  20.887   4.969  0.00  0.00     0.001 A 
HETATM   14  C   UNK N   1      27.079  20.023   3.870  0.00  0.00     0.000 A 
HETATM   15  C   UNK N   1      27.477  18.691   4.026  0.00  0.00     0.001 A 
HETATM   16  C   UNK N   1      27.880  18.225   5.280  0.00  0.00     0.007 A 
ENDBRANCH  10  11
ENDBRANCH   9  10
ENDBRANCH   7   9
ENDBRANCH   5   7
ENDBRANCH   4   5
ENDBRANCH   1   4
BRANCH   1  17
HETATM   17  C   UNK N   1      33.682  16.967   6.884  0.00  0.00    -0.027 A 
HETATM   18  C   UNK N   1      32.902  17.305   5.772  0.00  0.00     0.029 A 
HETATM   19  C   UNK N   1      33.029  16.605   4.564  0.00  0.00     0.065 A 
HETATM   20  C   UNK N   1      33.955  15.538   4.482  0.00  0.00     0.081 A 
HETATM   21  C   UNK N   1      34.729  15.201   5.593  0.00  0.00     0.038 A 
HETATM   22  C   UNK N   1      34.600  15.916   6.781  0.00  0.00     0.012 A 
BRANCH  19  23
HETATM   23  C   UNK N   1      32.195  17.019   3.406  0.00  0.00     0.252 C 
HETATM   24  O   UNK N   1      32.587  16.856   2.264  0.00  0.00    -0.268 OA
HETATM   25  N   UNK N   1      30.991  17.595   3.614  0.00  0.00    -0.366 N 
HETATM   26  H   UNK N   1      30.641  17.688   4.529  0.00  0.00     0.159 HD
HETATM   27  H   UNK N   1      30.464  17.922   2.849  0.00  0.00     0.159 HD
ENDBRANCH  19  23
BRANCH  20  28
HETATM   28  O   UNK N   1      34.112  14.837   3.346  0.00  0.00    -0.360 OA
HETATM   29  H   UNK N   1      33.608  14.061   3.199  0.00  0.00     0.217 HD
ENDBRANCH  20  28
ENDBRANCH   1  17
TORSDOF 10
ENDMDL
MODEL 9
REMARK VINA RESULT:      -6.5     15.687     17.401
REMARK  10 active torsions:
REMARK  status: ('A' for Active; 'I' for Inactive)
REMARK    1  A    between atoms: O_1  and  C_10 
REMARK    2  A    between atoms: O_2  and  C_20 
REMARK    3  A    between atoms: N_4  and  C_6 
REMARK    4  A    between atoms: N_4  and  C_8 
REMARK       I    between atoms: N_5  and  C_24 
REMARK    5  A    between atoms: C_6  and  C_7 
REMARK    6  A    between atoms: C_7  and  C_9 
REMARK    7  A    between atoms: C_8  and  C_10 
REMARK    8  A    between atoms: C_9  and  C_13 
REMARK    9  A    between atoms: C_10  and  C_12 
REMARK   10  A    between atoms: C_18  and  C_24 
ROOT
HETATM    1  C   UNK N   1      22.251  17.016   5.829  0.00  0.00     0.168 C 
ENDROOT
BRANCH   1   2
HETATM    2  O   UNK N   1      22.743  18.260   6.234  0.00  0.00    -0.389 OA
HETATM    3  H   UNK N   1      22.627  18.554   7.151  0.00  0.00     0.210 HD
ENDBRANCH   1   2
BRANCH   1   4
HETATM    4  C   UNK N   1      23.390  16.154   5.316  0.00  0.00     0.150 C 
BRANCH   4   5
HETATM    5  N   UNK N   1      24.628  16.606   5.934  0.00  0.00    -0.415 N 
HETATM    6  H   UNK N   1      24.714  17.384   6.588  0.00  0.00     0.153 HD
BRANCH   5   7
HETATM    7  C   UNK N   1      25.727  15.765   5.467  0.00  0.00     0.072 C 
HETATM    8  C   UNK N   1      27.060  16.318   5.936  0.00  0.00     0.031 C 
BRANCH   7   9
HETATM    9  C   UNK N   1      25.590  14.373   6.051  0.00  0.00     0.029 C 
BRANCH   9  10
HETATM   10  C   UNK N   1      25.686  14.400   7.566  0.00  0.00     0.040 C 
BRANCH  10  11
HETATM   11  C   UNK N   1      24.866  13.320   8.186  0.00  0.00    -0.058 A 
HETATM   12  C   UNK N   1      24.738  13.268   9.578  0.00  0.00     0.007 A 
HETATM   13  C   UNK N   1      23.993  12.247  10.176  0.00  0.00     0.001 A 
HETATM   14  C   UNK N   1      23.381  11.272   9.384  0.00  0.00     0.000 A 
HETATM   15  C   UNK N   1      23.511  11.318   7.992  0.00  0.00     0.001 A 
HETATM   16  C   UNK N   1      24.252  12.340   7.394  0.00  0.00     0.007 A 
ENDBRANCH  10  11
ENDBRANCH   9  10
ENDBRANCH   7   9
ENDBRANCH   5   7
ENDBRANCH   4   5
ENDBRANCH   1   4
BRANCH   1  17
HETATM   17  C   UNK N   1      21.482  16.330   6.922  0.00  0.00    -0.027 A 
HETATM   18  C   UNK N   1      20.374  16.940   7.520  0.00  0.00     0.029 A 
HETATM   19  C   UNK N   1      19.630  16.276   8.506  0.00  0.00     0.065 A 
HETATM   20  C   UNK N   1      20.021  14.974   8.901  0.00  0.00     0.081 A 
HETATM   21  C   UNK N   1      21.128  14.369   8.304  0.00  0.00     0.038 A 
HETATM   22  C   UNK N   1      21.847  15.038   7.317  0.00  0.00     0.012 A 
BRANCH  19  23
HETATM   23  C   UNK N   1      18.448  16.958   9.092  0.00  0.00     0.252 C 
HETATM   24  O   UNK N   1      17.376  16.384   9.183  0.00  0.00    -0.268 OA
HETATM   25  N   UNK N   1      18.550  18.234   9.521  0.00  0.00    -0.366 N 
HETATM   26  H   UNK N   1      19.420  18.693   9.500  0.00  0.00     0.159 HD
HETATM   27  H   UNK N   1      17.753  18.706   9.857  0.00  0.00     0.159 HD
ENDBRANCH  19  23
BRANCH  20  28
HETATM   28  O   UNK N   1      19.340  14.297   9.841  0.00  0.00    -0.360 OA
HETATM   29  H   UNK N   1      19.800  13.871  10.538  0.00  0.00     0.217 HD
ENDBRANCH  20  28
ENDBRANCH   1  17
TORSDOF 10
ENDMDL
