MODEL 1
REMARK VINA RESULT:      -5.4      0.000      0.000
REMARK  4 active torsions:
REMARK  status: ('A' for Active; 'I' for Inactive)
REMARK    1  A    between atoms: C_6  and  C_7 
REMARK    2  A    between atoms: C_6  and  C_9 
REMARK    3  A    between atoms: C_7  and  C_8 
REMARK    4  A    between atoms: C_8  and  C_13 
ROOT
HETATM    1  S   UNK N   1      35.506  15.956  11.425  0.00  0.00    -0.040 SA
HETATM    2  O   UNK N   1      34.759  18.701   7.710  0.00  0.00    -0.272 OA
HETATM    3  O   UNK N   1      32.051  14.898   8.458  0.00  0.00    -0.272 OA
HETATM    4  N   UNK N   1      35.057  17.421   9.496  0.00  0.00    -0.302 N 
HETATM    5  N   UNK N   1      33.657  15.448   9.881  0.00  0.00    -0.302 N 
HETATM    6  C   UNK N   1      33.295  16.821   7.797  0.00  0.00     0.125 A 
HETATM    7  C   UNK N   1      34.414  17.714   8.341  0.00  0.00     0.242 A 
HETATM    8  C   UNK N   1      32.963  15.663   8.740  0.00  0.00     0.242 A 
HETATM    9  C   UNK N   1      34.728  16.285  10.267  0.00  0.00     0.181 A 
HETATM   10  H   UNK N   1      35.775  18.018   9.808  0.00  0.00     0.171 HD
HETATM   11  H   UNK N   1      33.411  14.689  10.457  0.00  0.00     0.171 HD
ENDROOT
BRANCH   6  12
HETATM   12  C   UNK N   1      31.998  17.646   7.554  0.00  0.00     0.009 C 
HETATM   13  C   UNK N   1      31.094  17.053   6.479  0.00  0.00     0.011 C 
BRANCH  12  14
HETATM   14  C   UNK N   1      31.197  17.942   8.823  0.00  0.00     0.005 C 
BRANCH  14  15
HETATM   15  C   UNK N   1      29.764  18.322   8.483  0.00  0.00    -0.004 C 
HETATM   16  C   UNK N   1      28.804  17.744   9.509  0.00  0.00     0.005 C 
ENDBRANCH  14  15
ENDBRANCH  12  14
ENDBRANCH   6  12
BRANCH   6  17
HETATM   17  C   UNK N   1      33.816  16.238   6.465  0.00  0.00     0.025 C 
HETATM   18  C   UNK N   1      35.056  15.364   6.594  0.00  0.00     0.007 C 
ENDBRANCH   6  17
TORSDOF 4
ENDMDL
MODEL 2
REMARK VINA RESULT:      -5.3      7.316      9.033
REMARK  4 active torsions:
REMARK  status: ('A' for Active; 'I' for Inactive)
REMARK    1  A    between atoms: C_6  and  C_7 
REMARK    2  A    between atoms: C_6  and  C_9 
REMARK    3  A    between atoms: C_7  and  C_8 
REMARK    4  A    between atoms: C_8  and  C_13 
ROOT
HETATM    1  S   UNK N   1      37.832  10.883  11.110  0.00  0.00    -0.040 SA
HETATM    2  O   UNK N   1      34.824  13.713  13.310  0.00  0.00    -0.272 OA
HETATM    3  O   UNK N   1      36.877  10.139  15.626  0.00  0.00    -0.272 OA
HETATM    4  N   UNK N   1      36.298  12.396  12.302  0.00  0.00    -0.302 N 
HETATM    5  N   UNK N   1      37.357  10.543  13.501  0.00  0.00    -0.302 N 
HETATM    6  C   UNK N   1      35.649  11.959  14.698  0.00  0.00     0.125 A 
HETATM    7  C   UNK N   1      35.573  12.752  13.390  0.00  0.00     0.242 A 
HETATM    8  C   UNK N   1      36.673  10.824  14.633  0.00  0.00     0.242 A 
HETATM    9  C   UNK N   1      37.168  11.285  12.315  0.00  0.00     0.181 A 
HETATM   10  H   UNK N   1      36.215  12.930  11.479  0.00  0.00     0.171 HD
HETATM   11  H   UNK N   1      38.005   9.801  13.504  0.00  0.00     0.171 HD
ENDROOT
BRANCH   6  12
HETATM   12  C   UNK N   1      36.021  12.890  15.888  0.00  0.00     0.009 C 
HETATM   13  C   UNK N   1      36.869  14.090  15.479  0.00  0.00     0.011 C 
BRANCH  12  14
HETATM   14  C   UNK N   1      34.825  13.340  16.729  0.00  0.00     0.005 C 
BRANCH  14  15
HETATM   15  C   UNK N   1      35.287  13.947  18.046  0.00  0.00    -0.004 C 
HETATM   16  C   UNK N   1      35.188  12.924  19.165  0.00  0.00     0.005 C 
ENDBRANCH  14  15
ENDBRANCH  12  14
ENDBRANCH   6  12
BRANCH   6  17
HETATM   17  C   UNK N   1      34.248  11.348  14.914  0.00  0.00     0.025 C 
HETATM   18  C   UNK N   1      33.771  10.434  13.793  0.00  0.00     0.007 C 
ENDBRANCH   6  17
TORSDOF 4
ENDMDL
MODEL 3
REMARK VINA RESULT:      -5.3      1.477      3.824
REMARK  4 active torsions:
REMARK  status: ('A' for Active; 'I' for Inactive)
REMARK    1  A    between atoms: C_6  and  C_7 
REMARK    2  A    between atoms: C_6  and  C_9 
REMARK    3  A    between atoms: C_7  and  C_8 
REMARK    4  A    between atoms: C_8  and  C_13 
ROOT
HETATM    1  S   UNK N   1      34.582  15.112  11.217  0.00  0.00    -0.040 SA
HETATM    2  O   UNK N   1      32.305  14.887   7.135  0.00  0.00    -0.272 OA
HETATM    3  O   UNK N   1      34.663  18.802   8.348  0.00  0.00    -0.272 OA
HETATM    4  N   UNK N   1      33.440  14.993   9.038  0.00  0.00    -0.302 N 
HETATM    5  N   UNK N   1      34.657  17.023   9.667  0.00  0.00    -0.302 N 
HETATM    6  C   UNK N   1      33.342  17.000   7.516  0.00  0.00     0.125 A 
HETATM    7  C   UNK N   1      33.005  15.552   7.883  0.00  0.00     0.242 A 
HETATM    8  C   UNK N   1      34.267  17.661   8.541  0.00  0.00     0.242 A 
HETATM    9  C   UNK N   1      34.235  15.707   9.961  0.00  0.00     0.181 A 
HETATM   10  H   UNK N   1      33.196  14.061   9.239  0.00  0.00     0.171 HD
HETATM   11  H   UNK N   1      35.251  17.487  10.300  0.00  0.00     0.171 HD
ENDROOT
BRANCH   6  12
HETATM   12  C   UNK N   1      34.024  17.072   6.119  0.00  0.00     0.009 C 
HETATM   13  C   UNK N   1      34.752  15.788   5.732  0.00  0.00     0.011 C 
BRANCH  12  14
HETATM   14  C   UNK N   1      33.095  17.522   4.990  0.00  0.00     0.005 C 
BRANCH  14  15
HETATM   15  C   UNK N   1      32.952  16.432   3.939  0.00  0.00    -0.004 C 
HETATM   16  C   UNK N   1      32.100  16.921   2.780  0.00  0.00     0.005 C 
ENDBRANCH  14  15
ENDBRANCH  12  14
ENDBRANCH   6  12
BRANCH   6  17
HETATM   17  C   UNK N   1      32.001  17.765   7.497  0.00  0.00     0.025 C 
HETATM   18  C   UNK N   1      31.280  17.819   8.837  0.00  0.00     0.007 C 
ENDBRANCH   6  17
TORSDOF 4
ENDMDL
MODEL 4
REMARK VINA RESULT:      -5.1      2.094      3.341
REMARK  4 active torsions:
REMARK  status: ('A' for Active; 'I' for Inactive)
REMARK    1  A    between atoms: C_6  and  C_7 
REMARK    2  A    between atoms: C_6  and  C_9 
REMARK    3  A    between atoms: C_7  and  C_8 
REMARK    4  A    between atoms: C_8  and  C_13 
ROOT
HETATM    1  S   UNK N   1      34.580  14.386  10.911  0.00  0.00    -0.040 SA
HETATM    2  O   UNK N   1      31.469  17.045   8.641  0.00  0.00    -0.272 OA
HETATM    3  O   UNK N   1      35.403  15.580   6.467  0.00  0.00    -0.272 OA
HETATM    4  N   UNK N   1      32.927  15.735   9.680  0.00  0.00    -0.302 N 
HETATM    5  N   UNK N   1      34.967  14.981   8.554  0.00  0.00    -0.302 N 
HETATM    6  C   UNK N   1      33.386  16.515   7.327  0.00  0.00     0.125 A 
HETATM    7  C   UNK N   1      32.527  16.438   8.593  0.00  0.00     0.242 A 
HETATM    8  C   UNK N   1      34.649  15.656   7.427  0.00  0.00     0.242 A 
HETATM    9  C   UNK N   1      34.148  15.027   9.704  0.00  0.00     0.181 A 
HETATM   10  H   UNK N   1      32.348  15.716  10.475  0.00  0.00     0.171 HD
HETATM   11  H   UNK N   1      35.791  14.442   8.574  0.00  0.00     0.171 HD
ENDROOT
BRANCH   6  12
HETATM   12  C   UNK N   1      32.577  16.057   6.080  0.00  0.00     0.009 C 
HETATM   13  C   UNK N   1      31.624  14.901   6.366  0.00  0.00     0.011 C 
BRANCH  12  14
HETATM   14  C   UNK N   1      31.844  17.189   5.358  0.00  0.00     0.005 C 
BRANCH  14  15
HETATM   15  C   UNK N   1      32.518  17.513   4.034  0.00  0.00    -0.004 C 
HETATM   16  C   UNK N   1      31.843  16.765   2.897  0.00  0.00     0.005 C 
ENDBRANCH  14  15
ENDBRANCH  12  14
ENDBRANCH   6  12
BRANCH   6  17
HETATM   17  C   UNK N   1      33.807  17.994   7.179  0.00  0.00     0.025 C 
HETATM   18  C   UNK N   1      34.705  18.516   8.294  0.00  0.00     0.007 C 
ENDBRANCH   6  17
TORSDOF 4
ENDMDL
MODEL 5
REMARK VINA RESULT:      -5.0      2.645      3.827
REMARK  4 active torsions:
REMARK  status: ('A' for Active; 'I' for Inactive)
REMARK    1  A    between atoms: C_6  and  C_7 
REMARK    2  A    between atoms: C_6  and  C_9 
REMARK    3  A    between atoms: C_7  and  C_8 
REMARK    4  A    between atoms: C_8  and  C_13 
ROOT
HETATM    1  S   UNK N   1      30.271  18.326   9.124  0.00  0.00    -0.040 SA
HETATM    2  O   UNK N   1      34.656  18.354   7.490  0.00  0.00    -0.272 OA
HETATM    3  O   UNK N   1      31.628  14.975   6.160  0.00  0.00    -0.272 OA
HETATM    4  N   UNK N   1      32.557  18.356   8.205  0.00  0.00    -0.302 N 
HETATM    5  N   UNK N   1      30.990  16.603   7.520  0.00  0.00    -0.302 N 
HETATM    6  C   UNK N   1      33.376  16.500   6.711  0.00  0.00     0.125 A 
HETATM    7  C   UNK N   1      33.566  17.805   7.488  0.00  0.00     0.242 A 
HETATM    8  C   UNK N   1      31.937  15.983   6.781  0.00  0.00     0.242 A 
HETATM    9  C   UNK N   1      31.276  17.766   8.268  0.00  0.00     0.181 A 
HETATM   10  H   UNK N   1      32.722  19.193   8.696  0.00  0.00     0.171 HD
HETATM   11  H   UNK N   1      30.078  16.234   7.538  0.00  0.00     0.171 HD
ENDROOT
BRANCH   6  12
HETATM   12  C   UNK N   1      33.760  16.686   5.215  0.00  0.00     0.009 C 
HETATM   13  C   UNK N   1      34.078  15.376   4.501  0.00  0.00     0.011 C 
BRANCH  12  14
HETATM   14  C   UNK N   1      32.751  17.505   4.406  0.00  0.00     0.005 C 
BRANCH  14  15
HETATM   15  C   UNK N   1      32.417  16.810   3.095  0.00  0.00    -0.004 C 
HETATM   16  C   UNK N   1      30.929  16.513   3.016  0.00  0.00     0.005 C 
ENDBRANCH  14  15
ENDBRANCH  12  14
ENDBRANCH   6  12
BRANCH   6  17
HETATM   17  C   UNK N   1      34.306  15.461   7.376  0.00  0.00     0.025 C 
HETATM   18  C   UNK N   1      33.954  15.124   8.819  0.00  0.00     0.007 C 
ENDBRANCH   6  17
TORSDOF 4
ENDMDL
MODEL 6
REMARK VINA RESULT:      -5.0      6.594      8.932
REMARK  4 active torsions:
REMARK  status: ('A' for Active; 'I' for Inactive)
REMARK    1  A    between atoms: C_6  and  C_7 
REMARK    2  A    between atoms: C_6  and  C_9 
REMARK    3  A    between atoms: C_7  and  C_8 
REMARK    4  A    between atoms: C_8  and  C_13 
ROOT
HETATM    1  S   UNK N   1      35.545  15.487  11.560  0.00  0.00    -0.040 SA
HETATM    2  O   UNK N   1      34.365  11.284  13.245  0.00  0.00    -0.272 OA
HETATM    3  O   UNK N   1      37.575  13.942  15.477  0.00  0.00    -0.272 OA
HETATM    4  N   UNK N   1      34.895  13.304  12.497  0.00  0.00    -0.302 N 
HETATM    5  N   UNK N   1      36.561  14.678  13.651  0.00  0.00    -0.302 N 
HETATM    6  C   UNK N   1      36.055  12.369  14.530  0.00  0.00     0.125 A 
HETATM    7  C   UNK N   1      35.041  12.291  13.385  0.00  0.00     0.242 A 
HETATM    8  C   UNK N   1      36.775  13.719  14.580  0.00  0.00     0.242 A 
HETATM    9  C   UNK N   1      35.657  14.488  12.582  0.00  0.00     0.181 A 
HETATM   10  H   UNK N   1      34.236  13.210  11.771  0.00  0.00     0.171 HD
HETATM   11  H   UNK N   1      37.048  15.530  13.721  0.00  0.00     0.171 HD
ENDROOT
BRANCH   6  12
HETATM   12  C   UNK N   1      35.360  12.131  15.901  0.00  0.00     0.009 C 
HETATM   13  C   UNK N   1      34.226  13.111  16.185  0.00  0.00     0.011 C 
BRANCH  12  14
HETATM   14  C   UNK N   1      34.893  10.692  16.126  0.00  0.00     0.005 C 
BRANCH  14  15
HETATM   15  C   UNK N   1      34.931  10.335  17.604  0.00  0.00    -0.004 C 
HETATM   16  C   UNK N   1      36.368  10.247  18.092  0.00  0.00     0.005 C 
ENDBRANCH  14  15
ENDBRANCH  12  14
ENDBRANCH   6  12
BRANCH   6  17
HETATM   17  C   UNK N   1      37.099  11.264  14.259  0.00  0.00     0.025 C 
HETATM   18  C   UNK N   1      37.738  11.314  12.878  0.00  0.00     0.007 C 
ENDBRANCH   6  17
TORSDOF 4
ENDMDL
MODEL 7
REMARK VINA RESULT:      -4.8      2.083      3.237
REMARK  4 active torsions:
REMARK  status: ('A' for Active; 'I' for Inactive)
REMARK    1  A    between atoms: C_6  and  C_7 
REMARK    2  A    between atoms: C_6  and  C_9 
REMARK    3  A    between atoms: C_7  and  C_8 
REMARK    4  A    between atoms: C_8  and  C_13 
ROOT
HETATM    1  S   UNK N   1      35.266  13.442   5.867  0.00  0.00    -0.040 SA
HETATM    2  O   UNK N   1      32.119  14.876   9.019  0.00  0.00    -0.272 OA
HETATM    3  O   UNK N   1      34.270  17.998   6.195  0.00  0.00    -0.272 OA
HETATM    4  N   UNK N   1      33.569  14.212   7.478  0.00  0.00    -0.302 N 
HETATM    5  N   UNK N   1      34.686  15.830   6.019  0.00  0.00    -0.302 N 
HETATM    6  C   UNK N   1      33.094  16.668   7.785  0.00  0.00     0.125 A 
HETATM    7  C   UNK N   1      32.889  15.189   8.126  0.00  0.00     0.242 A 
HETATM    8  C   UNK N   1      34.054  16.868   6.611  0.00  0.00     0.242 A 
HETATM    9  C   UNK N   1      34.493  14.499   6.450  0.00  0.00     0.181 A 
HETATM   10  H   UNK N   1      33.413  13.273   7.732  0.00  0.00     0.171 HD
HETATM   11  H   UNK N   1      35.298  16.005   5.268  0.00  0.00     0.171 HD
ENDROOT
BRANCH   6  12
HETATM   12  C   UNK N   1      31.739  17.347   7.434  0.00  0.00     0.009 C 
HETATM   13  C   UNK N   1      30.801  16.451   6.632  0.00  0.00     0.011 C 
BRANCH  12  14
HETATM   14  C   UNK N   1      31.008  17.947   8.636  0.00  0.00     0.005 C 
BRANCH  14  15
HETATM   15  C   UNK N   1      29.604  17.374   8.757  0.00  0.00    -0.004 C 
HETATM   16  C   UNK N   1      28.585  18.493   8.907  0.00  0.00     0.005 C 
ENDBRANCH  14  15
ENDBRANCH  12  14
ENDBRANCH   6  12
BRANCH   6  17
HETATM   17  C   UNK N   1      33.709  17.320   9.042  0.00  0.00     0.025 C 
HETATM   18  C   UNK N   1      34.978  16.648   9.552  0.00  0.00     0.007 C 
ENDBRANCH   6  17
TORSDOF 4
ENDMDL
MODEL 8
REMARK VINA RESULT:      -4.8      3.008      4.621
REMARK  4 active torsions:
REMARK  status: ('A' for Active; 'I' for Inactive)
REMARK    1  A    between atoms: C_6  and  C_7 
REMARK    2  A    between atoms: C_6  and  C_9 
REMARK    3  A    between atoms: C_7  and  C_8 
REMARK    4  A    between atoms: C_8  and  C_13 
ROOT
HETATM    1  S   UNK N   1      32.230  16.830   3.325  0.00  0.00    -0.040 SA
HETATM    2  O   UNK N   1      34.553  18.228   7.139  0.00  0.00    -0.272 OA
HETATM    3  O   UNK N   1      31.838  14.360   7.275  0.00  0.00    -0.272 OA
HETATM    4  N   UNK N   1      33.491  17.514   5.327  0.00  0.00    -0.302 N 
HETATM    5  N   UNK N   1      32.081  15.513   5.400  0.00  0.00    -0.302 N 
HETATM    6  C   UNK N   1      33.210  16.294   7.515  0.00  0.00     0.125 A 
HETATM    7  C   UNK N   1      33.803  17.403   6.641  0.00  0.00     0.242 A 
HETATM    8  C   UNK N   1      32.335  15.327   6.715  0.00  0.00     0.242 A 
HETATM    9  C   UNK N   1      32.614  16.611   4.688  0.00  0.00     0.181 A 
HETATM   10  H   UNK N   1      33.890  18.246   4.802  0.00  0.00     0.171 HD
HETATM   11  H   UNK N   1      31.511  14.867   4.925  0.00  0.00     0.171 HD
ENDROOT
BRANCH   6  12
HETATM   12  C   UNK N   1      34.336  15.478   8.212  0.00  0.00     0.009 C 
HETATM   13  C   UNK N   1      35.394  14.955   7.245  0.00  0.00     0.011 C 
BRANCH  12  14
HETATM   14  C   UNK N   1      34.996  16.198   9.389  0.00  0.00     0.005 C 
BRANCH  14  15
HETATM   15  C   UNK N   1      35.618  15.200  10.353  0.00  0.00    -0.004 C 
HETATM   16  C   UNK N   1      34.546  14.552  11.214  0.00  0.00     0.005 C 
ENDBRANCH  14  15
ENDBRANCH  12  14
ENDBRANCH   6  12
BRANCH   6  17
HETATM   17  C   UNK N   1      32.329  16.999   8.569  0.00  0.00     0.025 C 
HETATM   18  C   UNK N   1      31.066  17.646   8.015  0.00  0.00     0.007 C 
ENDBRANCH   6  17
TORSDOF 4
ENDMDL
MODEL 9
REMARK VINA RESULT:      -4.7      2.361      4.361
REMARK  4 active torsions:
REMARK  status: ('A' for Active; 'I' for Inactive)
REMARK    1  A    between atoms: C_6  and  C_7 
REMARK    2  A    between atoms: C_6  and  C_9 
REMARK    3  A    between atoms: C_7  and  C_8 
REMARK    4  A    between atoms: C_8  and  C_13 
ROOT
HETATM    1  S   UNK N   1      30.430  18.348   9.052  0.00  0.00    -0.040 SA
HETATM    2  O   UNK N   1      31.439  14.515   6.564  0.00  0.00    -0.272 OA
HETATM    3  O   UNK N   1      34.583  18.027   6.929  0.00  0.00    -0.272 OA
HETATM    4  N   UNK N   1      31.004  16.314   7.787  0.00  0.00    -0.302 N 
HETATM    5  N   UNK N   1      32.632  18.135   7.972  0.00  0.00    -0.302 N 
HETATM    6  C   UNK N   1      33.175  16.148   6.516  0.00  0.00     0.125 A 
HETATM    7  C   UNK N   1      31.817  15.603   6.969  0.00  0.00     0.242 A 
HETATM    8  C   UNK N   1      33.505  17.497   7.159  0.00  0.00     0.242 A 
HETATM    9  C   UNK N   1      31.365  17.588   8.276  0.00  0.00     0.181 A 
HETATM   10  H   UNK N   1      30.137  15.930   8.049  0.00  0.00     0.171 HD
HETATM   11  H   UNK N   1      32.885  19.002   8.362  0.00  0.00     0.171 HD
ENDROOT
BRANCH   6  12
HETATM   12  C   UNK N   1      34.315  15.147   6.860  0.00  0.00     0.009 C 
HETATM   13  C   UNK N   1      35.414  15.093   5.803  0.00  0.00     0.011 C 
BRANCH  12  14
HETATM   14  C   UNK N   1      34.919  15.339   8.252  0.00  0.00     0.005 C 
BRANCH  14  15
HETATM   15  C   UNK N   1      34.367  14.312   9.228  0.00  0.00    -0.004 C 
HETATM   16  C   UNK N   1      33.878  14.993  10.496  0.00  0.00     0.005 C 
ENDBRANCH  14  15
ENDBRANCH  12  14
ENDBRANCH   6  12
BRANCH   6  17
HETATM   17  C   UNK N   1      33.075  16.342   4.987  0.00  0.00     0.025 C 
HETATM   18  C   UNK N   1      32.120  17.443   4.545  0.00  0.00     0.007 C 
ENDBRANCH   6  17
TORSDOF 4
ENDMDL
