REMARK  4 active torsions:
REMARK  status: ('A' for Active; 'I' for Inactive)
REMARK    1  A    between atoms: O_1  and  C_4 
REMARK    2  A    between atoms: O_1  and  C_5 
REMARK    3  A    between atoms: O_2  and  C_15 
REMARK    4  A    between atoms: C_3  and  C_4 
ROOT
HETATM    1  C   UNK N   1       2.373  -1.142   0.148  0.00  0.00     0.069 A 
HETATM    2  C   UNK N   1       1.074  -1.638   0.286  0.00  0.00     0.039 A 
HETATM    3  C   UNK N   1       3.430  -2.032  -0.113  0.00  0.00     0.039 A 
HETATM    4  C   UNK N   1       0.820  -3.004   0.164  0.00  0.00     0.039 A 
HETATM    5  C   UNK N   1       3.175  -3.403  -0.236  0.00  0.00     0.039 A 
HETATM    6  C   UNK N   1       1.869  -3.887  -0.100  0.00  0.00     0.065 A 
ENDROOT
BRANCH   1   7
HETATM    7  O   UNK N   1       2.566   0.190   0.255  0.00  0.00    -0.347 OA
BRANCH   7   8
HETATM    8  C   UNK N   1       3.782   0.827   0.138  0.00  0.00     0.214 C 
BRANCH   8   9
HETATM    9  C   UNK N   1       3.572   2.309   0.043  0.00  0.00    -0.034 A 
HETATM   10  C   UNK N   1       2.276   2.850  -0.019  0.00  0.00     0.009 A 
HETATM   11  C   UNK N   1       2.089   4.229  -0.114  0.00  0.00     0.001 A 
HETATM   12  C   UNK N   1       3.195   5.081  -0.147  0.00  0.00     0.000 A 
HETATM   13  C   UNK N   1       4.488   4.551  -0.087  0.00  0.00     0.001 A 
HETATM   14  C   UNK N   1       4.677   3.167   0.005  0.00  0.00     0.009 A 
ENDBRANCH   8   9
ENDBRANCH   7   8
ENDBRANCH   1   7
BRANCH   6  15
HETATM   15  O   UNK N   1       1.622  -5.201  -0.222  0.00  0.00    -0.361 OA
HETATM   16  H   UNK N   1       0.741  -5.509  -0.308  0.00  0.00     0.217 HD
ENDBRANCH   6  15
TORSDOF 4
