MODEL 1
REMARK VINA RESULT:      -6.0      0.000      0.000
REMARK  4 active torsions:
REMARK  status: ('A' for Active; 'I' for Inactive)
REMARK    1  A    between atoms: O_1  and  C_4 
REMARK    2  A    between atoms: O_1  and  C_5 
REMARK    3  A    between atoms: O_2  and  C_15 
REMARK    4  A    between atoms: C_3  and  C_4 
ROOT
HETATM    1  C   UNK N   1      28.974  23.319  -4.298  0.00  0.00     0.069 A 
HETATM    2  C   UNK N   1      29.932  22.546  -4.961  0.00  0.00     0.039 A 
HETATM    3  C   UNK N   1      29.063  23.487  -2.905  0.00  0.00     0.039 A 
HETATM    4  C   UNK N   1      30.973  21.946  -4.252  0.00  0.00     0.039 A 
HETATM    5  C   UNK N   1      30.108  22.885  -2.194  0.00  0.00     0.039 A 
HETATM    6  C   UNK N   1      31.064  22.117  -2.869  0.00  0.00     0.065 A 
ENDROOT
BRANCH   1   7
HETATM    7  O   UNK N   1      27.997  23.895  -5.030  0.00  0.00    -0.347 OA
BRANCH   7   8
HETATM    8  C   UNK N   1      26.661  23.914  -4.693  0.00  0.00     0.214 C 
BRANCH   8   9
HETATM    9  C   UNK N   1      26.179  25.332  -4.607  0.00  0.00    -0.034 A 
HETATM   10  C   UNK N   1      26.512  26.140  -3.505  0.00  0.00     0.009 A 
HETATM   11  C   UNK N   1      26.055  27.455  -3.428  0.00  0.00     0.001 A 
HETATM   12  C   UNK N   1      25.261  27.977  -4.452  0.00  0.00     0.000 A 
HETATM   13  C   UNK N   1      24.924  27.180  -5.551  0.00  0.00     0.001 A 
HETATM   14  C   UNK N   1      25.380  25.859  -5.627  0.00  0.00     0.009 A 
ENDBRANCH   8   9
ENDBRANCH   7   8
ENDBRANCH   1   7
BRANCH   6  15
HETATM   15  O   UNK N   1      32.069  21.543  -2.190  0.00  0.00    -0.361 OA
HETATM   16  H   UNK N   1      31.886  20.915  -1.519  0.00  0.00     0.217 HD
ENDBRANCH   6  15
TORSDOF 4
ENDMDL
MODEL 2
REMARK VINA RESULT:      -5.9     10.485     12.455
REMARK  4 active torsions:
REMARK  status: ('A' for Active; 'I' for Inactive)
REMARK    1  A    between atoms: O_1  and  C_4 
REMARK    2  A    between atoms: O_1  and  C_5 
REMARK    3  A    between atoms: O_2  and  C_15 
REMARK    4  A    between atoms: C_3  and  C_4 
ROOT
HETATM    1  C   UNK N   1      31.065  17.095   6.599  0.00  0.00     0.069 A 
HETATM    2  C   UNK N   1      32.100  17.109   5.661  0.00  0.00     0.039 A 
HETATM    3  C   UNK N   1      31.314  17.532   7.912  0.00  0.00     0.039 A 
HETATM    4  C   UNK N   1      33.373  17.555   6.016  0.00  0.00     0.039 A 
HETATM    5  C   UNK N   1      32.592  17.980   8.269  0.00  0.00     0.039 A 
HETATM    6  C   UNK N   1      33.619  17.993   7.319  0.00  0.00     0.065 A 
ENDROOT
BRANCH   1   7
HETATM    7  O   UNK N   1      29.845  16.674   6.202  0.00  0.00    -0.347 OA
BRANCH   7   8
HETATM    8  C   UNK N   1      28.652  17.032   6.791  0.00  0.00     0.214 C 
BRANCH   8   9
HETATM    9  C   UNK N   1      28.208  18.365   6.268  0.00  0.00    -0.034 A 
HETATM   10  C   UNK N   1      28.117  18.603   4.886  0.00  0.00     0.009 A 
HETATM   11  C   UNK N   1      27.709  19.848   4.408  0.00  0.00     0.001 A 
HETATM   12  C   UNK N   1      27.387  20.868   5.306  0.00  0.00     0.000 A 
HETATM   13  C   UNK N   1      27.477  20.640   6.683  0.00  0.00     0.001 A 
HETATM   14  C   UNK N   1      27.889  19.392   7.164  0.00  0.00     0.009 A 
ENDBRANCH   8   9
ENDBRANCH   7   8
ENDBRANCH   1   7
BRANCH   6  15
HETATM   15  O   UNK N   1      34.844  18.427   7.658  0.00  0.00    -0.361 OA
HETATM   16  H   UNK N   1      35.527  18.458   7.017  0.00  0.00     0.217 HD
ENDBRANCH   6  15
TORSDOF 4
ENDMDL
MODEL 3
REMARK VINA RESULT:      -5.8     16.744     18.548
REMARK  4 active torsions:
REMARK  status: ('A' for Active; 'I' for Inactive)
REMARK    1  A    between atoms: O_1  and  C_4 
REMARK    2  A    between atoms: O_1  and  C_5 
REMARK    3  A    between atoms: O_2  and  C_15 
REMARK    4  A    between atoms: C_3  and  C_4 
ROOT
HETATM    1  C   UNK N   1      20.737  14.593   7.979  0.00  0.00     0.069 A 
HETATM    2  C   UNK N   1      21.343  15.134   6.842  0.00  0.00     0.039 A 
HETATM    3  C   UNK N   1      20.127  15.449   8.913  0.00  0.00     0.039 A 
HETATM    4  C   UNK N   1      21.345  16.512   6.628  0.00  0.00     0.039 A 
HETATM    5  C   UNK N   1      20.128  16.832   8.697  0.00  0.00     0.039 A 
HETATM    6  C   UNK N   1      20.735  17.362   7.553  0.00  0.00     0.065 A 
ENDROOT
BRANCH   1   7
HETATM    7  O   UNK N   1      20.744  13.251   8.133  0.00  0.00    -0.347 OA
BRANCH   7   8
HETATM    8  C   UNK N   1      21.854  12.445   8.009  0.00  0.00     0.214 C 
BRANCH   8   9
HETATM    9  C   UNK N   1      22.529  12.301   9.340  0.00  0.00    -0.034 A 
HETATM   10  C   UNK N   1      23.931  12.260   9.436  0.00  0.00     0.009 A 
HETATM   11  C   UNK N   1      24.551  12.120  10.677  0.00  0.00     0.001 A 
HETATM   12  C   UNK N   1      23.777  12.021  11.835  0.00  0.00     0.000 A 
HETATM   13  C   UNK N   1      22.381  12.059  11.749  0.00  0.00     0.001 A 
HETATM   14  C   UNK N   1      21.758  12.197  10.503  0.00  0.00     0.009 A 
ENDBRANCH   8   9
ENDBRANCH   7   8
ENDBRANCH   1   7
BRANCH   6  15
HETATM   15  O   UNK N   1      20.733  18.688   7.343  0.00  0.00    -0.361 OA
HETATM   16  H   UNK N   1      20.651  19.027   6.473  0.00  0.00     0.217 HD
ENDBRANCH   6  15
TORSDOF 4
ENDMDL
MODEL 4
REMARK VINA RESULT:      -5.7      0.660      1.819
REMARK  4 active torsions:
REMARK  status: ('A' for Active; 'I' for Inactive)
REMARK    1  A    between atoms: O_1  and  C_4 
REMARK    2  A    between atoms: O_1  and  C_5 
REMARK    3  A    between atoms: O_2  and  C_15 
REMARK    4  A    between atoms: C_3  and  C_4 
ROOT
HETATM    1  C   UNK N   1      29.145  23.185  -3.957  0.00  0.00     0.069 A 
HETATM    2  C   UNK N   1      29.689  23.464  -2.700  0.00  0.00     0.039 A 
HETATM    3  C   UNK N   1      29.722  22.180  -4.753  0.00  0.00     0.039 A 
HETATM    4  C   UNK N   1      30.795  22.754  -2.233  0.00  0.00     0.039 A 
HETATM    5  C   UNK N   1      30.831  21.466  -4.284  0.00  0.00     0.039 A 
HETATM    6  C   UNK N   1      31.364  21.753  -3.022  0.00  0.00     0.065 A 
ENDROOT
BRANCH   1   7
HETATM    7  O   UNK N   1      28.063  23.886  -4.358  0.00  0.00    -0.347 OA
BRANCH   7   8
HETATM    8  C   UNK N   1      26.992  24.217  -3.558  0.00  0.00     0.214 C 
BRANCH   8   9
HETATM    9  C   UNK N   1      26.319  25.447  -4.092  0.00  0.00    -0.034 A 
HETATM   10  C   UNK N   1      25.683  25.432  -5.345  0.00  0.00     0.009 A 
HETATM   11  C   UNK N   1      25.065  26.582  -5.838  0.00  0.00     0.001 A 
HETATM   12  C   UNK N   1      25.077  27.757  -5.084  0.00  0.00     0.000 A 
HETATM   13  C   UNK N   1      25.710  27.780  -3.836  0.00  0.00     0.001 A 
HETATM   14  C   UNK N   1      26.332  26.628  -3.342  0.00  0.00     0.009 A 
ENDBRANCH   8   9
ENDBRANCH   7   8
ENDBRANCH   1   7
BRANCH   6  15
HETATM   15  O   UNK N   1      32.425  21.066  -2.568  0.00  0.00    -0.361 OA
HETATM   16  H   UNK N   1      33.224  21.055  -3.058  0.00  0.00     0.217 HD
ENDBRANCH   6  15
TORSDOF 4
ENDMDL
MODEL 5
REMARK VINA RESULT:      -5.7     10.123     11.829
REMARK  4 active torsions:
REMARK  status: ('A' for Active; 'I' for Inactive)
REMARK    1  A    between atoms: O_1  and  C_4 
REMARK    2  A    between atoms: O_1  and  C_5 
REMARK    3  A    between atoms: O_2  and  C_15 
REMARK    4  A    between atoms: C_3  and  C_4 
ROOT
HETATM    1  C   UNK N   1      30.749  17.013   5.493  0.00  0.00     0.069 A 
HETATM    2  C   UNK N   1      31.067  17.029   6.854  0.00  0.00     0.039 A 
HETATM    3  C   UNK N   1      31.748  17.294   4.545  0.00  0.00     0.039 A 
HETATM    4  C   UNK N   1      32.365  17.318   7.275  0.00  0.00     0.039 A 
HETATM    5  C   UNK N   1      33.051  17.584   4.967  0.00  0.00     0.039 A 
HETATM    6  C   UNK N   1      33.359  17.593   6.333  0.00  0.00     0.065 A 
ENDROOT
BRANCH   1   7
HETATM    7  O   UNK N   1      29.484  16.708   5.134  0.00  0.00    -0.347 OA
BRANCH   7   8
HETATM    8  C   UNK N   1      28.361  16.962   5.891  0.00  0.00     0.214 C 
BRANCH   8   9
HETATM    9  C   UNK N   1      27.924  18.382   5.691  0.00  0.00    -0.034 A 
HETATM   10  C   UNK N   1      27.852  19.273   6.776  0.00  0.00     0.009 A 
HETATM   11  C   UNK N   1      27.438  20.591   6.583  0.00  0.00     0.001 A 
HETATM   12  C   UNK N   1      27.093  21.032   5.304  0.00  0.00     0.000 A 
HETATM   13  C   UNK N   1      27.160  20.152   4.219  0.00  0.00     0.001 A 
HETATM   14  C   UNK N   1      27.572  18.828   4.412  0.00  0.00     0.009 A 
ENDBRANCH   8   9
ENDBRANCH   7   8
ENDBRANCH   1   7
BRANCH   6  15
HETATM   15  O   UNK N   1      34.609  17.866   6.739  0.00  0.00    -0.361 OA
HETATM   16  H   UNK N   1      34.888  17.623   7.600  0.00  0.00     0.217 HD
ENDBRANCH   6  15
TORSDOF 4
ENDMDL
MODEL 6
REMARK VINA RESULT:      -5.6      1.534      2.212
REMARK  4 active torsions:
REMARK  status: ('A' for Active; 'I' for Inactive)
REMARK    1  A    between atoms: O_1  and  C_4 
REMARK    2  A    between atoms: O_1  and  C_5 
REMARK    3  A    between atoms: O_2  and  C_15 
REMARK    4  A    between atoms: C_3  and  C_4 
ROOT
HETATM    1  C   UNK N   1      27.790  24.202  -4.424  0.00  0.00     0.069 A 
HETATM    2  C   UNK N   1      27.351  23.929  -3.125  0.00  0.00     0.039 A 
HETATM    3  C   UNK N   1      29.149  24.038  -4.744  0.00  0.00     0.039 A 
HETATM    4  C   UNK N   1      28.248  23.494  -2.150  0.00  0.00     0.039 A 
HETATM    5  C   UNK N   1      30.050  23.601  -3.765  0.00  0.00     0.039 A 
HETATM    6  C   UNK N   1      29.597  23.327  -2.470  0.00  0.00     0.065 A 
ENDROOT
BRANCH   1   7
HETATM    7  O   UNK N   1      26.880  24.602  -5.338  0.00  0.00    -0.347 OA
BRANCH   7   8
HETATM    8  C   UNK N   1      25.763  25.361  -5.066  0.00  0.00     0.214 C 
BRANCH   8   9
HETATM    9  C   UNK N   1      26.150  26.805  -4.935  0.00  0.00    -0.034 A 
HETATM   10  C   UNK N   1      25.782  27.549  -3.801  0.00  0.00     0.009 A 
HETATM   11  C   UNK N   1      26.139  28.893  -3.690  0.00  0.00     0.001 A 
HETATM   12  C   UNK N   1      26.869  29.506  -4.711  0.00  0.00     0.000 A 
HETATM   13  C   UNK N   1      27.239  28.773  -5.844  0.00  0.00     0.001 A 
HETATM   14  C   UNK N   1      26.878  27.425  -5.958  0.00  0.00     0.009 A 
ENDBRANCH   8   9
ENDBRANCH   7   8
ENDBRANCH   1   7
BRANCH   6  15
HETATM   15  O   UNK N   1      30.458  22.903  -1.531  0.00  0.00    -0.361 OA
HETATM   16  H   UNK N   1      30.146  22.654  -0.683  0.00  0.00     0.217 HD
ENDBRANCH   6  15
TORSDOF 4
ENDMDL
MODEL 7
REMARK VINA RESULT:      -5.6      9.621     11.647
REMARK  4 active torsions:
REMARK  status: ('A' for Active; 'I' for Inactive)
REMARK    1  A    between atoms: O_1  and  C_4 
REMARK    2  A    between atoms: O_1  and  C_5 
REMARK    3  A    between atoms: O_2  and  C_15 
REMARK    4  A    between atoms: C_3  and  C_4 
ROOT
HETATM    1  C   UNK N   1      22.330  20.077   3.137  0.00  0.00     0.069 A 
HETATM    2  C   UNK N   1      21.954  18.907   3.802  0.00  0.00     0.039 A 
HETATM    3  C   UNK N   1      21.431  20.684   2.242  0.00  0.00     0.039 A 
HETATM    4  C   UNK N   1      20.698  18.341   3.586  0.00  0.00     0.039 A 
HETATM    5  C   UNK N   1      20.169  20.117   2.026  0.00  0.00     0.039 A 
HETATM    6  C   UNK N   1      19.803  18.946   2.701  0.00  0.00     0.065 A 
ENDROOT
BRANCH   1   7
HETATM    7  O   UNK N   1      23.549  20.598   3.394  0.00  0.00    -0.347 OA
BRANCH   7   8
HETATM    8  C   UNK N   1      24.649  20.481   2.573  0.00  0.00     0.214 C 
BRANCH   8   9
HETATM    9  C   UNK N   1      25.743  19.747   3.292  0.00  0.00    -0.034 A 
HETATM   10  C   UNK N   1      25.700  18.349   3.432  0.00  0.00     0.009 A 
HETATM   11  C   UNK N   1      26.718  17.675   4.107  0.00  0.00     0.001 A 
HETATM   12  C   UNK N   1      27.788  18.391   4.648  0.00  0.00     0.000 A 
HETATM   13  C   UNK N   1      27.837  19.782   4.514  0.00  0.00     0.001 A 
HETATM   14  C   UNK N   1      26.815  20.461   3.840  0.00  0.00     0.009 A 
ENDBRANCH   8   9
ENDBRANCH   7   8
ENDBRANCH   1   7
BRANCH   6  15
HETATM   15  O   UNK N   1      18.592  18.403   2.499  0.00  0.00    -0.361 OA
HETATM   16  H   UNK N   1      18.226  18.377   1.637  0.00  0.00     0.217 HD
ENDBRANCH   6  15
TORSDOF 4
ENDMDL
MODEL 8
REMARK VINA RESULT:      -5.6     16.793     17.864
REMARK  4 active torsions:
REMARK  status: ('A' for Active; 'I' for Inactive)
REMARK    1  A    between atoms: O_1  and  C_4 
REMARK    2  A    between atoms: O_1  and  C_5 
REMARK    3  A    between atoms: O_2  and  C_15 
REMARK    4  A    between atoms: C_3  and  C_4 
ROOT
HETATM    1  C   UNK N   1      21.907  12.511   9.291  0.00  0.00     0.069 A 
HETATM    2  C   UNK N   1      23.218  12.580   8.812  0.00  0.00     0.039 A 
HETATM    3  C   UNK N   1      21.681  12.275  10.659  0.00  0.00     0.039 A 
HETATM    4  C   UNK N   1      24.299  12.420   9.679  0.00  0.00     0.039 A 
HETATM    5  C   UNK N   1      22.766  12.115  11.529  0.00  0.00     0.039 A 
HETATM    6  C   UNK N   1      24.074  12.191  11.038  0.00  0.00     0.065 A 
ENDROOT
BRANCH   1   7
HETATM    7  O   UNK N   1      20.894  12.692   8.416  0.00  0.00    -0.347 OA
BRANCH   7   8
HETATM    8  C   UNK N   1      20.988  13.378   7.226  0.00  0.00     0.214 C 
BRANCH   8   9
HETATM    9  C   UNK N   1      20.746  14.839   7.461  0.00  0.00    -0.034 A 
HETATM   10  C   UNK N   1      21.260  15.806   6.579  0.00  0.00     0.009 A 
HETATM   11  C   UNK N   1      21.037  17.163   6.809  0.00  0.00     0.001 A 
HETATM   12  C   UNK N   1      20.296  17.569   7.921  0.00  0.00     0.000 A 
HETATM   13  C   UNK N   1      19.782  16.614   8.804  0.00  0.00     0.001 A 
HETATM   14  C   UNK N   1      20.008  15.251   8.577  0.00  0.00     0.009 A 
ENDBRANCH   8   9
ENDBRANCH   7   8
ENDBRANCH   1   7
BRANCH   6  15
HETATM   15  O   UNK N   1      25.116  12.042  11.872  0.00  0.00    -0.361 OA
HETATM   16  H   UNK N   1      25.959  12.378  11.637  0.00  0.00     0.217 HD
ENDBRANCH   6  15
TORSDOF 4
ENDMDL
MODEL 9
REMARK VINA RESULT:      -5.4      9.871     13.184
REMARK  4 active torsions:
REMARK  status: ('A' for Active; 'I' for Inactive)
REMARK    1  A    between atoms: O_1  and  C_4 
REMARK    2  A    between atoms: O_1  and  C_5 
REMARK    3  A    between atoms: O_2  and  C_15 
REMARK    4  A    between atoms: C_3  and  C_4 
ROOT
HETATM    1  C   UNK N   1      28.247  18.761   6.176  0.00  0.00     0.069 A 
HETATM    2  C   UNK N   1      28.125  18.146   4.927  0.00  0.00     0.039 A 
HETATM    3  C   UNK N   1      27.722  20.052   6.365  0.00  0.00     0.039 A 
HETATM    4  C   UNK N   1      27.486  18.799   3.874  0.00  0.00     0.039 A 
HETATM    5  C   UNK N   1      27.081  20.708   5.308  0.00  0.00     0.039 A 
HETATM    6  C   UNK N   1      26.961  20.079   4.064  0.00  0.00     0.065 A 
ENDROOT
BRANCH   1   7
HETATM    7  O   UNK N   1      28.856  18.081   7.170  0.00  0.00    -0.347 OA
BRANCH   7   8
HETATM    8  C   UNK N   1      29.586  16.924   7.008  0.00  0.00     0.214 C 
BRANCH   8   9
HETATM    9  C   UNK N   1      31.052  17.239   7.043  0.00  0.00    -0.034 A 
HETATM   10  C   UNK N   1      31.665  17.679   8.229  0.00  0.00     0.009 A 
HETATM   11  C   UNK N   1      33.028  17.977   8.252  0.00  0.00     0.001 A 
HETATM   12  C   UNK N   1      33.791  17.837   7.091  0.00  0.00     0.000 A 
HETATM   13  C   UNK N   1      33.188  17.401   5.907  0.00  0.00     0.001 A 
HETATM   14  C   UNK N   1      31.820  17.105   5.881  0.00  0.00     0.009 A 
ENDBRANCH   8   9
ENDBRANCH   7   8
ENDBRANCH   1   7
BRANCH   6  15
HETATM   15  O   UNK N   1      26.343  20.705   3.050  0.00  0.00    -0.361 OA
HETATM   16  H   UNK N   1      25.406  20.738   3.017  0.00  0.00     0.217 HD
ENDBRANCH   6  15
TORSDOF 4
ENDMDL
