MODEL 1
REMARK VINA RESULT:      -7.1      0.000      0.000
REMARK  4 active torsions:
REMARK  status: ('A' for Active; 'I' for Inactive)
REMARK    1  A    between atoms: N_6  and  C_13 
REMARK    2  A    between atoms: N_7  and  C_15 
REMARK    3  A    between atoms: N_8  and  C_14 
REMARK       I    between atoms: N_8  and  C_23 
REMARK    4  A    between atoms: C_9  and  C_14 
ROOT
HETATM    1  F   UNK N   1      28.759  18.761   9.007  0.00  0.00    -0.204 F 
HETATM    2  C   UNK N   1      31.949  17.237   8.073  0.00  0.00     0.042 A 
HETATM    3  C   UNK N   1      29.419  17.738   6.913  0.00  0.00     0.069 A 
HETATM    4  C   UNK N   1      30.941  17.871   8.812  0.00  0.00     0.074 A 
HETATM    5  C   UNK N   1      31.676  16.838   6.760  0.00  0.00     0.032 A 
HETATM    6  C   UNK N   1      29.685  18.122   8.251  0.00  0.00     0.145 A 
HETATM    7  C   UNK N   1      30.430  17.088   6.189  0.00  0.00     0.035 A 
ENDROOT
BRANCH   2   8
HETATM    8  N   UNK N   1      33.238  17.032   8.653  0.00  0.00    -0.291 N 
HETATM    9  C   UNK N   1      33.556  15.936   9.526  0.00  0.00     0.168 A 
HETATM   10  C   UNK N   1      35.064  16.166   9.800  0.00  0.00     0.170 A 
HETATM   11  O   UNK N   1      35.378  17.357   9.165  0.00  0.00    -0.295 OA
HETATM   12  C   UNK N   1      34.316  17.810   8.503  0.00  0.00     0.368 A 
HETATM   13  O   UNK N   1      34.342  18.828   7.830  0.00  0.00    -0.238 OA
BRANCH  10  14
HETATM   14  C   UNK N   1      35.373  16.237  11.286  0.00  0.00     0.156 C 
BRANCH  14  15
HETATM   15  N   UNK N   1      36.284  15.170  11.637  0.00  0.00    -0.359 N 
HETATM   16  C   UNK N   1      35.865  14.038  12.257  0.00  0.00     0.213 C 
HETATM   17  O   UNK N   1      34.690  13.890  12.560  0.00  0.00    -0.274 OA
HETATM   18  C   UNK N   1      36.840  12.955  12.555  0.00  0.00     0.117 C 
HETATM   19  H   UNK N   1      37.239  15.268  11.418  0.00  0.00     0.162 HD
ENDBRANCH  14  15
ENDBRANCH  10  14
ENDBRANCH   2   8
BRANCH   3  20
HETATM   20  N   UNK N   1      28.165  18.007   6.272  0.00  0.00    -0.374 N 
HETATM   21  C   UNK N   1      27.313  16.916   5.850  0.00  0.00     0.149 C 
HETATM   22  C   UNK N   1      27.062  17.085   4.350  0.00  0.00     0.187 C 
HETATM   23  O   UNK N   1      26.471  18.343   4.119  0.00  0.00    -0.388 OA
HETATM   24  C   UNK N   1      27.453  19.319   4.382  0.00  0.00     0.187 C 
HETATM   25  C   UNK N   1      27.767  19.343   5.880  0.00  0.00     0.149 C 
ENDBRANCH   3  20
TORSDOF 4
ENDMDL
MODEL 2
REMARK VINA RESULT:      -7.0      1.815      2.330
REMARK  4 active torsions:
REMARK  status: ('A' for Active; 'I' for Inactive)
REMARK    1  A    between atoms: N_6  and  C_13 
REMARK    2  A    between atoms: N_7  and  C_15 
REMARK    3  A    between atoms: N_8  and  C_14 
REMARK       I    between atoms: N_8  and  C_23 
REMARK    4  A    between atoms: C_9  and  C_14 
ROOT
HETATM    1  F   UNK N   1      32.565  17.482   3.872  0.00  0.00    -0.204 F 
HETATM    2  C   UNK N   1      32.883  17.131   7.498  0.00  0.00     0.042 A 
HETATM    3  C   UNK N   1      30.835  17.235   5.551  0.00  0.00     0.069 A 
HETATM    4  C   UNK N   1      33.199  17.293   6.142  0.00  0.00     0.074 A 
HETATM    5  C   UNK N   1      31.538  17.043   7.873  0.00  0.00     0.032 A 
HETATM    6  C   UNK N   1      32.195  17.349   5.170  0.00  0.00     0.145 A 
HETATM    7  C   UNK N   1      30.530  17.091   6.913  0.00  0.00     0.035 A 
ENDROOT
BRANCH   2   8
HETATM    8  N   UNK N   1      33.927  17.032   8.468  0.00  0.00    -0.291 N 
HETATM    9  C   UNK N   1      34.186  15.852   9.244  0.00  0.00     0.168 A 
HETATM   10  C   UNK N   1      35.432  16.271  10.066  0.00  0.00     0.170 A 
HETATM   11  O   UNK N   1      35.655  17.600   9.748  0.00  0.00    -0.295 OA
HETATM   12  C   UNK N   1      34.790  17.993   8.816  0.00  0.00     0.368 A 
HETATM   13  O   UNK N   1      34.799  19.116   8.338  0.00  0.00    -0.238 OA
BRANCH  10  14
HETATM   14  C   UNK N   1      35.221  16.090  11.560  0.00  0.00     0.156 C 
BRANCH  14  15
HETATM   15  N   UNK N   1      36.185  15.140  12.068  0.00  0.00    -0.359 N 
HETATM   16  C   UNK N   1      35.809  13.975  12.655  0.00  0.00     0.213 C 
HETATM   17  O   UNK N   1      34.627  13.697  12.792  0.00  0.00    -0.274 OA
HETATM   18  C   UNK N   1      36.845  13.015  13.121  0.00  0.00     0.117 C 
HETATM   19  H   UNK N   1      37.144  15.344  11.986  0.00  0.00     0.162 HD
ENDBRANCH  14  15
ENDBRANCH  10  14
ENDBRANCH   2   8
BRANCH   3  20
HETATM   20  N   UNK N   1      29.768  17.243   4.593  0.00  0.00    -0.374 N 
HETATM   21  C   UNK N   1      28.717  18.235   4.681  0.00  0.00     0.149 C 
HETATM   22  C   UNK N   1      27.386  17.487   4.778  0.00  0.00     0.187 C 
HETATM   23  O   UNK N   1      27.241  16.654   3.650  0.00  0.00    -0.388 OA
HETATM   24  C   UNK N   1      28.190  15.619   3.772  0.00  0.00     0.187 C 
HETATM   25  C   UNK N   1      29.601  16.193   3.611  0.00  0.00     0.149 C 
ENDBRANCH   3  20
TORSDOF 4
ENDMDL
MODEL 3
REMARK VINA RESULT:      -6.7      8.847     11.916
REMARK  4 active torsions:
REMARK  status: ('A' for Active; 'I' for Inactive)
REMARK    1  A    between atoms: N_6  and  C_13 
REMARK    2  A    between atoms: N_7  and  C_15 
REMARK    3  A    between atoms: N_8  and  C_14 
REMARK       I    between atoms: N_8  and  C_23 
REMARK    4  A    between atoms: C_9  and  C_14 
ROOT
HETATM    1  F   UNK N   1      24.845  14.169   7.130  0.00  0.00    -0.204 F 
HETATM    2  C   UNK N   1      21.916  16.221   6.371  0.00  0.00     0.042 A 
HETATM    3  C   UNK N   1      22.577  13.976   7.959  0.00  0.00     0.069 A 
HETATM    4  C   UNK N   1      23.221  15.712   6.373  0.00  0.00     0.074 A 
HETATM    5  C   UNK N   1      20.942  15.588   7.152  0.00  0.00     0.032 A 
HETATM    6  C   UNK N   1      23.560  14.600   7.151  0.00  0.00     0.145 A 
HETATM    7  C   UNK N   1      21.270  14.485   7.935  0.00  0.00     0.035 A 
ENDROOT
BRANCH   2   8
HETATM    8  N   UNK N   1      21.604  17.384   5.602  0.00  0.00    -0.291 N 
HETATM    9  C   UNK N   1      21.721  17.451   4.173  0.00  0.00     0.168 A 
HETATM   10  C   UNK N   1      21.210  18.884   3.872  0.00  0.00     0.170 A 
HETATM   11  O   UNK N   1      20.972  19.459   5.109  0.00  0.00    -0.295 OA
HETATM   12  C   UNK N   1      21.187  18.566   6.072  0.00  0.00     0.368 A 
HETATM   13  O   UNK N   1      21.013  18.814   7.255  0.00  0.00    -0.238 OA
BRANCH  10  14
HETATM   14  C   UNK N   1      22.215  19.695   3.071  0.00  0.00     0.156 C 
BRANCH  14  15
HETATM   15  N   UNK N   1      23.529  19.537   3.652  0.00  0.00    -0.359 N 
HETATM   16  C   UNK N   1      24.610  20.213   3.186  0.00  0.00     0.213 C 
HETATM   17  O   UNK N   1      24.508  20.976   2.236  0.00  0.00    -0.274 OA
HETATM   18  C   UNK N   1      25.930  20.043   3.850  0.00  0.00     0.117 C 
HETATM   19  H   UNK N   1      23.644  18.918   4.408  0.00  0.00     0.162 HD
ENDBRANCH  14  15
ENDBRANCH  10  14
ENDBRANCH   2   8
BRANCH   3  20
HETATM   20  N   UNK N   1      22.878  12.861   8.809  0.00  0.00    -0.374 N 
HETATM   21  C   UNK N   1      21.869  12.333   9.702  0.00  0.00     0.149 C 
HETATM   22  C   UNK N   1      22.441  12.383  11.121  0.00  0.00     0.187 C 
HETATM   23  O   UNK N   1      23.636  11.637  11.164  0.00  0.00    -0.388 OA
HETATM   24  C   UNK N   1      24.597  12.345  10.415  0.00  0.00     0.187 C 
HETATM   25  C   UNK N   1      24.215  12.320   8.932  0.00  0.00     0.149 C 
ENDBRANCH   3  20
TORSDOF 4
ENDMDL
MODEL 4
REMARK VINA RESULT:      -6.6      2.554      8.749
REMARK  4 active torsions:
REMARK  status: ('A' for Active; 'I' for Inactive)
REMARK    1  A    between atoms: N_6  and  C_13 
REMARK    2  A    between atoms: N_7  and  C_15 
REMARK    3  A    between atoms: N_8  and  C_14 
REMARK       I    between atoms: N_8  and  C_23 
REMARK    4  A    between atoms: C_9  and  C_14 
ROOT
HETATM    1  F   UNK N   1      34.906  18.123   8.559  0.00  0.00    -0.204 F 
HETATM    2  C   UNK N   1      31.514  16.758   8.570  0.00  0.00     0.042 A 
HETATM    3  C   UNK N   1      34.122  15.960   9.316  0.00  0.00     0.069 A 
HETATM    4  C   UNK N   1      32.602  17.621   8.381  0.00  0.00     0.074 A 
HETATM    5  C   UNK N   1      31.743  15.490   9.114  0.00  0.00     0.032 A 
HETATM    6  C   UNK N   1      33.897  17.237   8.743  0.00  0.00     0.145 A 
HETATM    7  C   UNK N   1      33.027  15.099   9.483  0.00  0.00     0.035 A 
ENDROOT
BRANCH   2   8
HETATM    8  N   UNK N   1      30.194  17.190   8.234  0.00  0.00    -0.291 N 
HETATM    9  C   UNK N   1      29.573  16.942   6.963  0.00  0.00     0.168 A 
HETATM   10  C   UNK N   1      28.165  17.559   7.165  0.00  0.00     0.170 A 
HETATM   11  O   UNK N   1      28.192  18.140   8.422  0.00  0.00    -0.295 OA
HETATM   12  C   UNK N   1      29.359  17.889   9.010  0.00  0.00     0.368 A 
HETATM   13  O   UNK N   1      29.621  18.262  10.143  0.00  0.00    -0.238 OA
BRANCH  10  14
HETATM   14  C   UNK N   1      27.828  18.583   6.093  0.00  0.00     0.156 C 
BRANCH  14  15
HETATM   15  N   UNK N   1      27.280  19.766   6.717  0.00  0.00    -0.359 N 
HETATM   16  C   UNK N   1      26.864  20.837   5.993  0.00  0.00     0.213 C 
HETATM   17  O   UNK N   1      26.958  20.841   4.774  0.00  0.00    -0.274 OA
HETATM   18  C   UNK N   1      26.268  22.010   6.685  0.00  0.00     0.117 C 
HETATM   19  H   UNK N   1      27.205  19.797   7.697  0.00  0.00     0.162 HD
ENDBRANCH  14  15
ENDBRANCH  10  14
ENDBRANCH   2   8
BRANCH   3  20
HETATM   20  N   UNK N   1      35.421  15.530   9.745  0.00  0.00    -0.374 N 
HETATM   21  C   UNK N   1      36.152  14.543   8.978  0.00  0.00     0.149 C 
HETATM   22  C   UNK N   1      36.474  13.379   9.917  0.00  0.00     0.187 C 
HETATM   23  O   UNK N   1      37.217  13.861  11.013  0.00  0.00    -0.388 OA
HETATM   24  C   UNK N   1      36.348  14.656  11.788  0.00  0.00     0.187 C 
HETATM   25  C   UNK N   1      35.988  15.928  11.016  0.00  0.00     0.149 C 
ENDBRANCH   3  20
TORSDOF 4
ENDMDL
MODEL 5
REMARK VINA RESULT:      -6.6      3.080      9.833
REMARK  4 active torsions:
REMARK  status: ('A' for Active; 'I' for Inactive)
REMARK    1  A    between atoms: N_6  and  C_13 
REMARK    2  A    between atoms: N_7  and  C_15 
REMARK    3  A    between atoms: N_8  and  C_14 
REMARK       I    between atoms: N_8  and  C_23 
REMARK    4  A    between atoms: C_9  and  C_14 
ROOT
HETATM    1  F   UNK N   1      31.508  16.931   4.512  0.00  0.00    -0.204 F 
HETATM    2  C   UNK N   1      28.507  18.296   6.092  0.00  0.00     0.042 A 
HETATM    3  C   UNK N   1      30.945  17.089   6.862  0.00  0.00     0.069 A 
HETATM    4  C   UNK N   1      29.433  17.886   5.124  0.00  0.00     0.074 A 
HETATM    5  C   UNK N   1      28.799  18.080   7.443  0.00  0.00     0.032 A 
HETATM    6  C   UNK N   1      30.641  17.285   5.492  0.00  0.00     0.145 A 
HETATM    7  C   UNK N   1      30.001  17.488   7.821  0.00  0.00     0.035 A 
ENDROOT
BRANCH   2   8
HETATM    8  N   UNK N   1      27.299  18.948   5.694  0.00  0.00    -0.291 N 
HETATM    9  C   UNK N   1      26.185  18.268   5.097  0.00  0.00     0.168 A 
HETATM   10  C   UNK N   1      25.156  19.416   4.930  0.00  0.00     0.170 A 
HETATM   11  O   UNK N   1      25.814  20.565   5.338  0.00  0.00    -0.295 OA
HETATM   12  C   UNK N   1      27.027  20.255   5.788  0.00  0.00     0.368 A 
HETATM   13  O   UNK N   1      27.797  21.088   6.240  0.00  0.00    -0.238 OA
BRANCH  10  14
HETATM   14  C   UNK N   1      24.664  19.543   3.497  0.00  0.00     0.156 C 
BRANCH  14  15
HETATM   15  N   UNK N   1      23.250  19.248   3.449  0.00  0.00    -0.359 N 
HETATM   16  C   UNK N   1      22.334  20.168   3.054  0.00  0.00     0.213 C 
HETATM   17  O   UNK N   1      22.678  21.298   2.738  0.00  0.00    -0.274 OA
HETATM   18  C   UNK N   1      20.896  19.795   2.982  0.00  0.00     0.117 C 
HETATM   19  H   UNK N   1      22.941  18.351   3.711  0.00  0.00     0.162 HD
ENDBRANCH  14  15
ENDBRANCH  10  14
ENDBRANCH   2   8
BRANCH   3  20
HETATM   20  N   UNK N   1      32.185  16.517   7.299  0.00  0.00    -0.374 N 
HETATM   21  C   UNK N   1      32.235  15.144   7.754  0.00  0.00     0.149 C 
HETATM   22  C   UNK N   1      32.804  15.152   9.174  0.00  0.00     0.187 C 
HETATM   23  O   UNK N   1      34.078  15.755   9.158  0.00  0.00    -0.388 OA
HETATM   24  C   UNK N   1      33.886  17.126   8.891  0.00  0.00     0.187 C 
HETATM   25  C   UNK N   1      33.389  17.306   7.454  0.00  0.00     0.149 C 
ENDBRANCH   3  20
TORSDOF 4
ENDMDL
MODEL 6
REMARK VINA RESULT:      -6.6     13.157     15.609
REMARK  4 active torsions:
REMARK  status: ('A' for Active; 'I' for Inactive)
REMARK    1  A    between atoms: N_6  and  C_13 
REMARK    2  A    between atoms: N_7  and  C_15 
REMARK    3  A    between atoms: N_8  and  C_14 
REMARK       I    between atoms: N_8  and  C_23 
REMARK    4  A    between atoms: C_9  and  C_14 
ROOT
HETATM    1  F   UNK N   1      30.223  28.270  -3.806  0.00  0.00    -0.204 F 
HETATM    2  C   UNK N   1      29.923  24.629  -3.654  0.00  0.00     0.042 A 
HETATM    3  C   UNK N   1      28.269  26.874  -4.125  0.00  0.00     0.069 A 
HETATM    4  C   UNK N   1      30.455  25.925  -3.610  0.00  0.00     0.074 A 
HETATM    5  C   UNK N   1      28.558  24.467  -3.915  0.00  0.00     0.032 A 
HETATM    6  C   UNK N   1      29.647  27.044  -3.838  0.00  0.00     0.145 A 
HETATM    7  C   UNK N   1      27.745  25.573  -4.150  0.00  0.00     0.035 A 
ENDROOT
BRANCH   2   8
HETATM    8  N   UNK N   1      30.777  23.500  -3.462  0.00  0.00    -0.291 N 
HETATM    9  C   UNK N   1      31.598  22.935  -4.495  0.00  0.00     0.168 A 
HETATM   10  C   UNK N   1      32.339  21.803  -3.738  0.00  0.00     0.170 A 
HETATM   11  O   UNK N   1      31.802  21.798  -2.462  0.00  0.00    -0.295 OA
HETATM   12  C   UNK N   1      30.930  22.795  -2.335  0.00  0.00     0.368 A 
HETATM   13  O   UNK N   1      30.343  23.031  -1.291  0.00  0.00    -0.238 OA
BRANCH  10  14
HETATM   14  C   UNK N   1      32.165  20.452  -4.413  0.00  0.00     0.156 C 
BRANCH  14  15
HETATM   15  N   UNK N   1      30.950  20.462  -5.197  0.00  0.00    -0.359 N 
HETATM   16  C   UNK N   1      30.930  20.090  -6.502  0.00  0.00     0.213 C 
HETATM   17  O   UNK N   1      31.957  19.747  -7.070  0.00  0.00    -0.274 OA
HETATM   18  C   UNK N   1      29.643  20.078  -7.247  0.00  0.00     0.117 C 
HETATM   19  H   UNK N   1      30.110  20.747  -4.770  0.00  0.00     0.162 HD
ENDBRANCH  14  15
ENDBRANCH  10  14
ENDBRANCH   2   8
BRANCH   3  20
HETATM   20  N   UNK N   1      27.404  27.981  -4.409  0.00  0.00    -0.374 N 
HETATM   21  C   UNK N   1      27.561  28.734  -5.636  0.00  0.00     0.149 C 
HETATM   22  C   UNK N   1      27.781  30.199  -5.250  0.00  0.00     0.187 C 
HETATM   23  O   UNK N   1      26.683  30.645  -4.487  0.00  0.00    -0.388 OA
HETATM   24  C   UNK N   1      26.743  29.983  -3.244  0.00  0.00     0.187 C 
HETATM   25  C   UNK N   1      26.456  28.491  -3.441  0.00  0.00     0.149 C 
ENDBRANCH   3  20
TORSDOF 4
ENDMDL
MODEL 7
REMARK VINA RESULT:      -6.6      5.861     11.625
REMARK  4 active torsions:
REMARK  status: ('A' for Active; 'I' for Inactive)
REMARK    1  A    between atoms: N_6  and  C_13 
REMARK    2  A    between atoms: N_7  and  C_15 
REMARK    3  A    between atoms: N_8  and  C_14 
REMARK       I    between atoms: N_8  and  C_23 
REMARK    4  A    between atoms: C_9  and  C_14 
ROOT
HETATM    1  F   UNK N   1      27.036  16.100   2.871  0.00  0.00    -0.204 F 
HETATM    2  C   UNK N   1      24.846  18.820   3.955  0.00  0.00     0.042 A 
HETATM    3  C   UNK N   1      27.288  17.627   4.735  0.00  0.00     0.069 A 
HETATM    4  C   UNK N   1      25.366  17.733   3.239  0.00  0.00     0.074 A 
HETATM    5  C   UNK N   1      25.544  19.290   5.073  0.00  0.00     0.032 A 
HETATM    6  C   UNK N   1      26.571  17.132   3.617  0.00  0.00     0.145 A 
HETATM    7  C   UNK N   1      26.748  18.704   5.454  0.00  0.00     0.035 A 
ENDROOT
BRANCH   2   8
HETATM    8  N   UNK N   1      23.636  19.446   3.523  0.00  0.00    -0.291 N 
HETATM    9  C   UNK N   1      22.328  18.902   3.761  0.00  0.00     0.168 A 
HETATM   10  C   UNK N   1      21.409  19.991   3.149  0.00  0.00     0.170 A 
HETATM   11  O   UNK N   1      22.264  20.920   2.581  0.00  0.00    -0.295 OA
HETATM   12  C   UNK N   1      23.527  20.587   2.834  0.00  0.00     0.368 A 
HETATM   13  O   UNK N   1      24.475  21.265   2.471  0.00  0.00    -0.238 OA
BRANCH  10  14
HETATM   14  C   UNK N   1      20.451  19.420   2.116  0.00  0.00     0.156 C 
BRANCH  14  15
HETATM   15  N   UNK N   1      20.413  17.980   2.244  0.00  0.00    -0.359 N 
HETATM   16  C   UNK N   1      20.385  17.160   1.162  0.00  0.00     0.213 C 
HETATM   17  O   UNK N   1      20.372  17.620   0.030  0.00  0.00    -0.274 OA
HETATM   18  C   UNK N   1      20.390  15.685   1.354  0.00  0.00     0.117 C 
HETATM   19  H   UNK N   1      20.408  17.582   3.144  0.00  0.00     0.162 HD
ENDBRANCH  14  15
ENDBRANCH  10  14
ENDBRANCH   2   8
BRANCH   3  20
HETATM   20  N   UNK N   1      28.548  17.077   5.142  0.00  0.00    -0.374 N 
HETATM   21  C   UNK N   1      29.781  17.592   4.585  0.00  0.00     0.149 C 
HETATM   22  C   UNK N   1      30.523  16.415   3.947  0.00  0.00     0.187 C 
HETATM   23  O   UNK N   1      30.751  15.428   4.926  0.00  0.00    -0.388 OA
HETATM   24  C   UNK N   1      29.499  14.867   5.252  0.00  0.00     0.187 C 
HETATM   25  C   UNK N   1      28.646  15.906   5.986  0.00  0.00     0.149 C 
ENDBRANCH   3  20
TORSDOF 4
ENDMDL
MODEL 8
REMARK VINA RESULT:      -6.6      6.684     13.116
REMARK  4 active torsions:
REMARK  status: ('A' for Active; 'I' for Inactive)
REMARK    1  A    between atoms: N_6  and  C_13 
REMARK    2  A    between atoms: N_7  and  C_15 
REMARK    3  A    between atoms: N_8  and  C_14 
REMARK       I    between atoms: N_8  and  C_23 
REMARK    4  A    between atoms: C_9  and  C_14 
ROOT
HETATM    1  F   UNK N   1      34.798  13.188  20.010  0.00  0.00    -0.204 F 
HETATM    2  C   UNK N   1      35.647  11.998  16.658  0.00  0.00     0.042 A 
HETATM    3  C   UNK N   1      35.626  11.021  19.312  0.00  0.00     0.069 A 
HETATM    4  C   UNK N   1      35.238  12.822  17.716  0.00  0.00     0.074 A 
HETATM    5  C   UNK N   1      36.063  10.693  16.940  0.00  0.00     0.032 A 
HETATM    6  C   UNK N   1      35.227  12.352  19.033  0.00  0.00     0.145 A 
HETATM    7  C   UNK N   1      36.050  10.212  18.247  0.00  0.00     0.035 A 
ENDROOT
BRANCH   2   8
HETATM    8  N   UNK N   1      35.608  12.487  15.316  0.00  0.00    -0.291 N 
HETATM    9  C   UNK N   1      36.639  13.297  14.732  0.00  0.00     0.168 A 
HETATM   10  C   UNK N   1      36.123  13.482  13.281  0.00  0.00     0.170 A 
HETATM   11  O   UNK N   1      34.881  12.871  13.250  0.00  0.00    -0.295 OA
HETATM   12  C   UNK N   1      34.630  12.295  14.423  0.00  0.00     0.368 A 
HETATM   13  O   UNK N   1      33.612  11.659  14.643  0.00  0.00    -0.238 OA
BRANCH  10  14
HETATM   14  C   UNK N   1      36.027  14.947  12.888  0.00  0.00     0.156 C 
BRANCH  14  15
HETATM   15  N   UNK N   1      35.148  15.080  11.748  0.00  0.00    -0.359 N 
HETATM   16  C   UNK N   1      35.437  15.902  10.707  0.00  0.00     0.213 C 
HETATM   17  O   UNK N   1      36.454  16.580  10.709  0.00  0.00    -0.274 OA
HETATM   18  C   UNK N   1      34.517  15.966   9.540  0.00  0.00     0.117 C 
HETATM   19  H   UNK N   1      34.315  14.558  11.725  0.00  0.00     0.162 HD
ENDBRANCH  14  15
ENDBRANCH  10  14
ENDBRANCH   2   8
BRANCH   3  20
HETATM   20  N   UNK N   1      35.594  10.472  20.636  0.00  0.00    -0.374 N 
HETATM   21  C   UNK N   1      36.828  10.203  21.344  0.00  0.00     0.149 C 
HETATM   22  C   UNK N   1      36.823   8.722  21.728  0.00  0.00     0.187 C 
HETATM   23  O   UNK N   1      35.686   8.453  22.516  0.00  0.00    -0.388 OA
HETATM   24  C   UNK N   1      34.560   8.561  21.674  0.00  0.00     0.187 C 
HETATM   25  C   UNK N   1      34.367  10.022  21.258  0.00  0.00     0.149 C 
ENDBRANCH   3  20
TORSDOF 4
ENDMDL
MODEL 9
REMARK VINA RESULT:      -6.5      7.055     10.936
REMARK  4 active torsions:
REMARK  status: ('A' for Active; 'I' for Inactive)
REMARK    1  A    between atoms: N_6  and  C_13 
REMARK    2  A    between atoms: N_7  and  C_15 
REMARK    3  A    between atoms: N_8  and  C_14 
REMARK       I    between atoms: N_8  and  C_23 
REMARK    4  A    between atoms: C_9  and  C_14 
ROOT
HETATM    1  F   UNK N   1      34.015  11.380  13.109  0.00  0.00    -0.204 F 
HETATM    2  C   UNK N   1      35.505  12.481  16.261  0.00  0.00     0.042 A 
HETATM    3  C   UNK N   1      35.581  13.181  13.523  0.00  0.00     0.069 A 
HETATM    4  C   UNK N   1      34.752  11.762  15.323  0.00  0.00     0.074 A 
HETATM    5  C   UNK N   1      36.310  13.536  15.817  0.00  0.00     0.032 A 
HETATM    6  C   UNK N   1      34.783  12.097  13.965  0.00  0.00     0.145 A 
HETATM    7  C   UNK N   1      36.344  13.882  14.469  0.00  0.00     0.035 A 
ENDROOT
BRANCH   2   8
HETATM    8  N   UNK N   1      35.422  12.149  17.648  0.00  0.00    -0.291 N 
HETATM    9  C   UNK N   1      35.538  10.811  18.157  0.00  0.00     0.168 A 
HETATM   10  C   UNK N   1      35.437  11.037  19.688  0.00  0.00     0.170 A 
HETATM   11  O   UNK N   1      35.188  12.390  19.847  0.00  0.00    -0.295 OA
HETATM   12  C   UNK N   1      35.209  12.996  18.662  0.00  0.00     0.368 A 
HETATM   13  O   UNK N   1      35.052  14.199  18.533  0.00  0.00    -0.238 OA
BRANCH  10  14
HETATM   14  C   UNK N   1      34.339  10.197  20.320  0.00  0.00     0.156 C 
BRANCH  14  15
HETATM   15  N   UNK N   1      34.185  10.577  21.707  0.00  0.00    -0.359 N 
HETATM   16  C   UNK N   1      33.038  10.346  22.395  0.00  0.00     0.213 C 
HETATM   17  O   UNK N   1      32.078   9.820  21.851  0.00  0.00    -0.274 OA
HETATM   18  C   UNK N   1      32.951  10.719  23.832  0.00  0.00     0.117 C 
HETATM   19  H   UNK N   1      34.936  11.016  22.167  0.00  0.00     0.162 HD
ENDBRANCH  14  15
ENDBRANCH  10  14
ENDBRANCH   2   8
BRANCH   3  20
HETATM   20  N   UNK N   1      35.618  13.595  12.150  0.00  0.00    -0.374 N 
HETATM   21  C   UNK N   1      36.414  12.861  11.189  0.00  0.00     0.149 C 
HETATM   22  C   UNK N   1      37.391  13.851  10.552  0.00  0.00     0.187 C 
HETATM   23  O   UNK N   1      36.663  14.899   9.952  0.00  0.00    -0.388 OA
HETATM   24  C   UNK N   1      36.088  15.655  10.994  0.00  0.00     0.187 C 
HETATM   25  C   UNK N   1      35.008  14.827  11.696  0.00  0.00     0.149 C 
ENDBRANCH   3  20
TORSDOF 4
ENDMDL
