MODEL 1
REMARK VINA RESULT:      -7.6      0.000      0.000
REMARK  3 active torsions:
REMARK  status: ('A' for Active; 'I' for Inactive)
REMARK    1  A    between atoms: S_3  and  N_10 
REMARK    2  A    between atoms: S_3  and  C_23 
REMARK    3  A    between atoms: C_11  and  C_16 
ROOT
HETATM    1 Cl   UNK N   1      34.719  11.274  11.140  0.00  0.00    -0.083 Cl
HETATM    2  S   UNK N   1      33.919  17.253   8.958  0.00  0.00     0.262 S 
HETATM    3  O   UNK N   1      35.222  17.552   9.716  0.00  0.00    -0.200 OA
HETATM    4  O   UNK N   1      34.231  18.630   8.356  0.00  0.00    -0.200 OA
HETATM    5  N   UNK N   1      34.757  16.674   7.498  0.00  0.00    -0.293 N 
HETATM    6  N   UNK N   1      33.474  14.615   7.465  0.00  0.00    -0.366 N 
HETATM    7  C   UNK N   1      33.938  15.751   6.699  0.00  0.00     0.197 C 
HETATM    8  C   UNK N   1      33.872  14.441   8.808  0.00  0.00     0.054 A 
HETATM    9  C   UNK N   1      34.234  15.553   9.591  0.00  0.00     0.107 A 
HETATM   10  C   UNK N   1      33.988  13.148   9.318  0.00  0.00     0.056 A 
HETATM   11  C   UNK N   1      34.756  15.321  10.880  0.00  0.00     0.054 A 
HETATM   12  C   UNK N   1      34.939  14.026  11.363  0.00  0.00     0.102 A 
HETATM   13  C   UNK N   1      34.519  12.929  10.590  0.00  0.00     0.059 A 
HETATM   14  H   UNK N   1      35.705  16.953   7.244  0.00  0.00     0.174 HD
HETATM   15  H   UNK N   1      32.874  13.958   7.045  0.00  0.00     0.161 HD
ENDROOT
BRANCH   7  16
HETATM   16  C   UNK N   1      32.847  16.368   5.820  0.00  0.00     0.037 C 
HETATM   17  C   UNK N   1      32.125  15.442   4.832  0.00  0.00     0.016 C 
HETATM   18  C   UNK N   1      31.290  16.518   4.173  0.00  0.00     0.017 C 
HETATM   19  C   UNK N   1      33.032  15.152   3.671  0.00  0.00    -0.025 C 
HETATM   20  C   UNK N   1      32.457  17.365   3.684  0.00  0.00     0.009 C 
HETATM   21  C   UNK N   1      33.196  17.622   5.009  0.00  0.00     0.017 C 
HETATM   22  C   UNK N   1      33.216  16.277   2.995  0.00  0.00    -0.026 C 
ENDBRANCH   7  16
BRANCH  12  23
HETATM   23  S   UNK N   1      35.856  13.811  12.889  0.00  0.00     0.258 S 
HETATM   24  O   UNK N   1      36.335  15.186  13.376  0.00  0.00    -0.201 OA
HETATM   25  O   UNK N   1      34.988  13.365  14.077  0.00  0.00    -0.201 OA
BRANCH  23  26
HETATM   26  N   UNK N   1      37.306  12.808  12.949  0.00  0.00    -0.324 N 
HETATM   27  H   UNK N   1      38.154  13.041  12.432  0.00  0.00     0.169 HD
HETATM   28  H   UNK N   1      37.297  11.965  13.522  0.00  0.00     0.169 HD
ENDBRANCH  23  26
ENDBRANCH  12  23
TORSDOF 3
ENDMDL
MODEL 2
REMARK VINA RESULT:      -7.1      3.454      8.167
REMARK  3 active torsions:
REMARK  status: ('A' for Active; 'I' for Inactive)
REMARK    1  A    between atoms: S_3  and  N_10 
REMARK    2  A    between atoms: S_3  and  C_23 
REMARK    3  A    between atoms: C_11  and  C_16 
ROOT
HETATM    1 Cl   UNK N   1      31.881  16.434   8.653  0.00  0.00    -0.083 Cl
HETATM    2  S   UNK N   1      36.873  12.775  10.338  0.00  0.00     0.262 S 
HETATM    3  O   UNK N   1      37.690  13.734   9.457  0.00  0.00    -0.200 OA
HETATM    4  O   UNK N   1      38.282  12.363  10.787  0.00  0.00    -0.200 OA
HETATM    5  N   UNK N   1      36.964  13.820  11.775  0.00  0.00    -0.293 N 
HETATM    6  N   UNK N   1      34.560  13.751  12.094  0.00  0.00    -0.366 N 
HETATM    7  C   UNK N   1      35.856  13.595  12.716  0.00  0.00     0.197 C 
HETATM    8  C   UNK N   1      34.452  14.154  10.745  0.00  0.00     0.054 A 
HETATM    9  C   UNK N   1      35.495  13.891   9.839  0.00  0.00     0.107 A 
HETATM   10  C   UNK N   1      33.339  14.896  10.348  0.00  0.00     0.056 A 
HETATM   11  C   UNK N   1      35.406  14.432   8.541  0.00  0.00     0.054 A 
HETATM   12  C   UNK N   1      34.328  15.233   8.165  0.00  0.00     0.102 A 
HETATM   13  C   UNK N   1      33.267  15.439   9.064  0.00  0.00     0.059 A 
HETATM   14  H   UNK N   1      37.706  14.503  11.930  0.00  0.00     0.174 HD
HETATM   15  H   UNK N   1      33.745  13.574  12.616  0.00  0.00     0.161 HD
ENDROOT
BRANCH   7  16
HETATM   16  C   UNK N   1      35.945  12.361  13.616  0.00  0.00     0.037 C 
HETATM   17  C   UNK N   1      34.708  12.001  14.450  0.00  0.00     0.016 C 
HETATM   18  C   UNK N   1      35.341  10.849  15.199  0.00  0.00     0.017 C 
HETATM   19  C   UNK N   1      34.594  12.954  15.604  0.00  0.00    -0.025 C 
HETATM   20  C   UNK N   1      36.462  11.656  15.840  0.00  0.00     0.009 C 
HETATM   21  C   UNK N   1      37.126  12.260  14.590  0.00  0.00     0.017 C 
HETATM   22  C   UNK N   1      35.616  12.742  16.421  0.00  0.00    -0.026 C 
ENDBRANCH   7  16
BRANCH  12  23
HETATM   23  S   UNK N   1      34.421  16.101   6.598  0.00  0.00     0.258 S 
HETATM   24  O   UNK N   1      34.655  17.594   6.873  0.00  0.00    -0.201 OA
HETATM   25  O   UNK N   1      35.669  15.756   5.770  0.00  0.00    -0.201 OA
BRANCH  23  26
HETATM   26  N   UNK N   1      33.070  16.084   5.463  0.00  0.00    -0.324 N 
HETATM   27  H   UNK N   1      32.774  16.917   4.955  0.00  0.00     0.169 HD
HETATM   28  H   UNK N   1      32.568  15.210   5.311  0.00  0.00     0.169 HD
ENDBRANCH  23  26
ENDBRANCH  12  23
TORSDOF 3
ENDMDL
MODEL 3
REMARK VINA RESULT:      -7.0      3.495      4.143
REMARK  3 active torsions:
REMARK  status: ('A' for Active; 'I' for Inactive)
REMARK    1  A    between atoms: S_3  and  N_10 
REMARK    2  A    between atoms: S_3  and  C_23 
REMARK    3  A    between atoms: C_11  and  C_16 
ROOT
HETATM    1 Cl   UNK N   1      35.322  12.925  11.919  0.00  0.00    -0.083 Cl
HETATM    2  S   UNK N   1      34.022  17.145   7.265  0.00  0.00     0.262 S 
HETATM    3  O   UNK N   1      34.918  16.247   6.398  0.00  0.00    -0.200 OA
HETATM    4  O   UNK N   1      33.664  17.718   5.887  0.00  0.00    -0.200 OA
HETATM    5  N   UNK N   1      32.562  16.165   6.988  0.00  0.00    -0.293 N 
HETATM    6  N   UNK N   1      32.114  15.992   9.366  0.00  0.00    -0.366 N 
HETATM    7  C   UNK N   1      31.569  16.305   8.064  0.00  0.00     0.197 C 
HETATM    8  C   UNK N   1      33.442  15.534   9.501  0.00  0.00     0.054 A 
HETATM    9  C   UNK N   1      34.412  15.873   8.540  0.00  0.00     0.107 A 
HETATM   10  C   UNK N   1      33.756  14.666  10.548  0.00  0.00     0.056 A 
HETATM   11  C   UNK N   1      35.687  15.282   8.639  0.00  0.00     0.054 A 
HETATM   12  C   UNK N   1      35.980  14.360   9.643  0.00  0.00     0.102 A 
HETATM   13  C   UNK N   1      35.018  14.074  10.628  0.00  0.00     0.059 A 
HETATM   14  H   UNK N   1      32.429  15.570   6.171  0.00  0.00     0.174 HD
HETATM   15  H   UNK N   1      31.553  16.102  10.167  0.00  0.00     0.161 HD
ENDROOT
BRANCH   7  16
HETATM   16  C   UNK N   1      30.712  17.573   8.061  0.00  0.00     0.037 C 
HETATM   17  C   UNK N   1      30.203  18.088   9.414  0.00  0.00     0.016 C 
HETATM   18  C   UNK N   1      29.361  19.216   8.859  0.00  0.00     0.017 C 
HETATM   19  C   UNK N   1      29.079  17.212   9.887  0.00  0.00    -0.025 C 
HETATM   20  C   UNK N   1      28.451  18.345   8.003  0.00  0.00     0.009 C 
HETATM   21  C   UNK N   1      29.491  17.617   7.133  0.00  0.00     0.017 C 
HETATM   22  C   UNK N   1      28.052  17.373   9.065  0.00  0.00    -0.026 C 
ENDBRANCH   7  16
BRANCH  12  23
HETATM   23  S   UNK N   1      37.523  13.452   9.539  0.00  0.00     0.258 S 
HETATM   24  O   UNK N   1      37.210  11.977   9.250  0.00  0.00    -0.201 OA
HETATM   25  O   UNK N   1      38.377  13.816   8.313  0.00  0.00    -0.201 OA
BRANCH  23  26
HETATM   26  N   UNK N   1      38.640  13.391  10.903  0.00  0.00    -0.324 N 
HETATM   27  H   UNK N   1      38.713  12.577  11.513  0.00  0.00     0.169 HD
HETATM   28  H   UNK N   1      39.233  14.199  11.088  0.00  0.00     0.169 HD
ENDBRANCH  23  26
ENDBRANCH  12  23
TORSDOF 3
ENDMDL
MODEL 4
REMARK VINA RESULT:      -6.7     14.308     15.896
REMARK  3 active torsions:
REMARK  status: ('A' for Active; 'I' for Inactive)
REMARK    1  A    between atoms: S_3  and  N_10 
REMARK    2  A    between atoms: S_3  and  C_23 
REMARK    3  A    between atoms: C_11  and  C_16 
ROOT
HETATM    1 Cl   UNK N   1      32.768  19.181  -7.803  0.00  0.00    -0.083 Cl
HETATM    2  S   UNK N   1      30.293  22.143  -2.680  0.00  0.00     0.262 S 
HETATM    3  O   UNK N   1      31.747  22.200  -2.188  0.00  0.00    -0.200 OA
HETATM    4  O   UNK N   1      30.113  23.146  -1.532  0.00  0.00    -0.200 OA
HETATM    5  N   UNK N   1      30.434  23.626  -3.654  0.00  0.00    -0.293 N 
HETATM    6  N   UNK N   1      29.557  22.524  -5.629  0.00  0.00    -0.366 N 
HETATM    7  C   UNK N   1      29.467  23.677  -4.760  0.00  0.00     0.197 C 
HETATM    8  C   UNK N   1      30.545  21.538  -5.419  0.00  0.00     0.054 A 
HETATM    9  C   UNK N   1      31.080  21.331  -4.134  0.00  0.00     0.107 A 
HETATM   10  C   UNK N   1      31.048  20.839  -6.516  0.00  0.00     0.056 A 
HETATM   11  C   UNK N   1      32.159  20.436  -3.995  0.00  0.00     0.054 A 
HETATM   12  C   UNK N   1      32.709  19.791  -5.102  0.00  0.00     0.102 A 
HETATM   13  C   UNK N   1      32.127  19.965  -6.370  0.00  0.00     0.059 A 
HETATM   14  H   UNK N   1      31.114  24.362  -3.465  0.00  0.00     0.174 HD
HETATM   15  H   UNK N   1      28.922  22.426  -6.375  0.00  0.00     0.161 HD
ENDROOT
BRANCH   7  16
HETATM   16  C   UNK N   1      28.025  24.052  -4.409  0.00  0.00     0.037 C 
HETATM   17  C   UNK N   1      26.962  23.883  -5.504  0.00  0.00     0.016 C 
HETATM   18  C   UNK N   1      25.815  24.476  -4.716  0.00  0.00     0.017 C 
HETATM   19  C   UNK N   1      27.108  24.987  -6.510  0.00  0.00    -0.025 C 
HETATM   20  C   UNK N   1      26.447  25.845  -4.496  0.00  0.00     0.009 C 
HETATM   21  C   UNK N   1      27.765  25.441  -3.812  0.00  0.00     0.017 C 
HETATM   22  C   UNK N   1      26.795  26.132  -5.921  0.00  0.00    -0.026 C 
ENDBRANCH   7  16
BRANCH  12  23
HETATM   23  S   UNK N   1      34.243  18.887  -4.883  0.00  0.00     0.258 S 
HETATM   24  O   UNK N   1      35.246  19.788  -4.148  0.00  0.00    -0.201 OA
HETATM   25  O   UNK N   1      34.135  17.707  -3.904  0.00  0.00    -0.201 OA
BRANCH  23  26
HETATM   26  N   UNK N   1      35.151  18.281  -6.269  0.00  0.00    -0.324 N 
HETATM   27  H   UNK N   1      36.034  17.781  -6.167  0.00  0.00     0.169 HD
HETATM   28  H   UNK N   1      34.780  18.438  -7.206  0.00  0.00     0.169 HD
ENDBRANCH  23  26
ENDBRANCH  12  23
TORSDOF 3
ENDMDL
MODEL 5
REMARK VINA RESULT:      -6.5     17.756     18.793
REMARK  3 active torsions:
REMARK  status: ('A' for Active; 'I' for Inactive)
REMARK    1  A    between atoms: S_3  and  N_10 
REMARK    2  A    between atoms: S_3  and  C_23 
REMARK    3  A    between atoms: C_11  and  C_16 
ROOT
HETATM    1 Cl   UNK N   1      30.083  27.853  -3.423  0.00  0.00    -0.083 Cl
HETATM    2  S   UNK N   1      26.139  23.437  -5.891  0.00  0.00     0.262 S 
HETATM    3  O   UNK N   1      25.238  24.636  -6.226  0.00  0.00    -0.200 OA
HETATM    4  O   UNK N   1      25.164  22.738  -6.849  0.00  0.00    -0.200 OA
HETATM    5  N   UNK N   1      27.118  23.602  -7.368  0.00  0.00    -0.293 N 
HETATM    6  N   UNK N   1      29.191  23.585  -6.109  0.00  0.00    -0.366 N 
HETATM    7  C   UNK N   1      28.464  23.028  -7.228  0.00  0.00     0.197 C 
HETATM    8  C   UNK N   1      28.631  24.621  -5.329  0.00  0.00     0.054 A 
HETATM    9  C   UNK N   1      27.235  24.764  -5.235  0.00  0.00     0.107 A 
HETATM   10  C   UNK N   1      29.481  25.553  -4.732  0.00  0.00     0.056 A 
HETATM   11  C   UNK N   1      26.722  25.891  -4.562  0.00  0.00     0.054 A 
HETATM   12  C   UNK N   1      27.569  26.860  -4.026  0.00  0.00     0.102 A 
HETATM   13  C   UNK N   1      28.962  26.673  -4.080  0.00  0.00     0.059 A 
HETATM   14  H   UNK N   1      26.781  24.049  -8.222  0.00  0.00     0.174 HD
HETATM   15  H   UNK N   1      30.085  23.238  -5.887  0.00  0.00     0.161 HD
ENDROOT
BRANCH   7  16
HETATM   16  C   UNK N   1      28.587  21.506  -7.325  0.00  0.00     0.037 C 
HETATM   17  C   UNK N   1      29.955  20.884  -7.014  0.00  0.00     0.016 C 
HETATM   18  C   UNK N   1      29.575  19.460  -7.359  0.00  0.00     0.017 C 
HETATM   19  C   UNK N   1      30.885  21.129  -8.167  0.00  0.00    -0.025 C 
HETATM   20  C   UNK N   1      29.192  19.733  -8.808  0.00  0.00     0.009 C 
HETATM   21  C   UNK N   1      28.125  20.824  -8.619  0.00  0.00     0.017 C 
HETATM   22  C   UNK N   1      30.442  20.446  -9.212  0.00  0.00    -0.026 C 
ENDBRANCH   7  16
BRANCH  12  23
HETATM   23  S   UNK N   1      26.843  28.388  -3.432  0.00  0.00     0.258 S 
HETATM   24  O   UNK N   1      25.358  28.144  -3.127  0.00  0.00    -0.201 OA
HETATM   25  O   UNK N   1      27.358  28.825  -2.052  0.00  0.00    -0.201 OA
BRANCH  23  26
HETATM   26  N   UNK N   1      26.839  29.845  -4.428  0.00  0.00    -0.324 N 
HETATM   27  H   UNK N   1      26.110  30.034  -5.116  0.00  0.00     0.169 HD
HETATM   28  H   UNK N   1      27.593  30.521  -4.312  0.00  0.00     0.169 HD
ENDBRANCH  23  26
ENDBRANCH  12  23
TORSDOF 3
ENDMDL
MODEL 6
REMARK VINA RESULT:      -6.4      3.015      7.448
REMARK  3 active torsions:
REMARK  status: ('A' for Active; 'I' for Inactive)
REMARK    1  A    between atoms: S_3  and  N_10 
REMARK    2  A    between atoms: S_3  and  C_23 
REMARK    3  A    between atoms: C_11  and  C_16 
ROOT
HETATM    1 Cl   UNK N   1      32.041  12.773   5.343  0.00  0.00    -0.083 Cl
HETATM    2  S   UNK N   1      35.206  16.289   9.677  0.00  0.00     0.262 S 
HETATM    3  O   UNK N   1      34.181  17.380   9.329  0.00  0.00    -0.200 OA
HETATM    4  O   UNK N   1      35.481  17.249  10.842  0.00  0.00    -0.200 OA
HETATM    5  N   UNK N   1      34.146  15.502  10.871  0.00  0.00    -0.293 N 
HETATM    6  N   UNK N   1      34.437  13.328   9.834  0.00  0.00    -0.366 N 
HETATM    7  C   UNK N   1      34.466  14.080  11.069  0.00  0.00     0.197 C 
HETATM    8  C   UNK N   1      34.056  13.944   8.623  0.00  0.00     0.054 A 
HETATM    9  C   UNK N   1      34.227  15.330   8.446  0.00  0.00     0.107 A 
HETATM   10  C   UNK N   1      33.424  13.178   7.643  0.00  0.00     0.056 A 
HETATM   11  C   UNK N   1      33.706  15.924   7.279  0.00  0.00     0.054 A 
HETATM   12  C   UNK N   1      33.012  15.171   6.333  0.00  0.00     0.102 A 
HETATM   13  C   UNK N   1      32.899  13.779   6.497  0.00  0.00     0.059 A 
HETATM   14  H   UNK N   1      33.396  15.985  11.364  0.00  0.00     0.174 HD
HETATM   15  H   UNK N   1      34.686  12.376   9.839  0.00  0.00     0.161 HD
ENDROOT
BRANCH   7  16
HETATM   16  C   UNK N   1      35.681  13.755  11.941  0.00  0.00     0.037 C 
HETATM   17  C   UNK N   1      35.785  12.332  12.509  0.00  0.00     0.016 C 
HETATM   18  C   UNK N   1      37.025  12.575  13.342  0.00  0.00     0.017 C 
HETATM   19  C   UNK N   1      34.809  12.177  13.639  0.00  0.00    -0.025 C 
HETATM   20  C   UNK N   1      36.435  13.680  14.208  0.00  0.00     0.009 C 
HETATM   21  C   UNK N   1      35.989  14.679  13.125  0.00  0.00     0.017 C 
HETATM   22  C   UNK N   1      35.198  12.959  14.635  0.00  0.00    -0.026 C 
ENDBRANCH   7  16
BRANCH  12  23
HETATM   23  S   UNK N   1      32.150  16.041   5.022  0.00  0.00     0.258 S 
HETATM   24  O   UNK N   1      30.638  15.901   5.248  0.00  0.00    -0.201 OA
HETATM   25  O   UNK N   1      32.316  17.568   5.076  0.00  0.00    -0.201 OA
BRANCH  23  26
HETATM   26  N   UNK N   1      32.371  15.592   3.330  0.00  0.00    -0.324 N 
HETATM   27  H   UNK N   1      33.002  16.097   2.709  0.00  0.00     0.169 HD
HETATM   28  H   UNK N   1      31.848  14.798   2.961  0.00  0.00     0.169 HD
ENDBRANCH  23  26
ENDBRANCH  12  23
TORSDOF 3
ENDMDL
MODEL 7
REMARK VINA RESULT:      -6.2      3.359      4.207
REMARK  3 active torsions:
REMARK  status: ('A' for Active; 'I' for Inactive)
REMARK    1  A    between atoms: S_3  and  N_10 
REMARK    2  A    between atoms: S_3  and  C_23 
REMARK    3  A    between atoms: C_11  and  C_16 
ROOT
HETATM    1 Cl   UNK N   1      35.510  12.690  15.255  0.00  0.00    -0.083 Cl
HETATM    2  S   UNK N   1      36.966  13.649   9.081  0.00  0.00     0.262 S 
HETATM    3  O   UNK N   1      37.039  12.116   9.008  0.00  0.00    -0.200 OA
HETATM    4  O   UNK N   1      36.986  13.487   7.555  0.00  0.00    -0.200 OA
HETATM    5  N   UNK N   1      35.205  13.700   8.827  0.00  0.00    -0.293 N 
HETATM    6  N   UNK N   1      34.869  15.098  10.781  0.00  0.00    -0.366 N 
HETATM    7  C   UNK N   1      34.584  14.915   9.375  0.00  0.00     0.197 C 
HETATM    8  C   UNK N   1      35.605  14.131  11.499  0.00  0.00     0.054 A 
HETATM    9  C   UNK N   1      36.519  13.294  10.832  0.00  0.00     0.107 A 
HETATM   10  C   UNK N   1      35.346  13.955  12.859  0.00  0.00     0.056 A 
HETATM   11  C   UNK N   1      37.128  12.253  11.561  0.00  0.00     0.054 A 
HETATM   12  C   UNK N   1      36.815  12.032  12.902  0.00  0.00     0.102 A 
HETATM   13  C   UNK N   1      35.943  12.911  13.568  0.00  0.00     0.059 A 
HETATM   14  H   UNK N   1      34.682  12.964   8.352  0.00  0.00     0.174 HD
HETATM   15  H   UNK N   1      34.548  15.906  11.242  0.00  0.00     0.161 HD
ENDROOT
BRANCH   7  16
HETATM   16  C   UNK N   1      34.733  16.203   8.561  0.00  0.00     0.037 C 
HETATM   17  C   UNK N   1      33.848  17.394   8.952  0.00  0.00     0.016 C 
HETATM   18  C   UNK N   1      34.281  18.302   7.821  0.00  0.00     0.017 C 
HETATM   19  C   UNK N   1      32.444  17.144   8.482  0.00  0.00    -0.025 C 
HETATM   20  C   UNK N   1      33.839  17.387   6.687  0.00  0.00     0.009 C 
HETATM   21  C   UNK N   1      34.623  16.108   7.034  0.00  0.00     0.017 C 
HETATM   22  C   UNK N   1      32.441  17.151   7.157  0.00  0.00    -0.026 C 
ENDBRANCH   7  16
BRANCH  12  23
HETATM   23  S   UNK N   1      37.418  10.531  13.678  0.00  0.00     0.258 S 
HETATM   24  O   UNK N   1      38.029   9.627  12.598  0.00  0.00    -0.201 OA
HETATM   25  O   UNK N   1      38.631  10.751  14.596  0.00  0.00    -0.201 OA
BRANCH  23  26
HETATM   26  N   UNK N   1      36.331   9.461  14.564  0.00  0.00    -0.324 N 
HETATM   27  H   UNK N   1      35.875   9.742  15.432  0.00  0.00     0.169 HD
HETATM   28  H   UNK N   1      36.152   8.528  14.195  0.00  0.00     0.169 HD
ENDBRANCH  23  26
ENDBRANCH  12  23
TORSDOF 3
ENDMDL
MODEL 8
REMARK VINA RESULT:      -6.1      4.837      8.298
REMARK  3 active torsions:
REMARK  status: ('A' for Active; 'I' for Inactive)
REMARK    1  A    between atoms: S_3  and  N_10 
REMARK    2  A    between atoms: S_3  and  C_23 
REMARK    3  A    between atoms: C_11  and  C_16 
ROOT
HETATM    1 Cl   UNK N   1      40.563  12.105   8.299  0.00  0.00    -0.083 Cl
HETATM    2  S   UNK N   1      35.375  14.700  11.037  0.00  0.00     0.262 S 
HETATM    3  O   UNK N   1      34.727  14.511   9.656  0.00  0.00    -0.200 OA
HETATM    4  O   UNK N   1      33.910  14.942  11.429  0.00  0.00    -0.200 OA
HETATM    5  N   UNK N   1      35.010  13.042  11.572  0.00  0.00    -0.293 N 
HETATM    6  N   UNK N   1      37.314  12.644  12.219  0.00  0.00    -0.366 N 
HETATM    7  C   UNK N   1      35.926  12.566  12.619  0.00  0.00     0.197 C 
HETATM    8  C   UNK N   1      37.667  13.069  10.920  0.00  0.00     0.054 A 
HETATM    9  C   UNK N   1      36.812  13.916  10.193  0.00  0.00     0.107 A 
HETATM   10  C   UNK N   1      38.828  12.563  10.335  0.00  0.00     0.056 A 
HETATM   11  C   UNK N   1      37.136  14.203   8.851  0.00  0.00     0.054 A 
HETATM   12  C   UNK N   1      38.258  13.640   8.244  0.00  0.00     0.102 A 
HETATM   13  C   UNK N   1      39.133  12.841   9.001  0.00  0.00     0.059 A 
HETATM   14  H   UNK N   1      34.247  12.482  11.192  0.00  0.00     0.174 HD
HETATM   15  H   UNK N   1      38.019  12.400  12.861  0.00  0.00     0.161 HD
ENDROOT
BRANCH   7  16
HETATM   16  C   UNK N   1      35.682  13.072  14.042  0.00  0.00     0.037 C 
HETATM   17  C   UNK N   1      36.826  12.920  15.054  0.00  0.00     0.016 C 
HETATM   18  C   UNK N   1      36.058  13.433  16.253  0.00  0.00     0.017 C 
HETATM   19  C   UNK N   1      36.926  11.484  15.478  0.00  0.00    -0.025 C 
HETATM   20  C   UNK N   1      34.956  12.382  16.212  0.00  0.00     0.009 C 
HETATM   21  C   UNK N   1      34.430  12.580  14.780  0.00  0.00     0.017 C 
HETATM   22  C   UNK N   1      35.835  11.175  16.164  0.00  0.00    -0.026 C 
ENDBRANCH   7  16
BRANCH  12  23
HETATM   23  S   UNK N   1      38.450  13.832   6.471  0.00  0.00     0.258 S 
HETATM   24  O   UNK N   1      37.257  14.632   5.929  0.00  0.00    -0.201 OA
HETATM   25  O   UNK N   1      39.621  14.742   6.068  0.00  0.00    -0.201 OA
BRANCH  23  26
HETATM   26  N   UNK N   1      38.541  12.428   5.406  0.00  0.00    -0.324 N 
HETATM   27  H   UNK N   1      37.884  11.651   5.469  0.00  0.00     0.169 HD
HETATM   28  H   UNK N   1      39.277  12.394   4.701  0.00  0.00     0.169 HD
ENDBRANCH  23  26
ENDBRANCH  12  23
TORSDOF 3
ENDMDL
MODEL 9
REMARK VINA RESULT:      -6.0      6.030      7.987
REMARK  3 active torsions:
REMARK  status: ('A' for Active; 'I' for Inactive)
REMARK    1  A    between atoms: S_3  and  N_10 
REMARK    2  A    between atoms: S_3  and  C_23 
REMARK    3  A    between atoms: C_11  and  C_16 
ROOT
HETATM    1 Cl   UNK N   1      35.137   8.384  18.232  0.00  0.00    -0.083 Cl
HETATM    2  S   UNK N   1      35.964  13.636  14.642  0.00  0.00     0.262 S 
HETATM    3  O   UNK N   1      36.678  14.197  15.882  0.00  0.00    -0.200 OA
HETATM    4  O   UNK N   1      36.627  14.860  13.997  0.00  0.00    -0.200 OA
HETATM    5  N   UNK N   1      37.415  12.807  14.028  0.00  0.00    -0.293 N 
HETATM    6  N   UNK N   1      36.231  10.702  13.800  0.00  0.00    -0.366 N 
HETATM    7  C   UNK N   1      37.095  11.667  13.157  0.00  0.00     0.197 C 
HETATM    8  C   UNK N   1      35.842  10.868  15.147  0.00  0.00     0.054 A 
HETATM    9  C   UNK N   1      35.796  12.152  15.720  0.00  0.00     0.107 A 
HETATM   10  C   UNK N   1      35.595   9.735  15.924  0.00  0.00     0.056 A 
HETATM   11  C   UNK N   1      35.538  12.258  17.102  0.00  0.00     0.054 A 
HETATM   12  C   UNK N   1      35.362  11.124  17.893  0.00  0.00     0.102 A 
HETATM   13  C   UNK N   1      35.355   9.851  17.294  0.00  0.00     0.059 A 
HETATM   14  H   UNK N   1      38.367  13.093  14.258  0.00  0.00     0.174 HD
HETATM   15  H   UNK N   1      35.909   9.923  13.292  0.00  0.00     0.161 HD
ENDROOT
BRANCH   7  16
HETATM   16  C   UNK N   1      36.676  11.984  11.719  0.00  0.00     0.037 C 
HETATM   17  C   UNK N   1      36.738  10.843  10.695  0.00  0.00     0.016 C 
HETATM   18  C   UNK N   1      36.362  11.678   9.490  0.00  0.00     0.017 C 
HETATM   19  C   UNK N   1      38.170  10.587  10.324  0.00  0.00    -0.025 C 
HETATM   20  C   UNK N   1      37.527  12.655   9.589  0.00  0.00     0.009 C 
HETATM   21  C   UNK N   1      37.334  13.182  11.022  0.00  0.00     0.017 C 
HETATM   22  C   UNK N   1      38.626  11.645   9.668  0.00  0.00    -0.026 C 
ENDBRANCH   7  16
BRANCH  12  23
HETATM   23  S   UNK N   1      35.312  11.330  19.674  0.00  0.00     0.258 S 
HETATM   24  O   UNK N   1      34.199  10.439  20.244  0.00  0.00    -0.201 OA
HETATM   25  O   UNK N   1      36.543  10.763  20.399  0.00  0.00    -0.201 OA
BRANCH  23  26
HETATM   26  N   UNK N   1      35.008  12.908  20.402  0.00  0.00    -0.324 N 
HETATM   27  H   UNK N   1      35.710  13.399  20.956  0.00  0.00     0.169 HD
HETATM   28  H   UNK N   1      34.098  13.345  20.264  0.00  0.00     0.169 HD
ENDBRANCH  23  26
ENDBRANCH  12  23
TORSDOF 3
ENDMDL
