REMARK  3 active torsions:
REMARK  status: ('A' for Active; 'I' for Inactive)
REMARK    1  A    between atoms: S_3  and  N_10 
REMARK    2  A    between atoms: S_3  and  C_23 
REMARK    3  A    between atoms: C_11  and  C_16 
ROOT
HETATM    1 Cl   UNK N   1      10.608   1.531   0.533  0.00  0.00    -0.083 Cl
HETATM    2  S   UNK N   1       4.984  -1.358  -0.553  0.00  0.00     0.262 S 
HETATM    3  O   UNK N   1       5.632  -2.565   0.143  0.00  0.00    -0.200 OA
HETATM    4  O   UNK N   1       3.724  -2.206  -0.332  0.00  0.00    -0.200 OA
HETATM    5  N   UNK N   1       4.468  -0.599   0.972  0.00  0.00    -0.293 N 
HETATM    6  N   UNK N   1       5.490   1.518   0.373  0.00  0.00    -0.366 N 
HETATM    7  C   UNK N   1       4.298   0.857   0.856  0.00  0.00     0.197 C 
HETATM    8  C   UNK N   1       6.674   0.787   0.136  0.00  0.00     0.054 A 
HETATM    9  C   UNK N   1       6.612  -0.584  -0.175  0.00  0.00     0.107 A 
HETATM   10  C   UNK N   1       7.906   1.420   0.305  0.00  0.00     0.056 A 
HETATM   11  C   UNK N   1       7.820  -1.304  -0.267  0.00  0.00     0.054 A 
HETATM   12  C   UNK N   1       9.048  -0.688  -0.028  0.00  0.00     0.102 A 
HETATM   13  C   UNK N   1       9.096   0.694   0.226  0.00  0.00     0.059 A 
HETATM   14  H   UNK N   1       4.308  -1.119   1.835  0.00  0.00     0.174 HD
HETATM   15  H   UNK N   1       5.475   2.488   0.207  0.00  0.00     0.161 HD
ENDROOT
BRANCH   7  16
HETATM   16  C   UNK N   1       3.019   1.358   0.181  0.00  0.00     0.037 C 
HETATM   17  C   UNK N   1       1.679   0.905   0.777  0.00  0.00     0.016 C 
HETATM   18  C   UNK N   1       0.802   1.544  -0.278  0.00  0.00     0.017 C 
HETATM   19  C   UNK N   1       1.430  -0.528   0.405  0.00  0.00    -0.025 C 
HETATM   20  C   UNK N   1       1.383   0.787  -1.465  0.00  0.00     0.009 C 
HETATM   21  C   UNK N   1       2.872   1.152  -1.332  0.00  0.00     0.017 C 
HETATM   22  C   UNK N   1       1.247  -0.592  -0.906  0.00  0.00    -0.026 C 
ENDBRANCH   7  16
BRANCH  12  23
HETATM   23  S   UNK N   1      10.506  -1.724   0.105  0.00  0.00     0.258 S 
HETATM   24  O   UNK N   1      10.684  -2.141   1.572  0.00  0.00    -0.201 OA
HETATM   25  O   UNK N   1      10.358  -3.095  -0.574  0.00  0.00    -0.201 OA
BRANCH  23  26
HETATM   26  N   UNK N   1      12.098  -1.124  -0.363  0.00  0.00    -0.324 N 
HETATM   27  H   UNK N   1      12.859  -1.747  -0.633  0.00  0.00     0.169 HD
HETATM   28  H   UNK N   1      12.263  -0.118  -0.363  0.00  0.00     0.169 HD
ENDBRANCH  23  26
ENDBRANCH  12  23
TORSDOF 3
