MODEL 1
REMARK VINA RESULT:      -7.7      0.000      0.000
REMARK  6 active torsions:
REMARK  status: ('A' for Active; 'I' for Inactive)
REMARK    1  A    between atoms: O_3  and  C_16 
REMARK    2  A    between atoms: O_6  and  C_20 
REMARK    3  A    between atoms: O_6  and  C_28 
REMARK    4  A    between atoms: C_12  and  N_8 
REMARK       I    between atoms: N_8  and  C_17 
REMARK    5  A    between atoms: C_11  and  C_16 
REMARK    6  A    between atoms: C_17  and  C_18 
ROOT
HETATM    1  O   UNK N   1      33.678  18.073   8.364  0.00  0.00    -0.268 OA
HETATM    2  N   UNK N   1      33.578  15.833   8.266  0.00  0.00    -0.342 N 
HETATM    3  C   UNK N   1      33.083  17.070   7.999  0.00  0.00     0.256 C 
HETATM    4  H   UNK N   1      33.059  15.078   7.907  0.00  0.00     0.163 HD
ENDROOT
BRANCH   2   5
HETATM    5  C   UNK N   1      34.775  15.477   9.013  0.00  0.00     0.199 A 
HETATM    6  C   UNK N   1      34.789  13.886   9.216  0.00  0.00     0.160 A 
HETATM    7  S   UNK N   1      36.393  13.079   8.976  0.00  0.00    -0.135 SA
HETATM    8  N   UNK N   1      34.668  14.109  10.605  0.00  0.00    -0.219 NA
HETATM    9  C   UNK N   1      36.445  12.499  10.721  0.00  0.00     0.029 C 
HETATM   10  C   UNK N   1      35.405  13.301  11.543  0.00  0.00     0.182 C 
HETATM   11  C   UNK N   1      36.050  11.036  10.747  0.00  0.00     0.029 C 
HETATM   12  C   UNK N   1      37.874  12.640  11.204  0.00  0.00     0.029 C 
HETATM   13  C   UNK N   1      34.646  15.416  10.504  0.00  0.00     0.227 A 
HETATM   14  O   UNK N   1      35.048  16.209  11.339  0.00  0.00    -0.277 OA
BRANCH  10  15
HETATM   15  C   UNK N   1      35.710  13.928  12.888  0.00  0.00     0.160 C 
HETATM   16  O   UNK N   1      35.011  13.648  13.849  0.00  0.00    -0.649 OA
BRANCH  15  17
HETATM   17  O   UNK N   1      36.740  14.779  13.052  0.00  0.00    -0.775 OA
HETATM   18  H   UNK N   1      36.835  15.567  13.550  0.00  0.00     0.167 HD
ENDBRANCH  15  17
ENDBRANCH  10  15
ENDBRANCH   2   5
BRANCH   3  19
HETATM   19  C   UNK N   1      31.871  17.185   7.133  0.00  0.00     0.076 A 
HETATM   20  C   UNK N   1      30.608  17.460   7.726  0.00  0.00    -0.007 A 
HETATM   21  C   UNK N   1      29.475  17.683   6.908  0.00  0.00    -0.025 A 
HETATM   22  C   UNK N   1      30.462  17.572   9.122  0.00  0.00     0.013 A 
HETATM   23  C   UNK N   1      29.587  17.627   5.525  0.00  0.00     0.015 A 
HETATM   24  C   UNK N   1      28.240  17.995   7.484  0.00  0.00     0.012 A 
HETATM   25  C   UNK N   1      30.812  17.341   4.933  0.00  0.00     0.039 A 
HETATM   26  C   UNK N   1      31.953  17.107   5.702  0.00  0.00     0.085 A 
HETATM   27  C   UNK N   1      28.115  18.092   8.870  0.00  0.00     0.001 A 
HETATM   28  C   UNK N   1      29.225  17.881   9.689  0.00  0.00     0.001 A 
BRANCH  26  29
HETATM   29  O   UNK N   1      33.082  16.773   5.025  0.00  0.00    -0.350 OA
BRANCH  29  30
HETATM   30  C   UNK N   1      33.304  15.533   4.471  0.00  0.00     0.171 C 
HETATM   31  C   UNK N   1      33.436  15.658   2.968  0.00  0.00     0.034 C 
ENDBRANCH  29  30
ENDBRANCH  26  29
ENDBRANCH   3  19
TORSDOF 6
ENDMDL
MODEL 2
REMARK VINA RESULT:      -7.5      9.780     13.751
REMARK  6 active torsions:
REMARK  status: ('A' for Active; 'I' for Inactive)
REMARK    1  A    between atoms: O_3  and  C_16 
REMARK    2  A    between atoms: O_6  and  C_20 
REMARK    3  A    between atoms: O_6  and  C_28 
REMARK    4  A    between atoms: C_12  and  N_8 
REMARK       I    between atoms: N_8  and  C_17 
REMARK    5  A    between atoms: C_11  and  C_16 
REMARK    6  A    between atoms: C_17  and  C_18 
ROOT
HETATM    1  O   UNK N   1      20.480  13.858   7.123  0.00  0.00    -0.268 OA
HETATM    2  N   UNK N   1      21.617  15.789   7.260  0.00  0.00    -0.342 N 
HETATM    3  C   UNK N   1      21.428  14.481   7.578  0.00  0.00     0.256 C 
HETATM    4  H   UNK N   1      22.423  16.209   7.637  0.00  0.00     0.163 HD
ENDROOT
BRANCH   2   5
HETATM    5  C   UNK N   1      20.785  16.651   6.434  0.00  0.00     0.199 A 
HETATM    6  C   UNK N   1      21.000  16.239   4.899  0.00  0.00     0.160 A 
HETATM    7  S   UNK N   1      19.498  16.175   3.887  0.00  0.00    -0.135 SA
HETATM    8  N   UNK N   1      21.562  17.517   4.683  0.00  0.00    -0.219 NA
HETATM    9  C   UNK N   1      20.099  17.515   2.779  0.00  0.00     0.029 C 
HETATM   10  C   UNK N   1      21.270  18.250   3.478  0.00  0.00     0.182 C 
HETATM   11  C   UNK N   1      20.623  16.880   1.507  0.00  0.00     0.029 C 
HETATM   12  C   UNK N   1      18.911  18.396   2.446  0.00  0.00     0.029 C 
HETATM   13  C   UNK N   1      21.417  17.910   5.925  0.00  0.00     0.227 A 
HETATM   14  O   UNK N   1      21.245  19.058   6.301  0.00  0.00    -0.277 OA
BRANCH  10  15
HETATM   15  C   UNK N   1      21.379  19.759   3.557  0.00  0.00     0.160 C 
HETATM   16  O   UNK N   1      22.413  20.302   3.205  0.00  0.00    -0.649 OA
BRANCH  15  17
HETATM   17  O   UNK N   1      20.356  20.517   3.997  0.00  0.00    -0.775 OA
HETATM   18  H   UNK N   1      19.451  20.556   3.757  0.00  0.00     0.167 HD
ENDBRANCH  15  17
ENDBRANCH  10  15
ENDBRANCH   2   5
BRANCH   3  19
HETATM   19  C   UNK N   1      22.474  13.781   8.382  0.00  0.00     0.076 A 
HETATM   20  C   UNK N   1      22.115  13.155   9.608  0.00  0.00    -0.007 A 
HETATM   21  C   UNK N   1      23.071  12.394  10.321  0.00  0.00    -0.025 A 
HETATM   22  C   UNK N   1      20.803  13.229  10.112  0.00  0.00     0.013 A 
HETATM   23  C   UNK N   1      24.365  12.259   9.833  0.00  0.00     0.015 A 
HETATM   24  C   UNK N   1      22.713  11.742  11.504  0.00  0.00     0.012 A 
HETATM   25  C   UNK N   1      24.733  12.880   8.646  0.00  0.00     0.039 A 
HETATM   26  C   UNK N   1      23.824  13.647   7.914  0.00  0.00     0.085 A 
HETATM   27  C   UNK N   1      21.409  11.835  11.992  0.00  0.00     0.001 A 
HETATM   28  C   UNK N   1      20.454  12.577  11.296  0.00  0.00     0.001 A 
BRANCH  26  29
HETATM   29  O   UNK N   1      24.306  14.262   6.804  0.00  0.00    -0.350 OA
BRANCH  29  30
HETATM   30  C   UNK N   1      25.285  15.228   6.828  0.00  0.00     0.171 C 
HETATM   31  C   UNK N   1      26.130  15.136   5.575  0.00  0.00     0.034 C 
ENDBRANCH  29  30
ENDBRANCH  26  29
ENDBRANCH   3  19
TORSDOF 6
ENDMDL
MODEL 3
REMARK VINA RESULT:      -7.3      4.851      9.786
REMARK  6 active torsions:
REMARK  status: ('A' for Active; 'I' for Inactive)
REMARK    1  A    between atoms: O_3  and  C_16 
REMARK    2  A    between atoms: O_6  and  C_20 
REMARK    3  A    between atoms: O_6  and  C_28 
REMARK    4  A    between atoms: C_12  and  N_8 
REMARK       I    between atoms: N_8  and  C_17 
REMARK    5  A    between atoms: C_11  and  C_16 
REMARK    6  A    between atoms: C_17  and  C_18 
ROOT
HETATM    1  O   UNK N   1      33.592  11.392  14.473  0.00  0.00    -0.268 OA
HETATM    2  N   UNK N   1      35.703  11.568  13.731  0.00  0.00    -0.342 N 
HETATM    3  C   UNK N   1      34.789  11.281  14.695  0.00  0.00     0.256 C 
HETATM    4  H   UNK N   1      36.645  11.418  13.976  0.00  0.00     0.163 HD
ENDROOT
BRANCH   2   5
HETATM    5  C   UNK N   1      35.474  12.067  12.383  0.00  0.00     0.199 A 
HETATM    6  C   UNK N   1      36.894  12.428  11.731  0.00  0.00     0.160 A 
HETATM    7  S   UNK N   1      37.113  11.928  10.003  0.00  0.00    -0.135 SA
HETATM    8  N   UNK N   1      36.484  13.779  11.698  0.00  0.00    -0.219 NA
HETATM    9  C   UNK N   1      37.316  13.671   9.448  0.00  0.00     0.029 C 
HETATM   10  C   UNK N   1      36.798  14.611  10.565  0.00  0.00     0.182 C 
HETATM   11  C   UNK N   1      38.794  13.936   9.245  0.00  0.00     0.029 C 
HETATM   12  C   UNK N   1      36.596  13.811   8.122  0.00  0.00     0.029 C 
HETATM   13  C   UNK N   1      35.309  13.549  12.232  0.00  0.00     0.227 A 
HETATM   14  O   UNK N   1      34.290  14.187  12.032  0.00  0.00    -0.277 OA
BRANCH  10  15
HETATM   15  C   UNK N   1      35.874  15.784  10.305  0.00  0.00     0.160 C 
HETATM   16  O   UNK N   1      36.245  16.911  10.593  0.00  0.00    -0.649 OA
BRANCH  15  17
HETATM   17  O   UNK N   1      34.657  15.614   9.755  0.00  0.00    -0.775 OA
HETATM   18  H   UNK N   1      34.379  15.460   8.874  0.00  0.00     0.167 HD
ENDBRANCH  15  17
ENDBRANCH  10  15
ENDBRANCH   2   5
BRANCH   3  19
HETATM   19  C   UNK N   1      35.267  10.696  15.984  0.00  0.00     0.076 A 
HETATM   20  C   UNK N   1      35.318  11.512  17.147  0.00  0.00    -0.007 A 
HETATM   21  C   UNK N   1      35.661  10.942  18.396  0.00  0.00    -0.025 A 
HETATM   22  C   UNK N   1      34.983  12.878  17.101  0.00  0.00     0.013 A 
HETATM   23  C   UNK N   1      35.954   9.588  18.492  0.00  0.00     0.015 A 
HETATM   24  C   UNK N   1      35.672  11.729  19.551  0.00  0.00     0.012 A 
HETATM   25  C   UNK N   1      35.925   8.783  17.359  0.00  0.00     0.039 A 
HETATM   26  C   UNK N   1      35.600   9.306  16.106  0.00  0.00     0.085 A 
HETATM   27  C   UNK N   1      35.345  13.084  19.482  0.00  0.00     0.001 A 
HETATM   28  C   UNK N   1      35.000  13.658  18.259  0.00  0.00     0.001 A 
BRANCH  26  29
HETATM   29  O   UNK N   1      35.664   8.446  15.056  0.00  0.00    -0.350 OA
BRANCH  29  30
HETATM   30  C   UNK N   1      36.741   7.630  14.800  0.00  0.00     0.171 C 
HETATM   31  C   UNK N   1      37.829   8.417  14.101  0.00  0.00     0.034 C 
ENDBRANCH  29  30
ENDBRANCH  26  29
ENDBRANCH   3  19
TORSDOF 6
ENDMDL
MODEL 4
REMARK VINA RESULT:      -7.2      3.036      8.700
REMARK  6 active torsions:
REMARK  status: ('A' for Active; 'I' for Inactive)
REMARK    1  A    between atoms: O_3  and  C_16 
REMARK    2  A    between atoms: O_6  and  C_20 
REMARK    3  A    between atoms: O_6  and  C_28 
REMARK    4  A    between atoms: C_12  and  N_8 
REMARK       I    between atoms: N_8  and  C_17 
REMARK    5  A    between atoms: C_11  and  C_16 
REMARK    6  A    between atoms: C_17  and  C_18 
ROOT
HETATM    1  O   UNK N   1      37.373  12.739  12.558  0.00  0.00    -0.268 OA
HETATM    2  N   UNK N   1      35.406  13.788  12.298  0.00  0.00    -0.342 N 
HETATM    3  C   UNK N   1      36.295  13.067  13.031  0.00  0.00     0.256 C 
HETATM    4  H   UNK N   1      34.577  14.045  12.763  0.00  0.00     0.163 HD
ENDROOT
BRANCH   2   5
HETATM    5  C   UNK N   1      35.518  14.232  10.917  0.00  0.00     0.199 A 
HETATM    6  C   UNK N   1      34.377  15.326  10.645  0.00  0.00     0.160 A 
HETATM    7  S   UNK N   1      34.892  16.773   9.682  0.00  0.00    -0.135 SA
HETATM    8  N   UNK N   1      33.800  14.428   9.721  0.00  0.00    -0.219 NA
HETATM    9  C   UNK N   1      33.717  16.378   8.323  0.00  0.00     0.029 C 
HETATM   10  C   UNK N   1      33.255  14.908   8.477  0.00  0.00     0.182 C 
HETATM   11  C   UNK N   1      32.506  17.278   8.465  0.00  0.00     0.029 C 
HETATM   12  C   UNK N   1      34.417  16.685   7.014  0.00  0.00     0.029 C 
HETATM   13  C   UNK N   1      34.701  13.492   9.903  0.00  0.00     0.227 A 
HETATM   14  O   UNK N   1      35.067  12.676   9.075  0.00  0.00    -0.277 OA
BRANCH  10  15
HETATM   15  C   UNK N   1      33.215  13.922   7.327  0.00  0.00     0.160 C 
HETATM   16  O   UNK N   1      32.166  13.358   7.060  0.00  0.00    -0.649 OA
BRANCH  15  17
HETATM   17  O   UNK N   1      34.307  13.660   6.584  0.00  0.00    -0.775 OA
HETATM   18  H   UNK N   1      35.189  13.441   6.814  0.00  0.00     0.167 HD
ENDBRANCH  15  17
ENDBRANCH  10  15
ENDBRANCH   2   5
BRANCH   3  19
HETATM   19  C   UNK N   1      35.989  12.802  14.469  0.00  0.00     0.076 A 
HETATM   20  C   UNK N   1      36.318  13.781  15.448  0.00  0.00    -0.007 A 
HETATM   21  C   UNK N   1      35.932  13.590  16.796  0.00  0.00    -0.025 A 
HETATM   22  C   UNK N   1      36.978  14.974  15.100  0.00  0.00     0.013 A 
HETATM   23  C   UNK N   1      35.239  12.447  17.172  0.00  0.00     0.015 A 
HETATM   24  C   UNK N   1      36.215  14.567  17.755  0.00  0.00     0.012 A 
HETATM   25  C   UNK N   1      34.928  11.475  16.229  0.00  0.00     0.039 A 
HETATM   26  C   UNK N   1      35.295  11.619  14.890  0.00  0.00     0.085 A 
HETATM   27  C   UNK N   1      36.879  15.739  17.390  0.00  0.00     0.001 A 
HETATM   28  C   UNK N   1      37.259  15.943  16.064  0.00  0.00     0.001 A 
BRANCH  26  29
HETATM   29  O   UNK N   1      35.000  10.581  14.065  0.00  0.00    -0.350 OA
BRANCH  29  30
HETATM   30  C   UNK N   1      33.780  10.414  13.452  0.00  0.00     0.171 C 
HETATM   31  C   UNK N   1      33.975  10.231  11.961  0.00  0.00     0.034 C 
ENDBRANCH  29  30
ENDBRANCH  26  29
ENDBRANCH   3  19
TORSDOF 6
ENDMDL
MODEL 5
REMARK VINA RESULT:      -7.1      6.837     10.429
REMARK  6 active torsions:
REMARK  status: ('A' for Active; 'I' for Inactive)
REMARK    1  A    between atoms: O_3  and  C_16 
REMARK    2  A    between atoms: O_6  and  C_20 
REMARK    3  A    between atoms: O_6  and  C_28 
REMARK    4  A    between atoms: C_12  and  N_8 
REMARK       I    between atoms: N_8  and  C_17 
REMARK    5  A    between atoms: C_11  and  C_16 
REMARK    6  A    between atoms: C_17  and  C_18 
ROOT
HETATM    1  O   UNK N   1      24.183  13.595   5.869  0.00  0.00    -0.268 OA
HETATM    2  N   UNK N   1      24.424  15.766   6.385  0.00  0.00    -0.342 N 
HETATM    3  C   UNK N   1      23.805  14.562   6.513  0.00  0.00     0.256 C 
HETATM    4  H   UNK N   1      24.084  16.485   6.965  0.00  0.00     0.163 HD
ENDROOT
BRANCH   2   5
HETATM    5  C   UNK N   1      25.523  16.132   5.506  0.00  0.00     0.199 A 
HETATM    6  C   UNK N   1      26.853  16.272   6.391  0.00  0.00     0.160 A 
HETATM    7  S   UNK N   1      28.355  15.563   5.666  0.00  0.00    -0.135 SA
HETATM    8  N   UNK N   1      26.872  17.645   6.064  0.00  0.00    -0.219 NA
HETATM    9  C   UNK N   1      29.187  17.203   5.603  0.00  0.00     0.029 C 
HETATM   10  C   UNK N   1      28.116  18.310   5.769  0.00  0.00     0.182 C 
HETATM   11  C   UNK N   1      30.151  17.291   6.768  0.00  0.00     0.029 C 
HETATM   12  C   UNK N   1      29.964  17.268   4.304  0.00  0.00     0.029 C 
HETATM   13  C   UNK N   1      25.786  17.597   5.330  0.00  0.00     0.227 A 
HETATM   14  O   UNK N   1      25.531  18.310   4.374  0.00  0.00    -0.277 OA
BRANCH  10  15
HETATM   15  C   UNK N   1      28.038  19.535   4.880  0.00  0.00     0.160 C 
HETATM   16  O   UNK N   1      28.006  20.642   5.391  0.00  0.00    -0.649 OA
BRANCH  15  17
HETATM   17  O   UNK N   1      28.014  19.430   3.538  0.00  0.00    -0.775 OA
HETATM   18  H   UNK N   1      27.312  19.326   2.925  0.00  0.00     0.167 HD
ENDBRANCH  15  17
ENDBRANCH  10  15
ENDBRANCH   2   5
BRANCH   3  19
HETATM   19  C   UNK N   1      22.746  14.407   7.555  0.00  0.00     0.076 A 
HETATM   20  C   UNK N   1      22.951  13.506   8.635  0.00  0.00    -0.007 A 
HETATM   21  C   UNK N   1      22.006  13.434   9.686  0.00  0.00    -0.025 A 
HETATM   22  C   UNK N   1      24.109  12.710   8.717  0.00  0.00     0.013 A 
HETATM   23  C   UNK N   1      20.872  14.236   9.665  0.00  0.00     0.015 A 
HETATM   24  C   UNK N   1      22.222  12.581  10.771  0.00  0.00     0.012 A 
HETATM   25  C   UNK N   1      20.651  15.108   8.606  0.00  0.00     0.039 A 
HETATM   26  C   UNK N   1      21.553  15.206   7.545  0.00  0.00     0.085 A 
HETATM   27  C   UNK N   1      23.373  11.793  10.828  0.00  0.00     0.001 A 
HETATM   28  C   UNK N   1      24.316  11.858   9.803  0.00  0.00     0.001 A 
BRANCH  26  29
HETATM   29  O   UNK N   1      21.209  16.041   6.531  0.00  0.00    -0.350 OA
BRANCH  29  30
HETATM   30  C   UNK N   1      21.047  17.399   6.679  0.00  0.00     0.171 C 
HETATM   31  C   UNK N   1      21.865  18.131   5.636  0.00  0.00     0.034 C 
ENDBRANCH  29  30
ENDBRANCH  26  29
ENDBRANCH   3  19
TORSDOF 6
ENDMDL
MODEL 6
REMARK VINA RESULT:      -6.7      4.538      9.415
REMARK  6 active torsions:
REMARK  status: ('A' for Active; 'I' for Inactive)
REMARK    1  A    between atoms: O_3  and  C_16 
REMARK    2  A    between atoms: O_6  and  C_20 
REMARK    3  A    between atoms: O_6  and  C_28 
REMARK    4  A    between atoms: C_12  and  N_8 
REMARK       I    between atoms: N_8  and  C_17 
REMARK    5  A    between atoms: C_11  and  C_16 
REMARK    6  A    between atoms: C_17  and  C_18 
ROOT
HETATM    1  O   UNK N   1      34.556  13.162  14.182  0.00  0.00    -0.268 OA
HETATM    2  N   UNK N   1      36.601  12.632  13.422  0.00  0.00    -0.342 N 
HETATM    3  C   UNK N   1      35.599  12.544  14.337  0.00  0.00     0.256 C 
HETATM    4  H   UNK N   1      37.393  12.076  13.600  0.00  0.00     0.163 HD
ENDROOT
BRANCH   2   5
HETATM    5  C   UNK N   1      36.657  13.440  12.214  0.00  0.00     0.199 A 
HETATM    6  C   UNK N   1      35.436  13.014  11.265  0.00  0.00     0.160 A 
HETATM    7  S   UNK N   1      34.557  14.379  10.457  0.00  0.00    -0.135 SA
HETATM    8  N   UNK N   1      36.385  12.552  10.327  0.00  0.00    -0.219 NA
HETATM    9  C   UNK N   1      35.022  13.782   8.780  0.00  0.00     0.029 C 
HETATM   10  C   UNK N   1      36.188  12.771   8.917  0.00  0.00     0.182 C 
HETATM   11  C   UNK N   1      33.830  13.059   8.186  0.00  0.00     0.029 C 
HETATM   12  C   UNK N   1      35.340  15.000   7.937  0.00  0.00     0.029 C 
HETATM   13  C   UNK N   1      37.425  12.874  11.059  0.00  0.00     0.227 A 
HETATM   14  O   UNK N   1      38.526  13.193  10.644  0.00  0.00    -0.277 OA
BRANCH  10  15
HETATM   15  C   UNK N   1      37.434  12.813   8.055  0.00  0.00     0.160 C 
HETATM   16  O   UNK N   1      37.718  11.843   7.371  0.00  0.00    -0.649 OA
BRANCH  15  17
HETATM   17  O   UNK N   1      38.228  13.899   8.017  0.00  0.00    -0.775 OA
HETATM   18  H   UNK N   1      39.160  14.000   8.036  0.00  0.00     0.167 HD
ENDBRANCH  15  17
ENDBRANCH  10  15
ENDBRANCH   2   5
BRANCH   3  19
HETATM   19  C   UNK N   1      35.740  11.572  15.463  0.00  0.00     0.076 A 
HETATM   20  C   UNK N   1      35.581  12.022  16.802  0.00  0.00    -0.007 A 
HETATM   21  C   UNK N   1      35.601  11.091  17.868  0.00  0.00    -0.025 A 
HETATM   22  C   UNK N   1      35.348  13.378  17.098  0.00  0.00     0.013 A 
HETATM   23  C   UNK N   1      35.782   9.738  17.614  0.00  0.00     0.015 A 
HETATM   24  C   UNK N   1      35.402  11.522  19.183  0.00  0.00     0.012 A 
HETATM   25  C   UNK N   1      35.957   9.288  16.312  0.00  0.00     0.039 A 
HETATM   26  C   UNK N   1      35.952  10.171  15.231  0.00  0.00     0.085 A 
HETATM   27  C   UNK N   1      35.182  12.873  19.455  0.00  0.00     0.001 A 
HETATM   28  C   UNK N   1      35.154  13.800  18.414  0.00  0.00     0.001 A 
BRANCH  26  29
HETATM   29  O   UNK N   1      36.197   9.634  14.008  0.00  0.00    -0.350 OA
BRANCH  29  30
HETATM   30  C   UNK N   1      35.239   9.018  13.236  0.00  0.00     0.171 C 
HETATM   31  C   UNK N   1      35.593   7.558  13.045  0.00  0.00     0.034 C 
ENDBRANCH  29  30
ENDBRANCH  26  29
ENDBRANCH   3  19
TORSDOF 6
ENDMDL
MODEL 7
REMARK VINA RESULT:      -6.5      6.886     10.461
REMARK  6 active torsions:
REMARK  status: ('A' for Active; 'I' for Inactive)
REMARK    1  A    between atoms: O_3  and  C_16 
REMARK    2  A    between atoms: O_6  and  C_20 
REMARK    3  A    between atoms: O_6  and  C_28 
REMARK    4  A    between atoms: C_12  and  N_8 
REMARK       I    between atoms: N_8  and  C_17 
REMARK    5  A    between atoms: C_11  and  C_16 
REMARK    6  A    between atoms: C_17  and  C_18 
ROOT
HETATM    1  O   UNK N   1      23.166  14.302   5.282  0.00  0.00    -0.268 OA
HETATM    2  N   UNK N   1      24.459  15.616   6.561  0.00  0.00    -0.342 N 
HETATM    3  C   UNK N   1      23.357  14.848   6.359  0.00  0.00     0.256 C 
HETATM    4  H   UNK N   1      24.559  15.990   7.466  0.00  0.00     0.163 HD
ENDROOT
BRANCH   2   5
HETATM    5  C   UNK N   1      25.513  15.959   5.618  0.00  0.00     0.199 A 
HETATM    6  C   UNK N   1      26.888  16.104   6.429  0.00  0.00     0.160 A 
HETATM    7  S   UNK N   1      28.346  15.372   5.639  0.00  0.00    -0.135 SA
HETATM    8  N   UNK N   1      26.899  17.472   6.076  0.00  0.00    -0.219 NA
HETATM    9  C   UNK N   1      29.183  17.004   5.502  0.00  0.00     0.029 C 
HETATM   10  C   UNK N   1      28.129  18.122   5.703  0.00  0.00     0.182 C 
HETATM   11  C   UNK N   1      30.209  17.107   6.612  0.00  0.00     0.029 C 
HETATM   12  C   UNK N   1      29.891  17.040   4.162  0.00  0.00     0.029 C 
HETATM   13  C   UNK N   1      25.776  17.418   5.402  0.00  0.00     0.227 A 
HETATM   14  O   UNK N   1      25.475  18.115   4.448  0.00  0.00    -0.277 OA
BRANCH  10  15
HETATM   15  C   UNK N   1      28.012  19.331   4.797  0.00  0.00     0.160 C 
HETATM   16  O   UNK N   1      28.046  20.448   5.286  0.00  0.00    -0.649 OA
BRANCH  15  17
HETATM   17  O   UNK N   1      27.883  19.202   3.464  0.00  0.00    -0.775 OA
HETATM   18  H   UNK N   1      27.294  19.588   2.846  0.00  0.00     0.167 HD
ENDBRANCH  15  17
ENDBRANCH  10  15
ENDBRANCH   2   5
BRANCH   3  19
HETATM   19  C   UNK N   1      22.454  14.569   7.516  0.00  0.00     0.076 A 
HETATM   20  C   UNK N   1      21.419  15.490   7.835  0.00  0.00    -0.007 A 
HETATM   21  C   UNK N   1      20.489  15.182   8.857  0.00  0.00    -0.025 A 
HETATM   22  C   UNK N   1      21.258  16.691   7.119  0.00  0.00     0.013 A 
HETATM   23  C   UNK N   1      20.586  13.987   9.556  0.00  0.00     0.015 A 
HETATM   24  C   UNK N   1      19.444  16.064   9.147  0.00  0.00     0.012 A 
HETATM   25  C   UNK N   1      21.604  13.087   9.266  0.00  0.00     0.039 A 
HETATM   26  C   UNK N   1      22.547  13.353   8.272  0.00  0.00     0.085 A 
HETATM   27  C   UNK N   1      19.308  17.254   8.430  0.00  0.00     0.001 A 
HETATM   28  C   UNK N   1      20.213  17.567   7.417  0.00  0.00     0.001 A 
BRANCH  26  29
HETATM   29  O   UNK N   1      23.537  12.436   8.115  0.00  0.00    -0.350 OA
BRANCH  29  30
HETATM   30  C   UNK N   1      24.344  11.998   9.138  0.00  0.00     0.171 C 
HETATM   31  C   UNK N   1      25.095  13.168   9.739  0.00  0.00     0.034 C 
ENDBRANCH  29  30
ENDBRANCH  26  29
ENDBRANCH   3  19
TORSDOF 6
ENDMDL
MODEL 8
REMARK VINA RESULT:      -6.4     14.067     15.806
REMARK  6 active torsions:
REMARK  status: ('A' for Active; 'I' for Inactive)
REMARK    1  A    between atoms: O_3  and  C_16 
REMARK    2  A    between atoms: O_6  and  C_20 
REMARK    3  A    between atoms: O_6  and  C_28 
REMARK    4  A    between atoms: C_12  and  N_8 
REMARK       I    between atoms: N_8  and  C_17 
REMARK    5  A    between atoms: C_11  and  C_16 
REMARK    6  A    between atoms: C_17  and  C_18 
ROOT
HETATM    1  O   UNK N   1      43.096  24.615  -2.039  0.00  0.00    -0.268 OA
HETATM    2  N   UNK N   1      43.163  25.197   0.127  0.00  0.00    -0.342 N 
HETATM    3  C   UNK N   1      42.865  25.448  -1.175  0.00  0.00     0.256 C 
HETATM    4  H   UNK N   1      42.913  25.903   0.767  0.00  0.00     0.163 HD
ENDROOT
BRANCH   2   5
HETATM    5  C   UNK N   1      43.802  24.024   0.702  0.00  0.00     0.199 A 
HETATM    6  C   UNK N   1      42.658  23.056   1.274  0.00  0.00     0.160 A 
HETATM    7  S   UNK N   1      42.888  21.289   0.942  0.00  0.00    -0.135 SA
HETATM    8  N   UNK N   1      43.178  23.280   2.568  0.00  0.00    -0.219 NA
HETATM    9  C   UNK N   1      43.002  20.892   2.734  0.00  0.00     0.029 C 
HETATM   10  C   UNK N   1      43.268  22.202   3.518  0.00  0.00     0.182 C 
HETATM   11  C   UNK N   1      41.669  20.328   3.182  0.00  0.00     0.029 C 
HETATM   12  C   UNK N   1      44.074  19.832   2.897  0.00  0.00     0.029 C 
HETATM   13  C   UNK N   1      44.132  24.084   2.163  0.00  0.00     0.227 A 
HETATM   14  O   UNK N   1      45.219  24.236   2.695  0.00  0.00    -0.277 OA
BRANCH  10  15
HETATM   15  C   UNK N   1      44.327  22.329   4.595  0.00  0.00     0.160 C 
HETATM   16  O   UNK N   1      43.991  22.628   5.729  0.00  0.00    -0.649 OA
BRANCH  15  17
HETATM   17  O   UNK N   1      45.629  22.111   4.331  0.00  0.00    -0.775 OA
HETATM   18  H   UNK N   1      46.116  21.328   4.167  0.00  0.00     0.167 HD
ENDBRANCH  15  17
ENDBRANCH  10  15
ENDBRANCH   2   5
BRANCH   3  19
HETATM   19  C   UNK N   1      42.125  26.701  -1.513  0.00  0.00     0.076 A 
HETATM   20  C   UNK N   1      40.703  26.698  -1.510  0.00  0.00    -0.007 A 
HETATM   21  C   UNK N   1      39.993  27.905  -1.718  0.00  0.00    -0.025 A 
HETATM   22  C   UNK N   1      39.972  25.524  -1.251  0.00  0.00     0.013 A 
HETATM   23  C   UNK N   1      40.678  29.093  -1.932  0.00  0.00     0.015 A 
HETATM   24  C   UNK N   1      38.596  27.916  -1.674  0.00  0.00     0.012 A 
HETATM   25  C   UNK N   1      42.068  29.106  -1.955  0.00  0.00     0.039 A 
HETATM   26  C   UNK N   1      42.808  27.938  -1.762  0.00  0.00     0.085 A 
HETATM   27  C   UNK N   1      37.890  26.739  -1.425  0.00  0.00     0.001 A 
HETATM   28  C   UNK N   1      38.577  25.544  -1.212  0.00  0.00     0.001 A 
BRANCH  26  29
HETATM   29  O   UNK N   1      44.157  28.052  -1.869  0.00  0.00    -0.350 OA
BRANCH  29  30
HETATM   30  C   UNK N   1      44.967  28.533  -0.867  0.00  0.00     0.171 C 
HETATM   31  C   UNK N   1      45.737  29.739  -1.363  0.00  0.00     0.034 C 
ENDBRANCH  29  30
ENDBRANCH  26  29
ENDBRANCH   3  19
TORSDOF 6
ENDMDL
MODEL 9
REMARK VINA RESULT:      -6.3      7.889     12.189
REMARK  6 active torsions:
REMARK  status: ('A' for Active; 'I' for Inactive)
REMARK    1  A    between atoms: O_3  and  C_16 
REMARK    2  A    between atoms: O_6  and  C_20 
REMARK    3  A    between atoms: O_6  and  C_28 
REMARK    4  A    between atoms: C_12  and  N_8 
REMARK       I    between atoms: N_8  and  C_17 
REMARK    5  A    between atoms: C_11  and  C_16 
REMARK    6  A    between atoms: C_17  and  C_18 
ROOT
HETATM    1  O   UNK N   1      25.269  18.976   3.799  0.00  0.00    -0.268 OA
HETATM    2  N   UNK N   1      24.834  17.243   5.157  0.00  0.00    -0.342 N 
HETATM    3  C   UNK N   1      25.680  18.001   4.412  0.00  0.00     0.256 C 
HETATM    4  H   UNK N   1      25.249  16.498   5.649  0.00  0.00     0.163 HD
ENDROOT
BRANCH   2   5
HETATM    5  C   UNK N   1      23.396  17.386   5.326  0.00  0.00     0.199 A 
HETATM    6  C   UNK N   1      22.772  15.934   5.595  0.00  0.00     0.160 A 
HETATM    7  S   UNK N   1      21.504  15.852   6.888  0.00  0.00    -0.135 SA
HETATM    8  N   UNK N   1      22.075  16.057   4.373  0.00  0.00    -0.219 NA
HETATM    9  C   UNK N   1      20.217  15.304   5.693  0.00  0.00     0.029 C 
HETATM   10  C   UNK N   1      20.715  15.597   4.256  0.00  0.00     0.182 C 
HETATM   11  C   UNK N   1      20.038  13.807   5.842  0.00  0.00     0.029 C 
HETATM   12  C   UNK N   1      18.925  16.002   6.067  0.00  0.00     0.029 C 
HETATM   13  C   UNK N   1      22.555  17.245   4.094  0.00  0.00     0.227 A 
HETATM   14  O   UNK N   1      21.995  18.114   3.448  0.00  0.00    -0.277 OA
BRANCH  10  15
HETATM   15  C   UNK N   1      19.861  16.263   3.197  0.00  0.00     0.160 C 
HETATM   16  O   UNK N   1      19.819  15.784   2.075  0.00  0.00    -0.649 OA
BRANCH  15  17
HETATM   17  O   UNK N   1      19.137  17.366   3.467  0.00  0.00    -0.775 OA
HETATM   18  H   UNK N   1      18.234  17.492   3.681  0.00  0.00     0.167 HD
ENDBRANCH  15  17
ENDBRANCH  10  15
ENDBRANCH   2   5
BRANCH   3  19
HETATM   19  C   UNK N   1      27.143  17.705   4.464  0.00  0.00     0.076 A 
HETATM   20  C   UNK N   1      27.682  16.683   3.634  0.00  0.00    -0.007 A 
HETATM   21  C   UNK N   1      29.080  16.470   3.592  0.00  0.00    -0.025 A 
HETATM   22  C   UNK N   1      26.857  15.902   2.803  0.00  0.00     0.013 A 
HETATM   23  C   UNK N   1      29.932  17.250   4.362  0.00  0.00     0.015 A 
HETATM   24  C   UNK N   1      29.619  15.495   2.747  0.00  0.00     0.012 A 
HETATM   25  C   UNK N   1      29.417  18.240   5.191  0.00  0.00     0.039 A 
HETATM   26  C   UNK N   1      28.044  18.479   5.269  0.00  0.00     0.085 A 
HETATM   27  C   UNK N   1      28.783  14.725   1.937  0.00  0.00     0.001 A 
HETATM   28  C   UNK N   1      27.403  14.929   1.965  0.00  0.00     0.001 A 
BRANCH  26  29
HETATM   29  O   UNK N   1      27.643  19.425   6.158  0.00  0.00    -0.350 OA
BRANCH  29  30
HETATM   30  C   UNK N   1      27.699  20.777   5.914  0.00  0.00     0.171 C 
HETATM   31  C   UNK N   1      26.438  21.444   6.421  0.00  0.00     0.034 C 
ENDBRANCH  29  30
ENDBRANCH  26  29
ENDBRANCH   3  19
TORSDOF 6
ENDMDL
