MODEL 1
REMARK VINA RESULT:      -5.5      0.000      0.000
REMARK  8 active torsions:
REMARK  status: ('A' for Active; 'I' for Inactive)
REMARK    1  A    between atoms: N_2  and  C_9 
REMARK    2  A    between atoms: N_2  and  C_11 
REMARK    3  A    between atoms: N_2  and  C_12 
REMARK    4  A    between atoms: N_3  and  C_8 
REMARK    5  A    between atoms: N_3  and  C_13 
REMARK    6  A    between atoms: C_6  and  C_7 
REMARK    7  A    between atoms: C_6  and  C_8 
REMARK    8  A    between atoms: C_7  and  C_9 
ROOT
HETATM    1 Cl   UNK N   1      32.706  15.176   4.882  0.00  0.00    -0.084 Cl
HETATM    2  N   UNK N   1      30.746  17.630   8.918  0.00  0.00    -0.365 N 
ATOM      3  HN  UNK N   1      31.584  17.348   9.428  1.00  0.00     0.165 HD
HETATM    4  C   UNK N   1      28.468  18.395   7.540  0.00  0.00     0.042 A 
HETATM    5  C   UNK N   1      29.446  17.625   6.898  0.00  0.00     0.017 A 
HETATM    6  C   UNK N   1      28.653  18.780   8.870  0.00  0.00     0.047 A 
HETATM    7  C   UNK N   1      30.600  17.251   7.621  0.00  0.00     0.046 A 
HETATM    8  C   UNK N   1      29.316  17.251   5.554  0.00  0.00     0.018 A 
HETATM    9  C   UNK N   1      29.801  18.377   9.552  0.00  0.00     0.090 A 
HETATM   10  C   UNK N   1      31.600  16.502   6.994  0.00  0.00     0.054 A 
HETATM   11  C   UNK N   1      30.320  16.501   4.936  0.00  0.00     0.025 A 
HETATM   12  C   UNK N   1      31.458  16.126   5.656  0.00  0.00     0.036 A 
ENDROOT
BRANCH   4  13
HETATM   13  N   UNK N   1      27.354  18.876   6.826  0.00  0.00    -0.385 N 
HETATM   14  H   UNK N   1      26.543  18.329   6.712  0.00  0.00     0.160 HD
BRANCH  13  15
HETATM   15  C   UNK N   1      27.451  20.195   6.274  0.00  0.00     0.077 C 
HETATM   16  C   UNK N   1      26.524  21.211   6.919  0.00  0.00     0.032 C 
BRANCH  15  17
HETATM   17  C   UNK N   1      27.686  20.197   4.765  0.00  0.00     0.026 C 
BRANCH  17  18
HETATM   18  C   UNK N   1      26.441  20.412   3.928  0.00  0.00     0.032 C 
BRANCH  18  19
HETATM   19  C   UNK N   1      25.729  19.107   3.547  0.00  0.00     0.272 C 
BRANCH  19  20
HETATM   20  N   UNK N   1      24.516  18.889   4.348  0.00  0.00     0.087 N 
BRANCH  20  21
HETATM   21  C   UNK N   1      24.310  17.447   4.540  0.00  0.00     0.268 C 
HETATM   22  C   UNK N   1      25.635  16.710   4.538  0.00  0.00     0.037 C 
ENDBRANCH  20  21
BRANCH  20  23
HETATM   23  C   UNK N   1      23.415  19.561   3.640  0.00  0.00     0.268 C 
HETATM   24  C   UNK N   1      22.060  18.867   3.718  0.00  0.00     0.037 C 
ENDBRANCH  20  23
ENDBRANCH  19  20
ENDBRANCH  18  19
ENDBRANCH  17  18
ENDBRANCH  15  17
ENDBRANCH  13  15
ENDBRANCH   4  13
TORSDOF 8
ENDMDL
MODEL 2
REMARK VINA RESULT:      -5.3      6.164      7.668
REMARK  8 active torsions:
REMARK  status: ('A' for Active; 'I' for Inactive)
REMARK    1  A    between atoms: N_2  and  C_9 
REMARK    2  A    between atoms: N_2  and  C_11 
REMARK    3  A    between atoms: N_2  and  C_12 
REMARK    4  A    between atoms: N_3  and  C_8 
REMARK    5  A    between atoms: N_3  and  C_13 
REMARK    6  A    between atoms: C_6  and  C_7 
REMARK    7  A    between atoms: C_6  and  C_8 
REMARK    8  A    between atoms: C_7  and  C_9 
ROOT
HETATM    1 Cl   UNK N   1      22.952  11.498  12.879  0.00  0.00    -0.084 Cl
HETATM    2  N   UNK N   1      25.037  13.276   8.561  0.00  0.00    -0.365 N 
ATOM      3  HN  UNK N   1      25.927  12.918   8.907  1.00  0.00     0.165 HD
HETATM    4  C   UNK N   1      22.622  14.253   7.618  0.00  0.00     0.042 A 
HETATM    5  C   UNK N   1      22.678  13.621   8.866  0.00  0.00     0.017 A 
HETATM    6  C   UNK N   1      23.784  14.379   6.853  0.00  0.00     0.047 A 
HETATM    7  C   UNK N   1      23.921  13.128   9.323  0.00  0.00     0.046 A 
HETATM    8  C   UNK N   1      21.529  13.442   9.647  0.00  0.00     0.018 A 
HETATM    9  C   UNK N   1      24.993  13.891   7.348  0.00  0.00     0.090 A 
HETATM   10  C   UNK N   1      23.997  12.473  10.555  0.00  0.00     0.054 A 
HETATM   11  C   UNK N   1      21.615  12.787  10.878  0.00  0.00     0.025 A 
HETATM   12  C   UNK N   1      22.847  12.305  11.331  0.00  0.00     0.036 A 
ENDROOT
BRANCH   4  13
HETATM   13  N   UNK N   1      21.388  14.667   7.080  0.00  0.00    -0.385 N 
HETATM   14  H   UNK N   1      20.740  14.017   6.724  0.00  0.00     0.160 HD
BRANCH  13  15
HETATM   15  C   UNK N   1      21.117  16.075   7.075  0.00  0.00     0.077 C 
HETATM   16  C   UNK N   1      20.268  16.550   8.241  0.00  0.00     0.032 C 
BRANCH  15  17
HETATM   17  C   UNK N   1      20.905  16.638   5.672  0.00  0.00     0.026 C 
BRANCH  17  18
HETATM   18  C   UNK N   1      22.101  17.366   5.091  0.00  0.00     0.032 C 
BRANCH  18  19
HETATM   19  C   UNK N   1      21.900  17.804   3.634  0.00  0.00     0.272 C 
BRANCH  19  20
HETATM   20  N   UNK N   1      20.579  18.410   3.420  0.00  0.00     0.087 N 
BRANCH  20  21
HETATM   21  C   UNK N   1      20.065  18.009   2.103  0.00  0.00     0.268 C 
HETATM   22  C   UNK N   1      20.412  16.563   1.808  0.00  0.00     0.037 C 
ENDBRANCH  20  21
BRANCH  20  23
HETATM   23  C   UNK N   1      20.748  19.863   3.578  0.00  0.00     0.268 C 
HETATM   24  C   UNK N   1      21.006  20.640   2.293  0.00  0.00     0.037 C 
ENDBRANCH  20  23
ENDBRANCH  19  20
ENDBRANCH  18  19
ENDBRANCH  17  18
ENDBRANCH  15  17
ENDBRANCH  13  15
ENDBRANCH   4  13
TORSDOF 8
ENDMDL
MODEL 3
REMARK VINA RESULT:      -5.2     11.555     15.436
REMARK  8 active torsions:
REMARK  status: ('A' for Active; 'I' for Inactive)
REMARK    1  A    between atoms: N_2  and  C_9 
REMARK    2  A    between atoms: N_2  and  C_11 
REMARK    3  A    between atoms: N_2  and  C_12 
REMARK    4  A    between atoms: N_3  and  C_8 
REMARK    5  A    between atoms: N_3  and  C_13 
REMARK    6  A    between atoms: C_6  and  C_7 
REMARK    7  A    between atoms: C_6  and  C_8 
REMARK    8  A    between atoms: C_7  and  C_9 
ROOT
HETATM    1 Cl   UNK N   1      35.985  15.867  11.178  0.00  0.00    -0.084 Cl
HETATM    2  N   UNK N   1      34.113  11.409  12.844  0.00  0.00    -0.365 N 
ATOM      3  HN  UNK N   1      33.644  11.330  11.941  1.00  0.00     0.165 HD
HETATM    4  C   UNK N   1      35.380  11.619  15.298  0.00  0.00     0.042 A 
HETATM    5  C   UNK N   1      35.526  12.639  14.349  0.00  0.00     0.017 A 
HETATM    6  C   UNK N   1      34.603  10.498  14.997  0.00  0.00     0.047 A 
HETATM    7  C   UNK N   1      34.872  12.506  13.104  0.00  0.00     0.046 A 
HETATM    8  C   UNK N   1      36.326  13.761  14.598  0.00  0.00     0.018 A 
HETATM    9  C   UNK N   1      33.964  10.414  13.761  0.00  0.00     0.090 A 
HETATM   10  C   UNK N   1      35.021  13.500  12.133  0.00  0.00     0.054 A 
HETATM   11  C   UNK N   1      36.467  14.750  13.622  0.00  0.00     0.025 A 
HETATM   12  C   UNK N   1      35.815  14.620  12.392  0.00  0.00     0.036 A 
ENDROOT
BRANCH   4  13
HETATM   13  N   UNK N   1      36.096  11.663  16.510  0.00  0.00    -0.385 N 
HETATM   14  H   UNK N   1      37.071  11.524  16.536  0.00  0.00     0.160 HD
BRANCH  13  15
HETATM   15  C   UNK N   1      35.344  11.920  17.704  0.00  0.00     0.077 C 
HETATM   16  C   UNK N   1      35.051  13.390  17.951  0.00  0.00     0.032 C 
BRANCH  15  17
HETATM   17  C   UNK N   1      35.716  10.991  18.857  0.00  0.00     0.026 C 
BRANCH  17  18
HETATM   18  C   UNK N   1      35.455   9.520  18.599  0.00  0.00     0.032 C 
BRANCH  18  19
HETATM   19  C   UNK N   1      33.964   9.157  18.594  0.00  0.00     0.272 C 
BRANCH  19  20
HETATM   20  N   UNK N   1      33.476   8.818  19.938  0.00  0.00     0.087 N 
BRANCH  20  21
HETATM   21  C   UNK N   1      34.608   8.399  20.777  0.00  0.00     0.268 C 
HETATM   22  C   UNK N   1      34.200   8.331  22.235  0.00  0.00     0.037 C 
ENDBRANCH  20  21
BRANCH  20  23
HETATM   23  C   UNK N   1      32.444   7.784  19.766  0.00  0.00     0.268 C 
HETATM   24  C   UNK N   1      31.019   8.214  20.097  0.00  0.00     0.037 C 
ENDBRANCH  20  23
ENDBRANCH  19  20
ENDBRANCH  18  19
ENDBRANCH  17  18
ENDBRANCH  15  17
ENDBRANCH  13  15
ENDBRANCH   4  13
TORSDOF 8
ENDMDL
MODEL 4
REMARK VINA RESULT:      -5.1     13.145     15.010
REMARK  8 active torsions:
REMARK  status: ('A' for Active; 'I' for Inactive)
REMARK    1  A    between atoms: N_2  and  C_9 
REMARK    2  A    between atoms: N_2  and  C_11 
REMARK    3  A    between atoms: N_2  and  C_12 
REMARK    4  A    between atoms: N_3  and  C_8 
REMARK    5  A    between atoms: N_3  and  C_13 
REMARK    6  A    between atoms: C_6  and  C_7 
REMARK    7  A    between atoms: C_6  and  C_8 
REMARK    8  A    between atoms: C_7  and  C_9 
ROOT
HETATM    1 Cl   UNK N   1      26.311  29.881  -3.666  0.00  0.00    -0.084 Cl
HETATM    2  N   UNK N   1      28.636  25.394  -4.446  0.00  0.00    -0.365 N 
ATOM      3  HN  UNK N   1      29.432  25.779  -3.937  1.00  0.00     0.165 HD
HETATM    4  C   UNK N   1      26.480  24.344  -5.832  0.00  0.00     0.042 A 
HETATM    5  C   UNK N   1      26.423  25.655  -5.343  0.00  0.00     0.017 A 
HETATM    6  C   UNK N   1      27.622  23.571  -5.608  0.00  0.00     0.047 A 
HETATM    7  C   UNK N   1      27.534  26.166  -4.637  0.00  0.00     0.046 A 
HETATM    8  C   UNK N   1      25.282  26.450  -5.514  0.00  0.00     0.018 A 
HETATM    9  C   UNK N   1      28.702  24.119  -4.918  0.00  0.00     0.090 A 
HETATM   10  C   UNK N   1      27.491  27.464  -4.120  0.00  0.00     0.054 A 
HETATM   11  C   UNK N   1      25.249  27.747  -4.995  0.00  0.00     0.025 A 
HETATM   12  C   UNK N   1      26.352  28.253  -4.302  0.00  0.00     0.036 A 
ENDROOT
BRANCH   4  13
HETATM   13  N   UNK N   1      25.357  23.762  -6.450  0.00  0.00    -0.385 N 
HETATM   14  H   UNK N   1      24.507  23.646  -5.967  0.00  0.00     0.160 HD
BRANCH  13  15
HETATM   15  C   UNK N   1      25.505  23.346  -7.815  0.00  0.00     0.077 C 
HETATM   16  C   UNK N   1      25.390  24.475  -8.826  0.00  0.00     0.032 C 
BRANCH  15  17
HETATM   17  C   UNK N   1      24.888  21.979  -8.095  0.00  0.00     0.026 C 
BRANCH  17  18
HETATM   18  C   UNK N   1      25.881  20.894  -8.462  0.00  0.00     0.032 C 
BRANCH  18  19
HETATM   19  C   UNK N   1      26.812  21.286  -9.617  0.00  0.00     0.272 C 
BRANCH  19  20
HETATM   20  N   UNK N   1      28.182  20.794  -9.410  0.00  0.00     0.087 N 
BRANCH  20  21
HETATM   21  C   UNK N   1      28.439  20.657  -7.970  0.00  0.00     0.268 C 
HETATM   22  C   UNK N   1      29.193  19.374  -7.678  0.00  0.00     0.037 C 
ENDBRANCH  20  21
BRANCH  20  23
HETATM   23  C   UNK N   1      29.079  21.740 -10.091  0.00  0.00     0.268 C 
HETATM   24  C   UNK N   1      28.807  23.216  -9.822  0.00  0.00     0.037 C 
ENDBRANCH  20  23
ENDBRANCH  19  20
ENDBRANCH  18  19
ENDBRANCH  17  18
ENDBRANCH  15  17
ENDBRANCH  13  15
ENDBRANCH   4  13
TORSDOF 8
ENDMDL
MODEL 5
REMARK VINA RESULT:      -5.0      8.254     11.729
REMARK  8 active torsions:
REMARK  status: ('A' for Active; 'I' for Inactive)
REMARK    1  A    between atoms: N_2  and  C_9 
REMARK    2  A    between atoms: N_2  and  C_11 
REMARK    3  A    between atoms: N_2  and  C_12 
REMARK    4  A    between atoms: N_3  and  C_8 
REMARK    5  A    between atoms: N_3  and  C_13 
REMARK    6  A    between atoms: C_6  and  C_7 
REMARK    7  A    between atoms: C_6  and  C_8 
REMARK    8  A    between atoms: C_7  and  C_9 
ROOT
HETATM    1 Cl   UNK N   1      37.486  15.590  16.537  0.00  0.00    -0.084 Cl
HETATM    2  N   UNK N   1      34.763  11.330  15.767  0.00  0.00    -0.365 N 
ATOM      3  HN  UNK N   1      34.835  11.167  16.771  1.00  0.00     0.165 HD
HETATM    4  C   UNK N   1      34.563  11.768  13.039  0.00  0.00     0.042 A 
HETATM    5  C   UNK N   1      35.268  12.674  13.841  0.00  0.00     0.017 A 
HETATM    6  C   UNK N   1      33.957  10.653  13.623  0.00  0.00     0.047 A 
HETATM    7  C   UNK N   1      35.353  12.431  15.230  0.00  0.00     0.046 A 
HETATM    8  C   UNK N   1      35.858  13.824  13.300  0.00  0.00     0.018 A 
HETATM    9  C   UNK N   1      34.076  10.443  14.996  0.00  0.00     0.090 A 
HETATM   10  C   UNK N   1      36.031  13.333  16.053  0.00  0.00     0.054 A 
HETATM   11  C   UNK N   1      36.537  14.719  14.130  0.00  0.00     0.025 A 
HETATM   12  C   UNK N   1      36.624  14.473  15.504  0.00  0.00     0.036 A 
ENDROOT
BRANCH   4  13
HETATM   13  N   UNK N   1      34.368  12.027  11.669  0.00  0.00    -0.385 N 
HETATM   14  H   UNK N   1      33.843  12.802  11.362  0.00  0.00     0.160 HD
BRANCH  13  15
HETATM   15  C   UNK N   1      34.966  11.114  10.740  0.00  0.00     0.077 C 
HETATM   16  C   UNK N   1      36.459  10.910  10.941  0.00  0.00     0.032 C 
BRANCH  15  17
HETATM   17  C   UNK N   1      34.371  11.210   9.338  0.00  0.00     0.026 C 
BRANCH  17  18
HETATM   18  C   UNK N   1      33.638  12.504   9.044  0.00  0.00     0.032 C 
BRANCH  18  19
HETATM   19  C   UNK N   1      34.560  13.631   8.564  0.00  0.00     0.272 C 
BRANCH  19  20
HETATM   20  N   UNK N   1      34.336  14.879   9.308  0.00  0.00     0.087 N 
BRANCH  20  21
HETATM   21  C   UNK N   1      33.785  15.896   8.401  0.00  0.00     0.268 C 
HETATM   22  C   UNK N   1      34.414  17.250   8.667  0.00  0.00     0.037 C 
ENDBRANCH  20  21
BRANCH  20  23
HETATM   23  C   UNK N   1      35.626  15.251   9.910  0.00  0.00     0.268 C 
HETATM   24  C   UNK N   1      36.803  14.352   9.552  0.00  0.00     0.037 C 
ENDBRANCH  20  23
ENDBRANCH  19  20
ENDBRANCH  18  19
ENDBRANCH  17  18
ENDBRANCH  15  17
ENDBRANCH  13  15
ENDBRANCH   4  13
TORSDOF 8
ENDMDL
MODEL 6
REMARK VINA RESULT:      -4.9     10.674     13.527
REMARK  8 active torsions:
REMARK  status: ('A' for Active; 'I' for Inactive)
REMARK    1  A    between atoms: N_2  and  C_9 
REMARK    2  A    between atoms: N_2  and  C_11 
REMARK    3  A    between atoms: N_2  and  C_12 
REMARK    4  A    between atoms: N_3  and  C_8 
REMARK    5  A    between atoms: N_3  and  C_13 
REMARK    6  A    between atoms: C_6  and  C_7 
REMARK    7  A    between atoms: C_6  and  C_8 
REMARK    8  A    between atoms: C_7  and  C_9 
ROOT
HETATM    1 Cl   UNK N   1      34.048   8.015  10.474  0.00  0.00    -0.084 Cl
HETATM    2  N   UNK N   1      36.655   8.341  14.861  0.00  0.00    -0.365 N 
ATOM      3  HN  UNK N   1      37.126   7.480  14.582  1.00  0.00     0.165 HD
HETATM    4  C   UNK N   1      35.376  10.676  15.626  0.00  0.00     0.042 A 
HETATM    5  C   UNK N   1      35.036  10.059  14.415  0.00  0.00     0.017 A 
HETATM    6  C   UNK N   1      36.364  10.113  16.436  0.00  0.00     0.047 A 
HETATM    7  C   UNK N   1      35.706   8.871  14.046  0.00  0.00     0.046 A 
HETATM    8  C   UNK N   1      34.077  10.613  13.556  0.00  0.00     0.018 A 
HETATM    9  C   UNK N   1      36.990   8.931  16.041  0.00  0.00     0.090 A 
HETATM   10  C   UNK N   1      35.400   8.251  12.832  0.00  0.00     0.054 A 
HETATM   11  C   UNK N   1      33.777   9.984  12.345  0.00  0.00     0.025 A 
HETATM   12  C   UNK N   1      34.437   8.805  11.985  0.00  0.00     0.036 A 
ENDROOT
BRANCH   4  13
HETATM   13  N   UNK N   1      34.807  11.914  15.981  0.00  0.00    -0.385 N 
HETATM   14  H   UNK N   1      33.837  12.068  15.926  0.00  0.00     0.160 HD
BRANCH  13  15
HETATM   15  C   UNK N   1      35.704  12.940  16.427  0.00  0.00     0.077 C 
HETATM   16  C   UNK N   1      35.185  13.754  17.600  0.00  0.00     0.032 C 
BRANCH  15  17
HETATM   17  C   UNK N   1      36.464  13.610  15.285  0.00  0.00     0.026 C 
BRANCH  17  18
HETATM   18  C   UNK N   1      35.666  13.787  14.008  0.00  0.00     0.032 C 
BRANCH  18  19
HETATM   19  C   UNK N   1      36.516  13.663  12.736  0.00  0.00     0.272 C 
BRANCH  19  20
HETATM   20  N   UNK N   1      35.754  13.085  11.620  0.00  0.00     0.087 N 
BRANCH  20  21
HETATM   21  C   UNK N   1      36.545  12.021  10.988  0.00  0.00     0.268 C 
HETATM   22  C   UNK N   1      37.550  11.444  11.967  0.00  0.00     0.037 C 
ENDBRANCH  20  21
BRANCH  20  23
HETATM   23  C   UNK N   1      35.416  14.196  10.718  0.00  0.00     0.268 C 
HETATM   24  C   UNK N   1      36.336  15.409  10.793  0.00  0.00     0.037 C 
ENDBRANCH  20  23
ENDBRANCH  19  20
ENDBRANCH  18  19
ENDBRANCH  17  18
ENDBRANCH  15  17
ENDBRANCH  13  15
ENDBRANCH   4  13
TORSDOF 8
ENDMDL
MODEL 7
REMARK VINA RESULT:      -4.9     12.292     14.923
REMARK  8 active torsions:
REMARK  status: ('A' for Active; 'I' for Inactive)
REMARK    1  A    between atoms: N_2  and  C_9 
REMARK    2  A    between atoms: N_2  and  C_11 
REMARK    3  A    between atoms: N_2  and  C_12 
REMARK    4  A    between atoms: N_3  and  C_8 
REMARK    5  A    between atoms: N_3  and  C_13 
REMARK    6  A    between atoms: C_6  and  C_7 
REMARK    7  A    between atoms: C_6  and  C_8 
REMARK    8  A    between atoms: C_7  and  C_9 
ROOT
HETATM    1 Cl   UNK N   1      25.931  22.553  -9.147  0.00  0.00    -0.084 Cl
HETATM    2  N   UNK N   1      26.677  24.030  -4.308  0.00  0.00    -0.365 N 
ATOM      3  HN  UNK N   1      26.908  23.058  -4.104  1.00  0.00     0.165 HD
HETATM    4  C   UNK N   1      26.047  26.672  -4.856  0.00  0.00     0.042 A 
HETATM    5  C   UNK N   1      25.999  25.717  -5.880  0.00  0.00     0.017 A 
HETATM    6  C   UNK N   1      26.421  26.287  -3.567  0.00  0.00     0.047 A 
HETATM    7  C   UNK N   1      26.328  24.377  -5.575  0.00  0.00     0.046 A 
HETATM    8  C   UNK N   1      25.665  26.069  -7.194  0.00  0.00     0.018 A 
HETATM    9  C   UNK N   1      26.725  24.951  -3.306  0.00  0.00     0.090 A 
HETATM   10  C   UNK N   1      26.309  23.411  -6.585  0.00  0.00     0.054 A 
HETATM   11  C   UNK N   1      25.647  25.096  -8.196  0.00  0.00     0.025 A 
HETATM   12  C   UNK N   1      25.967  23.770  -7.891  0.00  0.00     0.036 A 
ENDROOT
BRANCH   4  13
HETATM   13  N   UNK N   1      25.827  28.033  -5.139  0.00  0.00    -0.385 N 
HETATM   14  H   UNK N   1      24.952  28.358  -5.453  0.00  0.00     0.160 HD
BRANCH  13  15
HETATM   15  C   UNK N   1      26.932  28.927  -4.948  0.00  0.00     0.077 C 
HETATM   16  C   UNK N   1      26.616  30.132  -4.078  0.00  0.00     0.032 C 
BRANCH  15  17
HETATM   17  C   UNK N   1      27.811  29.066  -6.188  0.00  0.00     0.026 C 
BRANCH  17  18
HETATM   18  C   UNK N   1      29.293  29.210  -5.905  0.00  0.00     0.032 C 
BRANCH  18  19
HETATM   19  C   UNK N   1      29.901  27.989  -5.202  0.00  0.00     0.272 C 
BRANCH  19  20
HETATM   20  N   UNK N   1      30.844  28.377  -4.144  0.00  0.00     0.087 N 
BRANCH  20  21
HETATM   21  C   UNK N   1      31.025  27.253  -3.215  0.00  0.00     0.268 C 
HETATM   22  C   UNK N   1      30.339  26.007  -3.740  0.00  0.00     0.037 C 
ENDBRANCH  20  21
BRANCH  20  23
HETATM   23  C   UNK N   1      30.299  29.591  -3.516  0.00  0.00     0.268 C 
HETATM   24  C   UNK N   1      29.713  29.404  -2.121  0.00  0.00     0.037 C 
ENDBRANCH  20  23
ENDBRANCH  19  20
ENDBRANCH  18  19
ENDBRANCH  17  18
ENDBRANCH  15  17
ENDBRANCH  13  15
ENDBRANCH   4  13
TORSDOF 8
ENDMDL
MODEL 8
REMARK VINA RESULT:      -4.9     10.567     14.043
REMARK  8 active torsions:
REMARK  status: ('A' for Active; 'I' for Inactive)
REMARK    1  A    between atoms: N_2  and  C_9 
REMARK    2  A    between atoms: N_2  and  C_11 
REMARK    3  A    between atoms: N_2  and  C_12 
REMARK    4  A    between atoms: N_3  and  C_8 
REMARK    5  A    between atoms: N_3  and  C_13 
REMARK    6  A    between atoms: C_6  and  C_7 
REMARK    7  A    between atoms: C_6  and  C_8 
REMARK    8  A    between atoms: C_7  and  C_9 
ROOT
HETATM    1 Cl   UNK N   1      35.573   6.905  17.714  0.00  0.00    -0.084 Cl
HETATM    2  N   UNK N   1      35.310  11.665  19.565  0.00  0.00    -0.365 N 
ATOM      3  HN  UNK N   1      35.366  11.249  20.494  1.00  0.00     0.165 HD
HETATM    4  C   UNK N   1      35.156  12.801  17.043  0.00  0.00     0.042 A 
HETATM    5  C   UNK N   1      35.239  11.409  17.177  0.00  0.00     0.017 A 
HETATM    6  C   UNK N   1      35.160  13.608  18.183  0.00  0.00     0.047 A 
HETATM    7  C   UNK N   1      35.320  10.855  18.474  0.00  0.00     0.046 A 
HETATM    8  C   UNK N   1      35.275  10.568  16.057  0.00  0.00     0.018 A 
HETATM    9  C   UNK N   1      35.228  13.019  19.445  0.00  0.00     0.090 A 
HETATM   10  C   UNK N   1      35.427   9.471  18.631  0.00  0.00     0.054 A 
HETATM   11  C   UNK N   1      35.380   9.184  16.225  0.00  0.00     0.025 A 
HETATM   12  C   UNK N   1      35.455   8.638  17.510  0.00  0.00     0.036 A 
ENDROOT
BRANCH   4  13
HETATM   13  N   UNK N   1      35.177  13.399  15.768  0.00  0.00    -0.385 N 
HETATM   14  H   UNK N   1      34.345  13.642  15.301  0.00  0.00     0.160 HD
BRANCH  13  15
HETATM   15  C   UNK N   1      36.463  13.638  15.181  0.00  0.00     0.077 C 
HETATM   16  C   UNK N   1      37.158  14.889  15.692  0.00  0.00     0.032 C 
BRANCH  15  17
HETATM   17  C   UNK N   1      36.527  13.255  13.704  0.00  0.00     0.026 C 
BRANCH  17  18
HETATM   18  C   UNK N   1      35.589  14.033  12.803  0.00  0.00     0.032 C 
BRANCH  18  19
HETATM   19  C   UNK N   1      35.316  13.340  11.462  0.00  0.00     0.272 C 
BRANCH  19  20
HETATM   20  N   UNK N   1      36.175  13.861  10.389  0.00  0.00     0.087 N 
BRANCH  20  21
HETATM   21  C   UNK N   1      35.343  14.251   9.244  0.00  0.00     0.268 C 
HETATM   22  C   UNK N   1      33.871  14.067   9.561  0.00  0.00     0.037 C 
ENDBRANCH  20  21
BRANCH  20  23
HETATM   23  C   UNK N   1      37.156  12.807  10.084  0.00  0.00     0.268 C 
HETATM   24  C   UNK N   1      38.607  13.145  10.407  0.00  0.00     0.037 C 
ENDBRANCH  20  23
ENDBRANCH  19  20
ENDBRANCH  18  19
ENDBRANCH  17  18
ENDBRANCH  15  17
ENDBRANCH  13  15
ENDBRANCH   4  13
TORSDOF 8
ENDMDL
MODEL 9
REMARK VINA RESULT:      -4.9      5.424     10.134
REMARK  8 active torsions:
REMARK  status: ('A' for Active; 'I' for Inactive)
REMARK    1  A    between atoms: N_2  and  C_9 
REMARK    2  A    between atoms: N_2  and  C_11 
REMARK    3  A    between atoms: N_2  and  C_12 
REMARK    4  A    between atoms: N_3  and  C_8 
REMARK    5  A    between atoms: N_3  and  C_13 
REMARK    6  A    between atoms: C_6  and  C_7 
REMARK    7  A    between atoms: C_6  and  C_8 
REMARK    8  A    between atoms: C_7  and  C_9 
ROOT
HETATM    1 Cl   UNK N   1      27.647  17.881   6.126  0.00  0.00    -0.084 Cl
HETATM    2  N   UNK N   1      32.627  17.043   5.318  0.00  0.00    -0.365 N 
ATOM      3  HN  UNK N   1      32.438  17.206   4.328  1.00  0.00     0.165 HD
HETATM    4  C   UNK N   1      33.144  16.599   8.002  0.00  0.00     0.042 A 
HETATM    5  C   UNK N   1      31.839  16.885   7.582  0.00  0.00     0.017 A 
HETATM    6  C   UNK N   1      34.178  16.548   7.065  0.00  0.00     0.047 A 
HETATM    7  C   UNK N   1      31.602  17.111   6.208  0.00  0.00     0.046 A 
HETATM    8  C   UNK N   1      30.781  16.982   8.496  0.00  0.00     0.018 A 
HETATM    9  C   UNK N   1      33.898  16.764   5.716  0.00  0.00     0.090 A 
HETATM   10  C   UNK N   1      30.312  17.422   5.768  0.00  0.00     0.054 A 
HETATM   11  C   UNK N   1      29.495  17.290   8.046  0.00  0.00     0.025 A 
HETATM   12  C   UNK N   1      29.261  17.508   6.685  0.00  0.00     0.036 A 
ENDROOT
BRANCH   4  13
HETATM   13  N   UNK N   1      33.441  16.468   9.373  0.00  0.00    -0.385 N 
HETATM   14  H   UNK N   1      33.280  17.205  10.006  0.00  0.00     0.160 HD
BRANCH  13  15
HETATM   15  C   UNK N   1      33.988  15.215   9.806  0.00  0.00     0.077 C 
HETATM   16  C   UNK N   1      33.231  13.998   9.302  0.00  0.00     0.032 C 
BRANCH  15  17
HETATM   17  C   UNK N   1      34.537  15.262  11.229  0.00  0.00     0.026 C 
BRANCH  17  18
HETATM   18  C   UNK N   1      35.565  14.195  11.550  0.00  0.00     0.032 C 
BRANCH  18  19
HETATM   19  C   UNK N   1      35.965  14.158  13.031  0.00  0.00     0.272 C 
BRANCH  19  20
HETATM   20  N   UNK N   1      35.252  13.104  13.767  0.00  0.00     0.087 N 
BRANCH  20  21
HETATM   21  C   UNK N   1      35.841  12.960  15.105  0.00  0.00     0.268 C 
HETATM   22  C   UNK N   1      34.760  12.933  16.168  0.00  0.00     0.037 C 
ENDBRANCH  20  21
BRANCH  20  23
HETATM   23  C   UNK N   1      35.331  11.887  12.944  0.00  0.00     0.268 C 
HETATM   24  C   UNK N   1      34.196  10.887  13.136  0.00  0.00     0.037 C 
ENDBRANCH  20  23
ENDBRANCH  19  20
ENDBRANCH  18  19
ENDBRANCH  17  18
ENDBRANCH  15  17
ENDBRANCH  13  15
ENDBRANCH   4  13
TORSDOF 8
ENDMDL
