MODEL 1
REMARK VINA RESULT:      -4.6      0.000      0.000
REMARK  3 active torsions:
REMARK  status: ('A' for Active; 'I' for Inactive)
REMARK    1  A    between atoms: N_4  and  C_12 
REMARK    2  A    between atoms: C_5  and  C_6 
REMARK    3  A    between atoms: C_8  and  C_12 
ROOT
HETATM    1  N   UNK N   1      20.166  13.125  10.630  0.00  0.00    -0.369 N 
ATOM      2  HN  UNK N   1      19.166  13.145  10.830  1.00  0.00     0.165 HD
HETATM    3  C   UNK N   1      20.687  14.028   9.751  0.00  0.00     0.009 A 
HETATM    4  C   UNK N   1      22.051  14.013   9.468  0.00  0.00     0.039 A 
HETATM    5  C   UNK N   1      22.889  13.072  10.085  0.00  0.00     0.004 A 
HETATM    6  C   UNK N   1      22.325  12.156  10.983  0.00  0.00     0.031 A 
HETATM    7  C   UNK N   1      20.952  12.199  11.245  0.00  0.00     0.089 A 
ENDROOT
BRANCH   5   8
HETATM    8  C   UNK N   1      24.350  13.036   9.798  0.00  0.00     0.104 C 
HETATM    9  S   UNK N   1      24.859  13.275   8.471  0.00  0.00    -0.060 SA
BRANCH   8  10
HETATM   10  N   UNK N   1      25.265  12.763  10.840  0.00  0.00    -0.390 N 
HETATM   11  H   UNK N   1      26.152  12.391  10.631  0.00  0.00     0.157 HD
HETATM   12  H   UNK N   1      25.015  12.944  11.775  0.00  0.00     0.157 HD
ENDBRANCH   8  10
ENDBRANCH   5   8
BRANCH   3  13
HETATM   13  C   UNK N   1      19.830  15.051   9.070  0.00  0.00     0.052 C 
HETATM   14  C   UNK N   1      20.628  16.137   8.370  0.00  0.00     0.011 C 
ENDBRANCH   3  13
TORSDOF 3
ENDMDL
MODEL 2
REMARK VINA RESULT:      -4.4      1.888      3.905
REMARK  3 active torsions:
REMARK  status: ('A' for Active; 'I' for Inactive)
REMARK    1  A    between atoms: N_4  and  C_12 
REMARK    2  A    between atoms: C_5  and  C_6 
REMARK    3  A    between atoms: C_8  and  C_12 
ROOT
HETATM    1  N   UNK N   1      21.911  11.895  11.352  0.00  0.00    -0.369 N 
ATOM      2  HN  UNK N   1      22.206  11.142  11.974  1.00  0.00     0.165 HD
HETATM    3  C   UNK N   1      22.846  12.537  10.596  0.00  0.00     0.009 A 
HETATM    4  C   UNK N   1      22.458  13.567   9.742  0.00  0.00     0.039 A 
HETATM    5  C   UNK N   1      21.110  13.944   9.659  0.00  0.00     0.004 A 
HETATM    6  C   UNK N   1      20.172  13.265  10.448  0.00  0.00     0.031 A 
HETATM    7  C   UNK N   1      20.595  12.236  11.295  0.00  0.00     0.089 A 
ENDROOT
BRANCH   5   8
HETATM    8  C   UNK N   1      20.671  15.042   8.753  0.00  0.00     0.104 C 
HETATM    9  S   UNK N   1      21.421  15.383   7.571  0.00  0.00    -0.060 SA
BRANCH   8  10
HETATM   10  N   UNK N   1      19.497  15.771   9.049  0.00  0.00    -0.390 N 
HETATM   11  H   UNK N   1      19.348  16.116   9.960  0.00  0.00     0.157 HD
HETATM   12  H   UNK N   1      18.828  15.935   8.346  0.00  0.00     0.157 HD
ENDBRANCH   8  10
ENDBRANCH   5   8
BRANCH   3  13
HETATM   13  C   UNK N   1      24.297  12.168  10.653  0.00  0.00     0.052 C 
HETATM   14  C   UNK N   1      25.199  13.157   9.937  0.00  0.00     0.011 C 
ENDBRANCH   3  13
TORSDOF 3
ENDMDL
MODEL 3
REMARK VINA RESULT:      -4.4     12.823     14.741
REMARK  3 active torsions:
REMARK  status: ('A' for Active; 'I' for Inactive)
REMARK    1  A    between atoms: N_4  and  C_12 
REMARK    2  A    between atoms: C_5  and  C_6 
REMARK    3  A    between atoms: C_8  and  C_12 
ROOT
HETATM    1  N   UNK N   1      37.422  12.688  13.078  0.00  0.00    -0.369 N 
ATOM      2  HN  UNK N   1      38.052  12.056  13.573  1.00  0.00     0.165 HD
HETATM    3  C   UNK N   1      36.701  13.601  13.788  0.00  0.00     0.009 A 
HETATM    4  C   UNK N   1      35.837  14.469  13.124  0.00  0.00     0.039 A 
HETATM    5  C   UNK N   1      35.709  14.407  11.729  0.00  0.00     0.004 A 
HETATM    6  C   UNK N   1      36.463  13.458  11.026  0.00  0.00     0.031 A 
HETATM    7  C   UNK N   1      37.321  12.601  11.723  0.00  0.00     0.089 A 
ENDROOT
BRANCH   5   8
HETATM    8  C   UNK N   1      34.792  15.326  10.998  0.00  0.00     0.104 C 
HETATM    9  S   UNK N   1      35.263  16.570  10.445  0.00  0.00    -0.060 SA
BRANCH   8  10
HETATM   10  N   UNK N   1      33.431  14.980  10.837  0.00  0.00    -0.390 N 
HETATM   11  H   UNK N   1      33.141  14.478  10.041  0.00  0.00     0.157 HD
HETATM   12  H   UNK N   1      32.773  15.240  11.521  0.00  0.00     0.157 HD
ENDBRANCH   8  10
ENDBRANCH   5   8
BRANCH   3  13
HETATM   13  C   UNK N   1      36.806  13.703  15.279  0.00  0.00     0.052 C 
HETATM   14  C   UNK N   1      37.253  15.071  15.759  0.00  0.00     0.011 C 
ENDBRANCH   3  13
TORSDOF 3
ENDMDL
MODEL 4
REMARK VINA RESULT:      -4.3      8.507      9.291
REMARK  3 active torsions:
REMARK  status: ('A' for Active; 'I' for Inactive)
REMARK    1  A    between atoms: N_4  and  C_12 
REMARK    2  A    between atoms: C_5  and  C_6 
REMARK    3  A    between atoms: C_8  and  C_12 
ROOT
HETATM    1  N   UNK N   1      28.650  18.338   4.089  0.00  0.00    -0.369 N 
ATOM      2  HN  UNK N   1      28.628  18.306   3.070  1.00  0.00     0.165 HD
HETATM    3  C   UNK N   1      27.885  19.258   4.743  0.00  0.00     0.009 A 
HETATM    4  C   UNK N   1      27.905  19.312   6.135  0.00  0.00     0.039 A 
HETATM    5  C   UNK N   1      28.708  18.423   6.864  0.00  0.00     0.004 A 
HETATM    6  C   UNK N   1      29.483  17.489   6.164  0.00  0.00     0.031 A 
HETATM    7  C   UNK N   1      29.441  17.461   4.767  0.00  0.00     0.089 A 
ENDROOT
BRANCH   5   8
HETATM    8  C   UNK N   1      28.746  18.462   8.353  0.00  0.00     0.104 C 
HETATM    9  S   UNK N   1      29.994  18.528   9.069  0.00  0.00    -0.060 SA
BRANCH   8  10
HETATM   10  N   UNK N   1      27.539  18.435   9.087  0.00  0.00    -0.390 N 
HETATM   11  H   UNK N   1      26.731  18.032   8.693  0.00  0.00     0.157 HD
HETATM   12  H   UNK N   1      27.504  18.819   9.993  0.00  0.00     0.157 HD
ENDBRANCH   8  10
ENDBRANCH   5   8
BRANCH   3  13
HETATM   13  C   UNK N   1      27.012  20.226   4.005  0.00  0.00     0.052 C 
HETATM   14  C   UNK N   1      25.763  19.589   3.423  0.00  0.00     0.011 C 
ENDBRANCH   3  13
TORSDOF 3
ENDMDL
MODEL 5
REMARK VINA RESULT:      -4.3      2.138      2.925
REMARK  3 active torsions:
REMARK  status: ('A' for Active; 'I' for Inactive)
REMARK    1  A    between atoms: N_4  and  C_12 
REMARK    2  A    between atoms: C_5  and  C_6 
REMARK    3  A    between atoms: C_8  and  C_12 
ROOT
HETATM    1  N   UNK N   1      20.670  14.483   7.259  0.00  0.00    -0.369 N 
ATOM      2  HN  UNK N   1      20.407  14.988   6.412  1.00  0.00     0.165 HD
HETATM    3  C   UNK N   1      20.560  15.105   8.467  0.00  0.00     0.009 A 
HETATM    4  C   UNK N   1      20.915  14.426   9.630  0.00  0.00     0.039 A 
HETATM    5  C   UNK N   1      21.386  13.107   9.561  0.00  0.00     0.004 A 
HETATM    6  C   UNK N   1      21.488  12.494   8.306  0.00  0.00     0.031 A 
HETATM    7  C   UNK N   1      21.123  13.203   7.157  0.00  0.00     0.089 A 
ENDROOT
BRANCH   5   8
HETATM    8  C   UNK N   1      21.772  12.361  10.792  0.00  0.00     0.104 C 
HETATM    9  S   UNK N   1      23.152  12.073  11.091  0.00  0.00    -0.060 SA
BRANCH   8  10
HETATM   10  N   UNK N   1      20.774  11.923  11.691  0.00  0.00    -0.390 N 
HETATM   11  H   UNK N   1      19.867  12.303  11.644  0.00  0.00     0.157 HD
HETATM   12  H   UNK N   1      20.985  11.237  12.365  0.00  0.00     0.157 HD
ENDBRANCH   8  10
ENDBRANCH   5   8
BRANCH   3  13
HETATM   13  C   UNK N   1      20.062  16.512   8.587  0.00  0.00     0.052 C 
HETATM   14  C   UNK N   1      18.638  16.607   9.105  0.00  0.00     0.011 C 
ENDBRANCH   3  13
TORSDOF 3
ENDMDL
MODEL 6
REMARK VINA RESULT:      -4.3      9.868     11.484
REMARK  3 active torsions:
REMARK  status: ('A' for Active; 'I' for Inactive)
REMARK    1  A    between atoms: N_4  and  C_12 
REMARK    2  A    between atoms: C_5  and  C_6 
REMARK    3  A    between atoms: C_8  and  C_12 
ROOT
HETATM    1  N   UNK N   1      32.655  17.653   8.824  0.00  0.00    -0.369 N 
ATOM      2  HN  UNK N   1      32.701  17.787   9.834  1.00  0.00     0.165 HD
HETATM    3  C   UNK N   1      31.454  17.368   8.244  0.00  0.00     0.009 A 
HETATM    4  C   UNK N   1      31.377  17.182   6.866  0.00  0.00     0.039 A 
HETATM    5  C   UNK N   1      32.530  17.287   6.074  0.00  0.00     0.004 A 
HETATM    6  C   UNK N   1      33.750  17.580   6.698  0.00  0.00     0.031 A 
HETATM    7  C   UNK N   1      33.793  17.761   8.084  0.00  0.00     0.089 A 
ENDROOT
BRANCH   5   8
HETATM    8  C   UNK N   1      32.473  17.092   4.599  0.00  0.00     0.104 C 
HETATM    9  S   UNK N   1      33.244  16.063   3.948  0.00  0.00    -0.060 SA
BRANCH   8  10
HETATM   10  N   UNK N   1      31.649  17.927   3.811  0.00  0.00    -0.390 N 
HETATM   11  H   UNK N   1      30.738  18.149   4.114  0.00  0.00     0.157 HD
HETATM   12  H   UNK N   1      31.984  18.287   2.958  0.00  0.00     0.157 HD
ENDBRANCH   8  10
ENDBRANCH   5   8
BRANCH   3  13
HETATM   13  C   UNK N   1      30.197  17.247   9.050  0.00  0.00     0.052 C 
HETATM   14  C   UNK N   1      29.705  18.573   9.602  0.00  0.00     0.011 C 
ENDBRANCH   3  13
TORSDOF 3
ENDMDL
MODEL 7
REMARK VINA RESULT:      -4.2      7.980      9.799
REMARK  3 active torsions:
REMARK  status: ('A' for Active; 'I' for Inactive)
REMARK    1  A    between atoms: N_4  and  C_12 
REMARK    2  A    between atoms: C_5  and  C_6 
REMARK    3  A    between atoms: C_8  and  C_12 
ROOT
HETATM    1  N   UNK N   1      30.656  18.096   9.488  0.00  0.00    -0.369 N 
ATOM      2  HN  UNK N   1      31.346  18.208  10.231  1.00  0.00     0.165 HD
HETATM    3  C   UNK N   1      31.039  17.542   8.302  0.00  0.00     0.009 A 
HETATM    4  C   UNK N   1      30.108  17.384   7.279  0.00  0.00     0.039 A 
HETATM    5  C   UNK N   1      28.779  17.792   7.465  0.00  0.00     0.004 A 
HETATM    6  C   UNK N   1      28.415  18.357   8.694  0.00  0.00     0.031 A 
HETATM    7  C   UNK N   1      29.375  18.502   9.701  0.00  0.00     0.089 A 
ENDROOT
BRANCH   5   8
HETATM    8  C   UNK N   1      27.766  17.632   6.385  0.00  0.00     0.104 C 
HETATM    9  S   UNK N   1      27.914  18.298   5.115  0.00  0.00    -0.060 SA
BRANCH   8  10
HETATM   10  N   UNK N   1      26.633  16.815   6.598  0.00  0.00    -0.390 N 
HETATM   11  H   UNK N   1      26.440  16.069   5.984  0.00  0.00     0.157 HD
HETATM   12  H   UNK N   1      26.035  16.990   7.361  0.00  0.00     0.157 HD
ENDBRANCH   8  10
ENDBRANCH   5   8
BRANCH   3  13
HETATM   13  C   UNK N   1      32.448  17.092   8.060  0.00  0.00     0.052 C 
HETATM   14  C   UNK N   1      33.445  18.235   8.007  0.00  0.00     0.011 C 
ENDBRANCH   3  13
TORSDOF 3
ENDMDL
MODEL 8
REMARK VINA RESULT:      -4.2      8.850     11.161
REMARK  3 active torsions:
REMARK  status: ('A' for Active; 'I' for Inactive)
REMARK    1  A    between atoms: N_4  and  C_12 
REMARK    2  A    between atoms: C_5  and  C_6 
REMARK    3  A    between atoms: C_8  and  C_12 
ROOT
HETATM    1  N   UNK N   1      32.645  17.403   6.258  0.00  0.00    -0.369 N 
ATOM      2  HN  UNK N   1      33.396  17.363   5.568  1.00  0.00     0.165 HD
HETATM    3  C   UNK N   1      32.942  17.743   7.544  0.00  0.00     0.009 A 
HETATM    4  C   UNK N   1      31.927  17.802   8.497  0.00  0.00     0.039 A 
HETATM    5  C   UNK N   1      30.603  17.513   8.136  0.00  0.00     0.004 A 
HETATM    6  C   UNK N   1      30.329  17.167   6.806  0.00  0.00     0.031 A 
HETATM    7  C   UNK N   1      31.371  17.117   5.875  0.00  0.00     0.089 A 
ENDROOT
BRANCH   5   8
HETATM    8  C   UNK N   1      29.502  17.569   9.137  0.00  0.00     0.104 C 
HETATM    9  S   UNK N   1      28.261  18.243   8.849  0.00  0.00    -0.060 SA
BRANCH   8  10
HETATM   10  N   UNK N   1      29.665  16.952  10.398  0.00  0.00    -0.390 N 
HETATM   11  H   UNK N   1      30.285  16.193  10.498  0.00  0.00     0.157 HD
HETATM   12  H   UNK N   1      29.161  17.281  11.177  0.00  0.00     0.157 HD
ENDBRANCH   8  10
ENDBRANCH   5   8
BRANCH   3  13
HETATM   13  C   UNK N   1      34.342  18.059   7.975  0.00  0.00     0.052 C 
HETATM   14  C   UNK N   1      34.782  17.291   9.207  0.00  0.00     0.011 C 
ENDBRANCH   3  13
TORSDOF 3
ENDMDL
MODEL 9
REMARK VINA RESULT:      -4.1     13.670     15.754
REMARK  3 active torsions:
REMARK  status: ('A' for Active; 'I' for Inactive)
REMARK    1  A    between atoms: N_4  and  C_12 
REMARK    2  A    between atoms: C_5  and  C_6 
REMARK    3  A    between atoms: C_8  and  C_12 
ROOT
HETATM    1  N   UNK N   1      34.981  12.656  16.478  0.00  0.00    -0.369 N 
ATOM      2  HN  UNK N   1      34.861  13.088  15.562  1.00  0.00     0.165 HD
HETATM    3  C   UNK N   1      35.003  11.296  16.575  0.00  0.00     0.009 A 
HETATM    4  C   UNK N   1      35.166  10.693  17.820  0.00  0.00     0.039 A 
HETATM    5  C   UNK N   1      35.308  11.480  18.972  0.00  0.00     0.004 A 
HETATM    6  C   UNK N   1      35.281  12.874  18.841  0.00  0.00     0.031 A 
HETATM    7  C   UNK N   1      35.116  13.448  17.576  0.00  0.00     0.089 A 
ENDROOT
BRANCH   5   8
HETATM    8  C   UNK N   1      35.483  10.857  20.313  0.00  0.00     0.104 C 
HETATM    9  S   UNK N   1      34.456  10.031  20.896  0.00  0.00    -0.060 SA
BRANCH   8  10
HETATM   10  N   UNK N   1      36.677  11.074  21.039  0.00  0.00    -0.390 N 
HETATM   11  H   UNK N   1      36.749  11.843  21.650  0.00  0.00     0.157 HD
HETATM   12  H   UNK N   1      37.437  10.457  20.933  0.00  0.00     0.157 HD
ENDBRANCH   8  10
ENDBRANCH   5   8
BRANCH   3  13
HETATM   13  C   UNK N   1      34.855  10.417  15.371  0.00  0.00     0.052 C 
HETATM   14  C   UNK N   1      33.630  10.739  14.535  0.00  0.00     0.011 C 
ENDBRANCH   3  13
TORSDOF 3
ENDMDL
