REMARK  5 active torsions:
REMARK  status: ('A' for Active; 'I' for Inactive)
REMARK    1  A    between atoms: C_4  and  O_1 
REMARK    2  A    between atoms: O_2  and  C_10 
REMARK    3  A    between atoms: C_5  and  N_3 
REMARK    4  A    between atoms: C_4  and  C_5 
REMARK    5  A    between atoms: C_4  and  C_6 
ROOT
HETATM    1  C   UNK N   1       3.018  -0.119  -0.238  0.00  0.00    -0.025 A 
HETATM    2  C   UNK N   1       1.720  -0.605  -0.000  0.00  0.00     0.046 A 
HETATM    3  C   UNK N   1       4.080  -1.034  -0.320  0.00  0.00     0.010 A 
HETATM    4  C   UNK N   1       1.493  -1.976   0.159  0.00  0.00     0.066 A 
HETATM    5  C   UNK N   1       3.854  -2.402  -0.143  0.00  0.00     0.003 A 
HETATM    6  C   UNK N   1       2.561  -2.873   0.092  0.00  0.00     0.036 A 
ENDROOT
BRANCH   1   7
HETATM    7  C   UNK N   1       3.259   1.361  -0.464  0.00  0.00     0.173 C 
BRANCH   7   8
HETATM    8  O   UNK N   1       2.061   2.073  -0.324  0.00  0.00    -0.389 OA
HETATM    9  H   UNK N   1       2.074   3.038  -0.227  0.00  0.00     0.210 HD
ENDBRANCH   7   8
BRANCH   7  10
HETATM   10  C   UNK N   1       4.326   1.971   0.457  0.00  0.00     0.103 C 
HETATM   11  C   UNK N   1       5.707   1.427   0.132  0.00  0.00     0.034 C 
BRANCH  10  12
HETATM   12  N   UNK N   1       4.363   3.414   0.284  0.00  0.00    -0.424 N 
HETATM   13  H   UNK N   1       5.252   3.897   0.162  0.00  0.00     0.150 HD
HETATM   14  H   UNK N   1       3.493   3.946   0.284  0.00  0.00     0.150 HD
ENDBRANCH  10  12
ENDBRANCH   7  10
ENDBRANCH   1   7
BRANCH   4  15
HETATM   15  O   UNK N   1       0.247  -2.430   0.366  0.00  0.00    -0.361 OA
HETATM   16  H   UNK N   1      -0.463  -1.836   0.511  0.00  0.00     0.217 HD
ENDBRANCH   4  15
TORSDOF 5
