MODEL 1
REMARK VINA RESULT:      -4.9      0.000      0.000
REMARK  5 active torsions:
REMARK  status: ('A' for Active; 'I' for Inactive)
REMARK    1  A    between atoms: C_4  and  O_1 
REMARK    2  A    between atoms: O_2  and  C_10 
REMARK    3  A    between atoms: C_5  and  N_3 
REMARK    4  A    between atoms: C_4  and  C_5 
REMARK    5  A    between atoms: C_4  and  C_6 
ROOT
HETATM    1  C   UNK N   1      31.275  17.411   7.737  0.00  0.00    -0.025 A 
HETATM    2  C   UNK N   1      32.350  18.085   8.343  0.00  0.00     0.046 A 
HETATM    3  C   UNK N   1      31.472  16.812   6.482  0.00  0.00     0.010 A 
HETATM    4  C   UNK N   1      33.591  18.162   7.704  0.00  0.00     0.066 A 
HETATM    5  C   UNK N   1      32.708  16.905   5.837  0.00  0.00     0.003 A 
HETATM    6  C   UNK N   1      33.768  17.575   6.449  0.00  0.00     0.036 A 
ENDROOT
BRANCH   1   7
HETATM    7  C   UNK N   1      29.943  17.281   8.451  0.00  0.00     0.173 C 
BRANCH   7   8
HETATM    8  O   UNK N   1      30.147  17.106   9.825  0.00  0.00    -0.389 OA
HETATM    9  H   UNK N   1      30.046  16.229  10.228  0.00  0.00     0.210 HD
ENDBRANCH   7   8
BRANCH   7  10
HETATM   10  C   UNK N   1      28.989  18.462   8.222  0.00  0.00     0.103 C 
HETATM   11  C   UNK N   1      28.399  18.427   6.822  0.00  0.00     0.034 C 
BRANCH  10  12
HETATM   12  N   UNK N   1      27.890  18.402   9.171  0.00  0.00    -0.424 N 
HETATM   13  H   UNK N   1      27.665  17.529   9.646  0.00  0.00     0.150 HD
HETATM   14  H   UNK N   1      27.341  19.240   9.363  0.00  0.00     0.150 HD
ENDBRANCH  10  12
ENDBRANCH   7  10
ENDBRANCH   1   7
BRANCH   4  15
HETATM   15  O   UNK N   1      34.616  18.790   8.302  0.00  0.00    -0.361 OA
HETATM   16  H   UNK N   1      34.516  19.170   9.153  0.00  0.00     0.217 HD
ENDBRANCH   4  15
TORSDOF 5
ENDMDL
MODEL 2
REMARK VINA RESULT:      -4.9      3.119      4.708
REMARK  5 active torsions:
REMARK  status: ('A' for Active; 'I' for Inactive)
REMARK    1  A    between atoms: C_4  and  O_1 
REMARK    2  A    between atoms: O_2  and  C_10 
REMARK    3  A    between atoms: C_5  and  N_3 
REMARK    4  A    between atoms: C_4  and  C_5 
REMARK    5  A    between atoms: C_4  and  C_6 
ROOT
HETATM    1  C   UNK N   1      28.262  19.045   7.267  0.00  0.00    -0.025 A 
HETATM    2  C   UNK N   1      28.676  18.217   6.209  0.00  0.00     0.046 A 
HETATM    3  C   UNK N   1      27.554  20.222   6.970  0.00  0.00     0.010 A 
HETATM    4  C   UNK N   1      28.395  18.564   4.883  0.00  0.00     0.066 A 
HETATM    5  C   UNK N   1      27.289  20.575   5.644  0.00  0.00     0.003 A 
HETATM    6  C   UNK N   1      27.706  19.745   4.602  0.00  0.00     0.036 A 
ENDROOT
BRANCH   1   7
HETATM    7  C   UNK N   1      28.519  18.646   8.707  0.00  0.00     0.173 C 
BRANCH   7   8
HETATM    8  O   UNK N   1      27.346  18.145   9.286  0.00  0.00    -0.389 OA
HETATM    9  H   UNK N   1      26.512  18.632   9.202  0.00  0.00     0.210 HD
ENDBRANCH   7   8
BRANCH   7  10
HETATM   10  C   UNK N   1      29.651  17.623   8.882  0.00  0.00     0.103 C 
HETATM   11  C   UNK N   1      31.013  18.288   8.764  0.00  0.00     0.034 C 
BRANCH  10  12
HETATM   12  N   UNK N   1      29.567  17.011  10.198  0.00  0.00    -0.424 N 
HETATM   13  H   UNK N   1      30.244  16.305  10.484  0.00  0.00     0.150 HD
HETATM   14  H   UNK N   1      28.824  17.290  10.839  0.00  0.00     0.150 HD
ENDBRANCH  10  12
ENDBRANCH   7  10
ENDBRANCH   1   7
BRANCH   4  15
HETATM   15  O   UNK N   1      28.778  17.755   3.883  0.00  0.00    -0.361 OA
HETATM   16  H   UNK N   1      28.312  17.742   3.070  0.00  0.00     0.217 HD
ENDBRANCH   4  15
TORSDOF 5
ENDMDL
MODEL 3
REMARK VINA RESULT:      -4.9     10.588     11.638
REMARK  5 active torsions:
REMARK  status: ('A' for Active; 'I' for Inactive)
REMARK    1  A    between atoms: C_4  and  O_1 
REMARK    2  A    between atoms: O_2  and  C_10 
REMARK    3  A    between atoms: C_5  and  N_3 
REMARK    4  A    between atoms: C_4  and  C_5 
REMARK    5  A    between atoms: C_4  and  C_6 
ROOT
HETATM    1  C   UNK N   1      35.515  12.395  16.397  0.00  0.00    -0.025 A 
HETATM    2  C   UNK N   1      35.392  13.676  16.964  0.00  0.00     0.046 A 
HETATM    3  C   UNK N   1      35.478  11.274  17.241  0.00  0.00     0.010 A 
HETATM    4  C   UNK N   1      35.243  13.830  18.346  0.00  0.00     0.066 A 
HETATM    5  C   UNK N   1      35.347  11.430  18.624  0.00  0.00     0.003 A 
HETATM    6  C   UNK N   1      35.225  12.707  19.175  0.00  0.00     0.036 A 
ENDROOT
BRANCH   1   7
HETATM    7  C   UNK N   1      35.623  12.223  14.894  0.00  0.00     0.173 C 
BRANCH   7   8
HETATM    8  O   UNK N   1      34.659  13.006  14.247  0.00  0.00    -0.389 OA
HETATM    9  H   UNK N   1      34.373  13.848  14.633  0.00  0.00     0.210 HD
ENDBRANCH   7   8
BRANCH   7  10
HETATM   10  C   UNK N   1      37.011  12.548  14.323  0.00  0.00     0.103 C 
HETATM   11  C   UNK N   1      37.555  11.387  13.508  0.00  0.00     0.034 C 
BRANCH  10  12
HETATM   12  N   UNK N   1      36.929  13.707  13.449  0.00  0.00    -0.424 N 
HETATM   13  H   UNK N   1      36.660  13.599  12.472  0.00  0.00     0.150 HD
HETATM   14  H   UNK N   1      37.140  14.634  13.817  0.00  0.00     0.150 HD
ENDBRANCH  10  12
ENDBRANCH   7  10
ENDBRANCH   1   7
BRANCH   4  15
HETATM   15  O   UNK N   1      35.106  15.057  18.874  0.00  0.00    -0.361 OA
HETATM   16  H   UNK N   1      35.705  15.743  18.655  0.00  0.00     0.217 HD
ENDBRANCH   4  15
TORSDOF 5
ENDMDL
MODEL 4
REMARK VINA RESULT:      -4.9      9.767     10.982
REMARK  5 active torsions:
REMARK  status: ('A' for Active; 'I' for Inactive)
REMARK    1  A    between atoms: C_4  and  O_1 
REMARK    2  A    between atoms: O_2  and  C_10 
REMARK    3  A    between atoms: C_5  and  N_3 
REMARK    4  A    between atoms: C_4  and  C_5 
REMARK    5  A    between atoms: C_4  and  C_6 
ROOT
HETATM    1  C   UNK N   1      21.225  13.533   9.828  0.00  0.00    -0.025 A 
HETATM    2  C   UNK N   1      22.623  13.586   9.685  0.00  0.00     0.046 A 
HETATM    3  C   UNK N   1      20.675  12.699  10.815  0.00  0.00     0.010 A 
HETATM    4  C   UNK N   1      23.451  12.817  10.510  0.00  0.00     0.066 A 
HETATM    5  C   UNK N   1      21.504  11.917  11.626  0.00  0.00     0.003 A 
HETATM    6  C   UNK N   1      22.890  11.980  11.476  0.00  0.00     0.036 A 
ENDROOT
BRANCH   1   7
HETATM    7  C   UNK N   1      20.327  14.405   8.972  0.00  0.00     0.173 C 
BRANCH   7   8
HETATM    8  O   UNK N   1      19.093  14.598   9.605  0.00  0.00    -0.389 OA
HETATM    9  H   UNK N   1      18.910  15.424  10.079  0.00  0.00     0.210 HD
ENDBRANCH   7   8
BRANCH   7  10
HETATM   10  C   UNK N   1      20.935  15.770   8.614  0.00  0.00     0.103 C 
HETATM   11  C   UNK N   1      21.341  15.822   7.150  0.00  0.00     0.034 C 
BRANCH  10  12
HETATM   12  N   UNK N   1      19.960  16.822   8.844  0.00  0.00    -0.424 N 
HETATM   13  H   UNK N   1      20.148  17.777   8.542  0.00  0.00     0.150 HD
HETATM   14  H   UNK N   1      19.080  16.603   9.311  0.00  0.00     0.150 HD
ENDBRANCH  10  12
ENDBRANCH   7  10
ENDBRANCH   1   7
BRANCH   4  15
HETATM   15  O   UNK N   1      24.784  12.892  10.378  0.00  0.00    -0.361 OA
HETATM   16  H   UNK N   1      25.313  13.272  11.051  0.00  0.00     0.217 HD
ENDBRANCH   4  15
TORSDOF 5
ENDMDL
MODEL 5
REMARK VINA RESULT:      -4.8      3.963      4.937
REMARK  5 active torsions:
REMARK  status: ('A' for Active; 'I' for Inactive)
REMARK    1  A    between atoms: C_4  and  O_1 
REMARK    2  A    between atoms: O_2  and  C_10 
REMARK    3  A    between atoms: C_5  and  N_3 
REMARK    4  A    between atoms: C_4  and  C_5 
REMARK    5  A    between atoms: C_4  and  C_6 
ROOT
HETATM    1  C   UNK N   1      33.999  15.985   9.267  0.00  0.00    -0.025 A 
HETATM    2  C   UNK N   1      34.744  17.175   9.344  0.00  0.00     0.046 A 
HETATM    3  C   UNK N   1      33.111  15.809   8.193  0.00  0.00     0.010 A 
HETATM    4  C   UNK N   1      34.598  18.169   8.370  0.00  0.00     0.066 A 
HETATM    5  C   UNK N   1      32.953  16.811   7.231  0.00  0.00     0.003 A 
HETATM    6  C   UNK N   1      33.699  17.988   7.317  0.00  0.00     0.036 A 
ENDROOT
BRANCH   1   7
HETATM    7  C   UNK N   1      34.194  14.885  10.291  0.00  0.00     0.173 C 
BRANCH   7   8
HETATM    8  O   UNK N   1      33.127  14.872  11.198  0.00  0.00    -0.389 OA
HETATM    9  H   UNK N   1      32.261  15.223  10.939  0.00  0.00     0.210 HD
ENDBRANCH   7   8
BRANCH   7  10
HETATM   10  C   UNK N   1      34.364  13.484   9.683  0.00  0.00     0.103 C 
HETATM   11  C   UNK N   1      35.732  13.327   9.042  0.00  0.00     0.034 C 
BRANCH  10  12
HETATM   12  N   UNK N   1      34.240  12.475  10.722  0.00  0.00    -0.424 N 
HETATM   13  H   UNK N   1      33.641  12.637  11.531  0.00  0.00     0.150 HD
HETATM   14  H   UNK N   1      34.755  11.599  10.641  0.00  0.00     0.150 HD
ENDBRANCH  10  12
ENDBRANCH   7  10
ENDBRANCH   1   7
BRANCH   4  15
HETATM   15  O   UNK N   1      35.330  19.292   8.442  0.00  0.00    -0.361 OA
HETATM   16  H   UNK N   1      35.414  19.859   7.701  0.00  0.00     0.217 HD
ENDBRANCH   4  15
TORSDOF 5
ENDMDL
MODEL 6
REMARK VINA RESULT:      -4.8      7.363      8.322
REMARK  5 active torsions:
REMARK  status: ('A' for Active; 'I' for Inactive)
REMARK    1  A    between atoms: C_4  and  O_1 
REMARK    2  A    between atoms: O_2  and  C_10 
REMARK    3  A    between atoms: C_5  and  N_3 
REMARK    4  A    between atoms: C_4  and  C_5 
REMARK    5  A    between atoms: C_4  and  C_6 
ROOT
HETATM    1  C   UNK N   1      35.434  13.869  12.937  0.00  0.00    -0.025 A 
HETATM    2  C   UNK N   1      36.387  14.599  13.669  0.00  0.00     0.046 A 
HETATM    3  C   UNK N   1      34.855  12.732  13.524  0.00  0.00     0.010 A 
HETATM    4  C   UNK N   1      36.756  14.196  14.956  0.00  0.00     0.066 A 
HETATM    5  C   UNK N   1      35.238  12.320  14.803  0.00  0.00     0.003 A 
HETATM    6  C   UNK N   1      36.184  13.054  15.521  0.00  0.00     0.036 A 
ENDROOT
BRANCH   1   7
HETATM    7  C   UNK N   1      34.992  14.334  11.563  0.00  0.00     0.173 C 
BRANCH   7   8
HETATM    8  O   UNK N   1      33.649  14.730  11.595  0.00  0.00    -0.389 OA
HETATM    9  H   UNK N   1      33.318  15.278  12.324  0.00  0.00     0.210 HD
ENDBRANCH   7   8
BRANCH   7  10
HETATM   10  C   UNK N   1      35.846  15.470  10.981  0.00  0.00     0.103 C 
HETATM   11  C   UNK N   1      36.296  15.148   9.565  0.00  0.00     0.034 C 
BRANCH  10  12
HETATM   12  N   UNK N   1      35.070  16.698  10.933  0.00  0.00    -0.424 N 
HETATM   13  H   UNK N   1      34.054  16.671  11.009  0.00  0.00     0.150 HD
HETATM   14  H   UNK N   1      35.546  17.594  10.825  0.00  0.00     0.150 HD
ENDBRANCH  10  12
ENDBRANCH   7  10
ENDBRANCH   1   7
BRANCH   4  15
HETATM   15  O   UNK N   1      37.652  14.913  15.652  0.00  0.00    -0.361 OA
HETATM   16  H   UNK N   1      38.457  14.528  15.938  0.00  0.00     0.217 HD
ENDBRANCH   4  15
TORSDOF 5
ENDMDL
MODEL 7
REMARK VINA RESULT:      -4.8     15.159     16.375
REMARK  5 active torsions:
REMARK  status: ('A' for Active; 'I' for Inactive)
REMARK    1  A    between atoms: C_4  and  O_1 
REMARK    2  A    between atoms: O_2  and  C_10 
REMARK    3  A    between atoms: C_5  and  N_3 
REMARK    4  A    between atoms: C_4  and  C_5 
REMARK    5  A    between atoms: C_4  and  C_6 
ROOT
HETATM    1  C   UNK N   1      26.039  26.766  -4.702  0.00  0.00    -0.025 A 
HETATM    2  C   UNK N   1      26.519  26.016  -3.614  0.00  0.00     0.046 A 
HETATM    3  C   UNK N   1      25.611  26.088  -5.856  0.00  0.00     0.010 A 
HETATM    4  C   UNK N   1      26.577  24.620  -3.682  0.00  0.00     0.066 A 
HETATM    5  C   UNK N   1      25.686  24.694  -5.929  0.00  0.00     0.003 A 
HETATM    6  C   UNK N   1      26.164  23.961  -4.842  0.00  0.00     0.036 A 
ENDROOT
BRANCH   1   7
HETATM    7  C   UNK N   1      25.926  28.275  -4.610  0.00  0.00     0.173 C 
BRANCH   7   8
HETATM    8  O   UNK N   1      25.383  28.645  -3.373  0.00  0.00    -0.389 OA
HETATM    9  H   UNK N   1      25.719  29.425  -2.906  0.00  0.00     0.210 HD
ENDBRANCH   7   8
BRANCH   7  10
HETATM   10  C   UNK N   1      27.252  29.019  -4.829  0.00  0.00     0.103 C 
HETATM   11  C   UNK N   1      27.701  28.924  -6.277  0.00  0.00     0.034 C 
BRANCH  10  12
HETATM   12  N   UNK N   1      27.090  30.426  -4.503  0.00  0.00    -0.424 N 
HETATM   13  H   UNK N   1      26.501  30.711  -3.721  0.00  0.00     0.150 HD
HETATM   14  H   UNK N   1      27.569  31.133  -5.060  0.00  0.00     0.150 HD
ENDBRANCH  10  12
ENDBRANCH   7  10
ENDBRANCH   1   7
BRANCH   4  15
HETATM   15  O   UNK N   1      27.019  23.914  -2.630  0.00  0.00    -0.361 OA
HETATM   16  H   UNK N   1      27.881  24.049  -2.289  0.00  0.00     0.217 HD
ENDBRANCH   4  15
TORSDOF 5
ENDMDL
MODEL 8
REMARK VINA RESULT:      -4.8     16.688     17.327
REMARK  5 active torsions:
REMARK  status: ('A' for Active; 'I' for Inactive)
REMARK    1  A    between atoms: C_4  and  O_1 
REMARK    2  A    between atoms: O_2  and  C_10 
REMARK    3  A    between atoms: C_5  and  N_3 
REMARK    4  A    between atoms: C_4  and  C_5 
REMARK    5  A    between atoms: C_4  and  C_6 
ROOT
HETATM    1  C   UNK N   1      26.162  27.723  -5.239  0.00  0.00    -0.025 A 
HETATM    2  C   UNK N   1      25.540  26.481  -5.458  0.00  0.00     0.046 A 
HETATM    3  C   UNK N   1      27.072  28.203  -6.195  0.00  0.00     0.010 A 
HETATM    4  C   UNK N   1      25.829  25.733  -6.604  0.00  0.00     0.066 A 
HETATM    5  C   UNK N   1      27.373  27.446  -7.331  0.00  0.00     0.003 A 
HETATM    6  C   UNK N   1      26.749  26.215  -7.538  0.00  0.00     0.036 A 
ENDROOT
BRANCH   1   7
HETATM    7  C   UNK N   1      25.810  28.560  -4.024  0.00  0.00     0.173 C 
BRANCH   7   8
HETATM    8  O   UNK N   1      25.454  27.731  -2.953  0.00  0.00    -0.389 OA
HETATM    9  H   UNK N   1      24.835  28.046  -2.276  0.00  0.00     0.210 HD
ENDBRANCH   7   8
BRANCH   7  10
HETATM   10  C   UNK N   1      26.924  29.519  -3.579  0.00  0.00     0.103 C 
HETATM   11  C   UNK N   1      26.443  30.960  -3.587  0.00  0.00     0.034 C 
BRANCH  10  12
HETATM   12  N   UNK N   1      27.344  29.196  -2.225  0.00  0.00    -0.424 N 
HETATM   13  H   UNK N   1      26.734  29.397  -1.434  0.00  0.00     0.150 HD
HETATM   14  H   UNK N   1      28.254  28.765  -2.067  0.00  0.00     0.150 HD
ENDBRANCH  10  12
ENDBRANCH   7  10
ENDBRANCH   1   7
BRANCH   4  15
HETATM   15  O   UNK N   1      25.214  24.558  -6.811  0.00  0.00    -0.361 OA
HETATM   16  H   UNK N   1      24.288  24.518  -6.948  0.00  0.00     0.217 HD
ENDBRANCH   4  15
TORSDOF 5
ENDMDL
MODEL 9
REMARK VINA RESULT:      -4.6      1.682      2.101
REMARK  5 active torsions:
REMARK  status: ('A' for Active; 'I' for Inactive)
REMARK    1  A    between atoms: C_4  and  O_1 
REMARK    2  A    between atoms: O_2  and  C_10 
REMARK    3  A    between atoms: C_5  and  N_3 
REMARK    4  A    between atoms: C_4  and  C_5 
REMARK    5  A    between atoms: C_4  and  C_6 
ROOT
HETATM    1  C   UNK N   1      31.839  17.218   8.147  0.00  0.00    -0.025 A 
HETATM    2  C   UNK N   1      32.799  18.235   8.000  0.00  0.00     0.046 A 
HETATM    3  C   UNK N   1      32.220  16.006   8.745  0.00  0.00     0.010 A 
HETATM    4  C   UNK N   1      34.114  18.038   8.437  0.00  0.00     0.066 A 
HETATM    5  C   UNK N   1      33.538  15.805   9.165  0.00  0.00     0.003 A 
HETATM    6  C   UNK N   1      34.483  16.822   9.015  0.00  0.00     0.036 A 
ENDROOT
BRANCH   1   7
HETATM    7  C   UNK N   1      30.401  17.448   7.723  0.00  0.00     0.173 C 
BRANCH   7   8
HETATM    8  O   UNK N   1      30.021  16.497   6.767  0.00  0.00    -0.389 OA
HETATM    9  H   UNK N   1      29.776  16.776   5.871  0.00  0.00     0.210 HD
ENDBRANCH   7   8
BRANCH   7  10
HETATM   10  C   UNK N   1      29.395  17.434   8.884  0.00  0.00     0.103 C 
HETATM   11  C   UNK N   1      29.622  18.609   9.820  0.00  0.00     0.034 C 
BRANCH  10  12
HETATM   12  N   UNK N   1      28.040  17.533   8.365  0.00  0.00    -0.424 N 
HETATM   13  H   UNK N   1      27.256  17.689   8.997  0.00  0.00     0.150 HD
HETATM   14  H   UNK N   1      27.874  17.445   7.363  0.00  0.00     0.150 HD
ENDBRANCH  10  12
ENDBRANCH   7  10
ENDBRANCH   1   7
BRANCH   4  15
HETATM   15  O   UNK N   1      35.017  19.023   8.310  0.00  0.00    -0.361 OA
HETATM   16  H   UNK N   1      34.800  19.906   8.534  0.00  0.00     0.217 HD
ENDBRANCH   4  15
TORSDOF 5
ENDMDL
