MODEL 1
REMARK VINA RESULT:      -6.9      0.000      0.000
REMARK  4 active torsions:
REMARK  status: ('A' for Active; 'I' for Inactive)
REMARK    1  A    between atoms: C_5  and  O_1 
REMARK    2  A    between atoms: O_2  and  C_23 
REMARK    3  A    between atoms: N_3  and  C_16 
REMARK    4  A    between atoms: C_16  and  C_17 
ROOT
HETATM    1  N   UNK N   1      29.589  24.613  -3.934  0.00  0.00     0.096 N 
HETATM    2  C   UNK N   1      26.925  25.500  -4.726  0.00  0.00     0.022 C 
HETATM    3  C   UNK N   1      28.160  26.439  -4.888  0.00  0.00     0.101 C 
HETATM    4  C   UNK N   1      29.395  25.545  -5.095  0.00  0.00     0.262 C 
HETATM    5  C   UNK N   1      27.114  24.803  -3.384  0.00  0.00     0.048 C 
HETATM    6  C   UNK N   1      25.595  26.293  -4.730  0.00  0.00     0.017 C 
HETATM    7  C   UNK N   1      27.940  27.405  -6.067  0.00  0.00     0.041 C 
HETATM    8  C   UNK N   1      26.855  24.395  -5.793  0.00  0.00    -0.037 A 
HETATM    9  C   UNK N   1      28.378  23.932  -3.433  0.00  0.00     0.274 C 
HETATM   10  C   UNK N   1      29.262  24.835  -6.455  0.00  0.00     0.078 C 
HETATM   11  C   UNK N   1      25.765  27.812  -4.756  0.00  0.00     0.001 C 
HETATM   12  C   UNK N   1      26.654  28.241  -5.928  0.00  0.00     0.003 C 
HETATM   13  C   UNK N   1      27.976  24.099  -6.607  0.00  0.00    -0.049 A 
HETATM   14  C   UNK N   1      25.722  23.570  -5.887  0.00  0.00     0.045 A 
HETATM   15  C   UNK N   1      27.926  23.043  -7.518  0.00  0.00     0.010 A 
HETATM   16  C   UNK N   1      25.685  22.508  -6.798  0.00  0.00     0.066 A 
HETATM   17  C   UNK N   1      26.783  22.254  -7.620  0.00  0.00     0.037 A 
ENDROOT
BRANCH   1  18
HETATM   18  C   UNK N   1      30.507  23.501  -4.210  0.00  0.00     0.277 C 
BRANCH  18  19
HETATM   19  C   UNK N   1      29.930  22.111  -3.979  0.00  0.00     0.014 A 
HETATM   20  C   UNK N   1      30.146  21.305  -5.247  0.00  0.00     0.006 A 
HETATM   21  C   UNK N   1      31.241  20.504  -4.573  0.00  0.00     0.001 A 
HETATM   22  C   UNK N   1      30.983  21.259  -3.287  0.00  0.00     0.006 A 
ENDBRANCH  18  19
ENDBRANCH   1  18
BRANCH   3  23
HETATM   23  O   UNK N   1      28.353  27.215  -3.733  0.00  0.00    -0.386 OA
HETATM   24  H   UNK N   1      29.001  27.918  -3.569  0.00  0.00     0.210 HD
ENDBRANCH   3  23
BRANCH  16  25
HETATM   25  O   UNK N   1      24.599  21.725  -6.874  0.00  0.00    -0.361 OA
HETATM   26  H   UNK N   1      24.635  20.795  -6.767  0.00  0.00     0.217 HD
ENDBRANCH  16  25
TORSDOF 4
ENDMDL
MODEL 2
REMARK VINA RESULT:      -6.5      2.336      4.650
REMARK  4 active torsions:
REMARK  status: ('A' for Active; 'I' for Inactive)
REMARK    1  A    between atoms: C_5  and  O_1 
REMARK    2  A    between atoms: O_2  and  C_23 
REMARK    3  A    between atoms: N_3  and  C_16 
REMARK    4  A    between atoms: C_16  and  C_17 
ROOT
HETATM    1  N   UNK N   1      25.956  24.598  -6.545  0.00  0.00     0.096 N 
HETATM    2  C   UNK N   1      27.490  26.839  -5.478  0.00  0.00     0.022 C 
HETATM    3  C   UNK N   1      25.979  26.667  -5.129  0.00  0.00     0.101 C 
HETATM    4  C   UNK N   1      25.660  25.163  -5.185  0.00  0.00     0.262 C 
HETATM    5  C   UNK N   1      27.613  26.483  -6.955  0.00  0.00     0.048 C 
HETATM    6  C   UNK N   1      27.974  28.289  -5.239  0.00  0.00     0.017 C 
HETATM    7  C   UNK N   1      25.683  27.271  -3.744  0.00  0.00     0.041 C 
HETATM    8  C   UNK N   1      28.405  25.869  -4.711  0.00  0.00    -0.037 A 
HETATM    9  C   UNK N   1      27.235  25.008  -7.159  0.00  0.00     0.274 C 
HETATM   10  C   UNK N   1      26.408  24.462  -4.036  0.00  0.00     0.078 C 
HETATM   11  C   UNK N   1      26.868  29.269  -4.847  0.00  0.00     0.001 C 
HETATM   12  C   UNK N   1      26.087  28.753  -3.635  0.00  0.00     0.003 C 
HETATM   13  C   UNK N   1      27.870  24.749  -4.029  0.00  0.00    -0.049 A 
HETATM   14  C   UNK N   1      29.802  26.003  -4.786  0.00  0.00     0.045 A 
HETATM   15  C   UNK N   1      28.717  23.834  -3.403  0.00  0.00     0.010 A 
HETATM   16  C   UNK N   1      30.643  25.075  -4.162  0.00  0.00     0.066 A 
HETATM   17  C   UNK N   1      30.098  23.999  -3.461  0.00  0.00     0.037 A 
ENDROOT
BRANCH   1  18
HETATM   18  C   UNK N   1      26.026  23.131  -6.577  0.00  0.00     0.277 C 
BRANCH  18  19
HETATM   19  C   UNK N   1      25.196  22.466  -7.666  0.00  0.00     0.014 A 
HETATM   20  C   UNK N   1      26.120  21.568  -8.467  0.00  0.00     0.006 A 
HETATM   21  C   UNK N   1      25.506  20.338  -7.832  0.00  0.00     0.001 A 
HETATM   22  C   UNK N   1      24.537  21.226  -7.082  0.00  0.00     0.006 A 
ENDBRANCH  18  19
ENDBRANCH   1  18
BRANCH   3  23
HETATM   23  O   UNK N   1      25.172  27.335  -6.066  0.00  0.00    -0.386 OA
HETATM   24  H   UNK N   1      24.210  27.458  -6.067  0.00  0.00     0.210 HD
ENDBRANCH   3  23
BRANCH  16  25
HETATM   25  O   UNK N   1      31.974  25.212  -4.246  0.00  0.00    -0.361 OA
HETATM   26  H   UNK N   1      32.573  24.630  -3.821  0.00  0.00     0.217 HD
ENDBRANCH  16  25
TORSDOF 4
ENDMDL
MODEL 3
REMARK VINA RESULT:      -6.4      2.825      4.404
REMARK  4 active torsions:
REMARK  status: ('A' for Active; 'I' for Inactive)
REMARK    1  A    between atoms: C_5  and  O_1 
REMARK    2  A    between atoms: O_2  and  C_23 
REMARK    3  A    between atoms: N_3  and  C_16 
REMARK    4  A    between atoms: C_16  and  C_17 
ROOT
HETATM    1  N   UNK N   1      26.028  25.353  -4.498  0.00  0.00     0.096 N 
HETATM    2  C   UNK N   1      26.717  28.157  -4.916  0.00  0.00     0.022 C 
HETATM    3  C   UNK N   1      26.891  27.492  -3.515  0.00  0.00     0.101 C 
HETATM    4  C   UNK N   1      27.158  25.994  -3.745  0.00  0.00     0.262 C 
HETATM    5  C   UNK N   1      25.400  27.620  -5.464  0.00  0.00     0.048 C 
HETATM    6  C   UNK N   1      26.660  29.701  -4.817  0.00  0.00     0.017 C 
HETATM    7  C   UNK N   1      28.036  28.173  -2.744  0.00  0.00     0.041 C 
HETATM    8  C   UNK N   1      27.811  27.757  -5.920  0.00  0.00    -0.037 A 
HETATM    9  C   UNK N   1      25.510  26.101  -5.662  0.00  0.00     0.274 C 
HETATM   10  C   UNK N   1      28.532  25.842  -4.424  0.00  0.00     0.078 C 
HETATM   11  C   UNK N   1      26.652  30.242  -3.387  0.00  0.00     0.001 C 
HETATM   12  C   UNK N   1      27.837  29.692  -2.588  0.00  0.00     0.003 C 
HETATM   13  C   UNK N   1      28.665  26.657  -5.664  0.00  0.00    -0.049 A 
HETATM   14  C   UNK N   1      27.893  28.393  -7.171  0.00  0.00     0.045 A 
HETATM   15  C   UNK N   1      29.603  26.255  -6.617  0.00  0.00     0.010 A 
HETATM   16  C   UNK N   1      28.830  27.977  -8.123  0.00  0.00     0.066 A 
HETATM   17  C   UNK N   1      29.691  26.916  -7.839  0.00  0.00     0.037 A 
ENDROOT
BRANCH   1  18
HETATM   18  C   UNK N   1      26.362  24.040  -5.067  0.00  0.00     0.277 C 
BRANCH  18  19
HETATM   19  C   UNK N   1      26.100  23.895  -6.560  0.00  0.00     0.014 A 
HETATM   20  C   UNK N   1      27.409  23.505  -7.221  0.00  0.00     0.006 A 
HETATM   21  C   UNK N   1      26.908  22.090  -7.422  0.00  0.00     0.001 A 
HETATM   22  C   UNK N   1      25.577  22.491  -6.824  0.00  0.00     0.006 A 
ENDBRANCH  18  19
ENDBRANCH   1  18
BRANCH   3  23
HETATM   23  O   UNK N   1      25.721  27.629  -2.749  0.00  0.00    -0.386 OA
HETATM   24  H   UNK N   1      24.886  28.064  -2.981  0.00  0.00     0.210 HD
ENDBRANCH   3  23
BRANCH  16  25
HETATM   25  O   UNK N   1      28.895  28.589  -9.314  0.00  0.00    -0.361 OA
HETATM   26  H   UNK N   1      29.271  28.187 -10.072  0.00  0.00     0.217 HD
ENDBRANCH  16  25
TORSDOF 4
ENDMDL
MODEL 4
REMARK VINA RESULT:      -6.4     10.492     12.610
REMARK  4 active torsions:
REMARK  status: ('A' for Active; 'I' for Inactive)
REMARK    1  A    between atoms: C_5  and  O_1 
REMARK    2  A    between atoms: O_2  and  C_23 
REMARK    3  A    between atoms: N_3  and  C_16 
REMARK    4  A    between atoms: C_16  and  C_17 
ROOT
HETATM    1  N   UNK N   1      28.014  17.709   6.762  0.00  0.00     0.096 N 
HETATM    2  C   UNK N   1      26.215  17.698   4.466  0.00  0.00     0.022 C 
HETATM    3  C   UNK N   1      26.827  19.032   4.995  0.00  0.00     0.101 C 
HETATM    4  C   UNK N   1      28.182  18.694   5.641  0.00  0.00     0.262 C 
HETATM    5  C   UNK N   1      25.848  16.895   5.709  0.00  0.00     0.048 C 
HETATM    6  C   UNK N   1      24.954  17.945   3.603  0.00  0.00     0.017 C 
HETATM    7  C   UNK N   1      26.972  20.041   3.841  0.00  0.00     0.041 C 
HETATM    8  C   UNK N   1      27.213  16.844   3.666  0.00  0.00    -0.037 A 
HETATM    9  C   UNK N   1      27.124  16.561   6.497  0.00  0.00     0.274 C 
HETATM   10  C   UNK N   1      29.149  18.230   4.536  0.00  0.00     0.078 C 
HETATM   11  C   UNK N   1      24.497  19.404   3.555  0.00  0.00     0.001 C 
HETATM   12  C   UNK N   1      25.643  20.319   3.114  0.00  0.00     0.003 C 
HETATM   13  C   UNK N   1      28.602  17.118   3.710  0.00  0.00    -0.049 A 
HETATM   14  C   UNK N   1      26.777  15.695   2.984  0.00  0.00     0.045 A 
HETATM   15  C   UNK N   1      29.505  16.289   3.042  0.00  0.00     0.010 A 
HETATM   16  C   UNK N   1      27.691  14.866   2.325  0.00  0.00     0.066 A 
HETATM   17  C   UNK N   1      29.053  15.171   2.345  0.00  0.00     0.037 A 
ENDROOT
BRANCH   1  18
HETATM   18  C   UNK N   1      29.268  17.068   7.183  0.00  0.00     0.277 C 
BRANCH  18  19
HETATM   19  C   UNK N   1      29.562  17.137   8.675  0.00  0.00     0.014 A 
HETATM   20  C   UNK N   1      30.852  17.917   8.855  0.00  0.00     0.006 A 
HETATM   21  C   UNK N   1      30.080  19.110   9.378  0.00  0.00     0.001 A 
HETATM   22  C   UNK N   1      28.798  18.314   9.264  0.00  0.00     0.006 A 
ENDBRANCH  18  19
ENDBRANCH   1  18
BRANCH   3  23
HETATM   23  O   UNK N   1      25.995  19.613   5.966  0.00  0.00    -0.386 OA
HETATM   24  H   UNK N   1      25.764  20.546   6.095  0.00  0.00     0.210 HD
ENDBRANCH   3  23
BRANCH  16  25
HETATM   25  O   UNK N   1      27.263  13.770   1.683  0.00  0.00    -0.361 OA
HETATM   26  H   UNK N   1      26.410  13.405   1.815  0.00  0.00     0.217 HD
ENDBRANCH  16  25
TORSDOF 4
ENDMDL
MODEL 5
REMARK VINA RESULT:      -6.3     18.155     21.428
REMARK  4 active torsions:
REMARK  status: ('A' for Active; 'I' for Inactive)
REMARK    1  A    between atoms: C_5  and  O_1 
REMARK    2  A    between atoms: O_2  and  C_23 
REMARK    3  A    between atoms: N_3  and  C_16 
REMARK    4  A    between atoms: C_16  and  C_17 
ROOT
HETATM    1  N   UNK N   1      34.597  12.266  11.884  0.00  0.00     0.096 N 
HETATM    2  C   UNK N   1      35.165  14.088   9.677  0.00  0.00     0.022 C 
HETATM    3  C   UNK N   1      34.807  14.636  11.093  0.00  0.00     0.101 C 
HETATM    4  C   UNK N   1      35.265  13.589  12.124  0.00  0.00     0.262 C 
HETATM    5  C   UNK N   1      34.235  12.902   9.449  0.00  0.00     0.048 C 
HETATM    6  C   UNK N   1      34.948  15.153   8.576  0.00  0.00     0.017 C 
HETATM    7  C   UNK N   1      35.479  16.002  11.318  0.00  0.00     0.041 C 
HETATM    8  C   UNK N   1      36.602  13.548   9.579  0.00  0.00    -0.037 A 
HETATM    9  C   UNK N   1      34.539  11.807  10.482  0.00  0.00     0.274 C 
HETATM   10  C   UNK N   1      36.804  13.528  12.106  0.00  0.00     0.078 C 
HETATM   11  C   UNK N   1      34.313  16.453   9.070  0.00  0.00     0.001 C 
HETATM   12  C   UNK N   1      35.110  17.039  10.240  0.00  0.00     0.003 C 
HETATM   13  C   UNK N   1      37.364  13.294  10.746  0.00  0.00    -0.049 A 
HETATM   14  C   UNK N   1      37.135  13.171   8.335  0.00  0.00     0.045 A 
HETATM   15  C   UNK N   1      38.638  12.731  10.647  0.00  0.00     0.010 A 
HETATM   16  C   UNK N   1      38.409  12.599   8.247  0.00  0.00     0.066 A 
HETATM   17  C   UNK N   1      39.163  12.392   9.403  0.00  0.00     0.037 A 
ENDROOT
BRANCH   1  18
HETATM   18  C   UNK N   1      35.238  11.141  12.577  0.00  0.00     0.277 C 
BRANCH  18  19
HETATM   19  C   UNK N   1      34.290  10.214  13.325  0.00  0.00     0.014 A 
HETATM   20  C   UNK N   1      35.117   9.396  14.299  0.00  0.00     0.006 A 
HETATM   21  C   UNK N   1      34.578  10.201  15.463  0.00  0.00     0.001 A 
HETATM   22  C   UNK N   1      33.701  10.975  14.504  0.00  0.00     0.006 A 
ENDBRANCH  18  19
ENDBRANCH   1  18
BRANCH   3  23
HETATM   23  O   UNK N   1      33.419  14.817  11.221  0.00  0.00    -0.386 OA
HETATM   24  H   UNK N   1      32.799  14.384  11.828  0.00  0.00     0.210 HD
ENDBRANCH   3  23
BRANCH  16  25
HETATM   25  O   UNK N   1      38.904  12.240   7.054  0.00  0.00    -0.361 OA
HETATM   26  H   UNK N   1      38.513  12.500   6.243  0.00  0.00     0.217 HD
ENDBRANCH  16  25
TORSDOF 4
ENDMDL
MODEL 6
REMARK VINA RESULT:      -6.3     11.682     13.328
REMARK  4 active torsions:
REMARK  status: ('A' for Active; 'I' for Inactive)
REMARK    1  A    between atoms: C_5  and  O_1 
REMARK    2  A    between atoms: O_2  and  C_23 
REMARK    3  A    between atoms: N_3  and  C_16 
REMARK    4  A    between atoms: C_16  and  C_17 
ROOT
HETATM    1  N   UNK N   1      23.675  16.892   4.899  0.00  0.00     0.096 N 
HETATM    2  C   UNK N   1      21.128  16.319   3.597  0.00  0.00     0.022 C 
HETATM    3  C   UNK N   1      21.286  16.173   5.142  0.00  0.00     0.101 C 
HETATM    4  C   UNK N   1      22.372  17.166   5.592  0.00  0.00     0.262 C 
HETATM    5  C   UNK N   1      22.416  15.765   2.999  0.00  0.00     0.048 C 
HETATM    6  C   UNK N   1      19.911  15.524   3.065  0.00  0.00     0.017 C 
HETATM    7  C   UNK N   1      19.938  16.433   5.839  0.00  0.00     0.041 C 
HETATM    8  C   UNK N   1      21.017  17.781   3.132  0.00  0.00    -0.037 A 
HETATM    9  C   UNK N   1      23.602  16.632   3.447  0.00  0.00     0.274 C 
HETATM   10  C   UNK N   1      21.840  18.597   5.387  0.00  0.00     0.078 C 
HETATM   11  C   UNK N   1      19.206  14.668   4.118  0.00  0.00     0.001 C 
HETATM   12  C   UNK N   1      18.811  15.514   5.333  0.00  0.00     0.003 C 
HETATM   13  C   UNK N   1      21.355  18.848   4.000  0.00  0.00    -0.049 A 
HETATM   14  C   UNK N   1      20.706  18.078   1.794  0.00  0.00     0.045 A 
HETATM   15  C   UNK N   1      21.325  20.166   3.543  0.00  0.00     0.010 A 
HETATM   16  C   UNK N   1      20.687  19.402   1.343  0.00  0.00     0.066 A 
HETATM   17  C   UNK N   1      20.985  20.445   2.221  0.00  0.00     0.037 A 
ENDROOT
BRANCH   1  18
HETATM   18  C   UNK N   1      24.642  17.995   4.991  0.00  0.00     0.277 C 
BRANCH  18  19
HETATM   19  C   UNK N   1      25.200  18.481   3.661  0.00  0.00     0.014 A 
HETATM   20  C   UNK N   1      25.024  19.988   3.610  0.00  0.00     0.006 A 
HETATM   21  C   UNK N   1      26.509  20.187   3.828  0.00  0.00     0.001 A 
HETATM   22  C   UNK N   1      26.699  18.687   3.813  0.00  0.00     0.006 A 
ENDBRANCH  18  19
ENDBRANCH   1  18
BRANCH   3  23
HETATM   23  O   UNK N   1      21.696  14.872   5.481  0.00  0.00    -0.386 OA
HETATM   24  H   UNK N   1      22.524  14.416   5.264  0.00  0.00     0.210 HD
ENDBRANCH   3  23
BRANCH  16  25
HETATM   25  O   UNK N   1      20.394  19.672   0.062  0.00  0.00    -0.361 OA
HETATM   26  H   UNK N   1      20.642  19.109  -0.645  0.00  0.00     0.217 HD
ENDBRANCH  16  25
TORSDOF 4
ENDMDL
MODEL 7
REMARK VINA RESULT:      -6.3     12.559     14.581
REMARK  4 active torsions:
REMARK  status: ('A' for Active; 'I' for Inactive)
REMARK    1  A    between atoms: C_5  and  O_1 
REMARK    2  A    between atoms: O_2  and  C_23 
REMARK    3  A    between atoms: N_3  and  C_16 
REMARK    4  A    between atoms: C_16  and  C_17 
ROOT
HETATM    1  N   UNK N   1      32.312  14.791   4.520  0.00  0.00     0.096 N 
HETATM    2  C   UNK N   1      32.074  16.163   7.083  0.00  0.00     0.022 C 
HETATM    3  C   UNK N   1      33.303  16.413   6.154  0.00  0.00     0.101 C 
HETATM    4  C   UNK N   1      32.840  16.184   4.705  0.00  0.00     0.262 C 
HETATM    5  C   UNK N   1      31.801  14.665   7.007  0.00  0.00     0.048 C 
HETATM    6  C   UNK N   1      32.365  16.576   8.546  0.00  0.00     0.017 C 
HETATM    7  C   UNK N   1      33.848  17.836   6.371  0.00  0.00     0.041 C 
HETATM    8  C   UNK N   1      30.795  16.871   6.605  0.00  0.00    -0.037 A 
HETATM    9  C   UNK N   1      31.405  14.290   5.572  0.00  0.00     0.274 C 
HETATM   10  C   UNK N   1      31.836  17.291   4.332  0.00  0.00     0.078 C 
HETATM   11  C   UNK N   1      33.808  17.009   8.805  0.00  0.00     0.001 C 
HETATM   12  C   UNK N   1      34.226  18.120   7.837  0.00  0.00     0.003 C 
HETATM   13  C   UNK N   1      30.705  17.404   5.296  0.00  0.00    -0.049 A 
HETATM   14  C   UNK N   1      29.645  16.882   7.414  0.00  0.00     0.045 A 
HETATM   15  C   UNK N   1      29.514  17.975   4.847  0.00  0.00     0.010 A 
HETATM   16  C   UNK N   1      28.453  17.449   6.951  0.00  0.00     0.066 A 
HETATM   17  C   UNK N   1      28.393  18.005   5.673  0.00  0.00     0.037 A 
ENDROOT
BRANCH   1  18
HETATM   18  C   UNK N   1      31.529  14.610   3.290  0.00  0.00     0.277 C 
BRANCH  18  19
HETATM   19  C   UNK N   1      30.094  14.144   3.498  0.00  0.00     0.014 A 
HETATM   20  C   UNK N   1      29.190  15.071   2.707  0.00  0.00     0.006 A 
HETATM   21  C   UNK N   1      28.949  13.987   1.676  0.00  0.00     0.001 A 
HETATM   22  C   UNK N   1      29.796  13.039   2.496  0.00  0.00     0.006 A 
ENDBRANCH  18  19
ENDBRANCH   1  18
BRANCH   3  23
HETATM   23  O   UNK N   1      34.339  15.510   6.445  0.00  0.00    -0.386 OA
HETATM   24  H   UNK N   1      34.369  14.550   6.313  0.00  0.00     0.210 HD
ENDBRANCH   3  23
BRANCH  16  25
HETATM   25  O   UNK N   1      27.362  17.449   7.731  0.00  0.00    -0.361 OA
HETATM   26  H   UNK N   1      27.226  18.076   8.414  0.00  0.00     0.217 HD
ENDBRANCH  16  25
TORSDOF 4
ENDMDL
MODEL 8
REMARK VINA RESULT:      -6.2      1.574      5.152
REMARK  4 active torsions:
REMARK  status: ('A' for Active; 'I' for Inactive)
REMARK    1  A    between atoms: C_5  and  O_1 
REMARK    2  A    between atoms: O_2  and  C_23 
REMARK    3  A    between atoms: N_3  and  C_16 
REMARK    4  A    between atoms: C_16  and  C_17 
ROOT
HETATM    1  N   UNK N   1      30.252  25.882  -4.971  0.00  0.00     0.096 N 
HETATM    2  C   UNK N   1      29.649  23.107  -5.642  0.00  0.00     0.022 C 
HETATM    3  C   UNK N   1      30.432  23.462  -4.339  0.00  0.00     0.101 C 
HETATM    4  C   UNK N   1      29.983  24.866  -3.898  0.00  0.00     0.262 C 
HETATM    5  C   UNK N   1      30.202  24.035  -6.718  0.00  0.00     0.048 C 
HETATM    6  C   UNK N   1      29.859  21.631  -6.055  0.00  0.00     0.017 C 
HETATM    7  C   UNK N   1      30.166  22.402  -3.256  0.00  0.00     0.041 C 
HETATM    8  C   UNK N   1      28.141  23.393  -5.542  0.00  0.00    -0.037 A 
HETATM    9  C   UNK N   1      29.887  25.492  -6.347  0.00  0.00     0.274 C 
HETATM   10  C   UNK N   1      28.508  24.791  -3.460  0.00  0.00     0.078 C 
HETATM   11  C   UNK N   1      30.874  20.873  -5.199  0.00  0.00     0.001 C 
HETATM   12  C   UNK N   1      30.517  20.973  -3.713  0.00  0.00     0.003 C 
HETATM   13  C   UNK N   1      27.620  24.191  -4.495  0.00  0.00    -0.049 A 
HETATM   14  C   UNK N   1      27.271  22.978  -6.565  0.00  0.00     0.045 A 
HETATM   15  C   UNK N   1      26.261  24.508  -4.459  0.00  0.00     0.010 A 
HETATM   16  C   UNK N   1      25.912  23.308  -6.525  0.00  0.00     0.066 A 
HETATM   17  C   UNK N   1      25.408  24.062  -5.465  0.00  0.00     0.037 A 
ENDROOT
BRANCH   1  18
HETATM   18  C   UNK N   1      29.536  27.150  -4.782  0.00  0.00     0.277 C 
BRANCH  18  19
HETATM   19  C   UNK N   1      28.607  27.546  -5.922  0.00  0.00     0.014 A 
HETATM   20  C   UNK N   1      27.265  27.912  -5.317  0.00  0.00     0.006 A 
HETATM   21  C   UNK N   1      27.526  29.381  -5.578  0.00  0.00     0.001 A 
HETATM   22  C   UNK N   1      28.836  29.016  -6.242  0.00  0.00     0.006 A 
ENDBRANCH  18  19
ENDBRANCH   1  18
BRANCH   3  23
HETATM   23  O   UNK N   1      31.816  23.487  -4.580  0.00  0.00    -0.386 OA
HETATM   24  H   UNK N   1      32.453  22.755  -4.565  0.00  0.00     0.210 HD
ENDBRANCH   3  23
BRANCH  16  25
HETATM   25  O   UNK N   1      25.095  22.910  -7.510  0.00  0.00    -0.361 OA
HETATM   26  H   UNK N   1      25.300  23.023  -8.417  0.00  0.00     0.217 HD
ENDBRANCH  16  25
TORSDOF 4
ENDMDL
MODEL 9
REMARK VINA RESULT:      -6.1     22.753     26.092
REMARK  4 active torsions:
REMARK  status: ('A' for Active; 'I' for Inactive)
REMARK    1  A    between atoms: C_5  and  O_1 
REMARK    2  A    between atoms: O_2  and  C_23 
REMARK    3  A    between atoms: N_3  and  C_16 
REMARK    4  A    between atoms: C_16  and  C_17 
ROOT
HETATM    1  N   UNK N   1      36.032   9.047  15.668  0.00  0.00     0.096 N 
HETATM    2  C   UNK N   1      36.543  11.100  13.659  0.00  0.00     0.022 C 
HETATM    3  C   UNK N   1      35.389  10.067  13.470  0.00  0.00     0.101 C 
HETATM    4  C   UNK N   1      34.910   9.648  14.870  0.00  0.00     0.262 C 
HETATM    5  C   UNK N   1      37.712  10.308  14.235  0.00  0.00     0.048 C 
HETATM    6  C   UNK N   1      36.955  11.755  12.319  0.00  0.00     0.017 C 
HETATM    7  C   UNK N   1      34.256  10.687  12.632  0.00  0.00     0.041 C 
HETATM    8  C   UNK N   1      36.211  12.203  14.678  0.00  0.00    -0.037 A 
HETATM    9  C   UNK N   1      37.325   9.758  15.616  0.00  0.00     0.274 C 
HETATM   10  C   UNK N   1      34.242  10.862  15.542  0.00  0.00     0.078 C 
HETATM   11  C   UNK N   1      36.256  11.173  11.090  0.00  0.00     0.001 C 
HETATM   12  C   UNK N   1      34.735  11.204  11.262  0.00  0.00     0.003 C 
HETATM   13  C   UNK N   1      35.111  12.072  15.559  0.00  0.00    -0.049 A 
HETATM   14  C   UNK N   1      37.075  13.300  14.842  0.00  0.00     0.045 A 
HETATM   15  C   UNK N   1      34.866  13.044  16.531  0.00  0.00     0.010 A 
HETATM   16  C   UNK N   1      36.826  14.264  15.825  0.00  0.00     0.066 A 
HETATM   17  C   UNK N   1      35.714  14.140  16.660  0.00  0.00     0.037 A 
ENDROOT
BRANCH   1  18
HETATM   18  C   UNK N   1      35.757   8.959  17.108  0.00  0.00     0.277 C 
BRANCH  18  19
HETATM   19  C   UNK N   1      36.713   9.741  17.999  0.00  0.00     0.014 A 
HETATM   20  C   UNK N   1      35.876  10.584  18.944  0.00  0.00     0.006 A 
HETATM   21  C   UNK N   1      36.218   9.665  20.098  0.00  0.00     0.001 A 
HETATM   22  C   UNK N   1      37.107   8.860  19.175  0.00  0.00     0.006 A 
ENDBRANCH  18  19
ENDBRANCH   1  18
BRANCH   3  23
HETATM   23  O   UNK N   1      35.847   8.926  12.789  0.00  0.00    -0.386 OA
HETATM   24  H   UNK N   1      35.506   8.019  12.816  0.00  0.00     0.210 HD
ENDBRANCH   3  23
BRANCH  16  25
HETATM   25  O   UNK N   1      37.660  15.303  15.975  0.00  0.00    -0.361 OA
HETATM   26  H   UNK N   1      38.279  15.361  16.676  0.00  0.00     0.217 HD
ENDBRANCH  16  25
TORSDOF 4
ENDMDL
