REMARK  13 active torsions:
REMARK  status: ('A' for Active; 'I' for Inactive)
REMARK    1  A    between atoms: O_1  and  C_9 
REMARK    2  A    between atoms: O_1  and  C_12 
REMARK    3  A    between atoms: O_2  and  C_7 
REMARK    4  A    between atoms: O_3  and  C_14 
REMARK    5  A    between atoms: O_3  and  C_18 
REMARK    6  A    between atoms: O_4  and  C_15 
REMARK    7  A    between atoms: O_4  and  C_19 
REMARK    8  A    between atoms: N_5  and  C_6 
REMARK    9  A    between atoms: N_5  and  C_8 
REMARK   10  A    between atoms: C_6  and  C_7 
REMARK   11  A    between atoms: C_7  and  C_9 
REMARK   12  A    between atoms: C_13  and  C_14 
REMARK   13  A    between atoms: C_18  and  C_19 
ROOT
HETATM    1  C   UNK N   1       3.950   0.999  -0.152  0.00  0.00     0.068 A 
HETATM    2  C   UNK N   1       5.118  -1.548   0.086  0.00  0.00    -0.034 A 
HETATM    3  C   UNK N   1       3.211  -0.067   0.375  0.00  0.00     0.037 A 
HETATM    4  C   UNK N   1       5.278   0.779  -0.560  0.00  0.00     0.037 A 
HETATM    5  C   UNK N   1       3.791  -1.336   0.492  0.00  0.00     0.012 A 
HETATM    6  C   UNK N   1       5.856  -0.485  -0.438  0.00  0.00     0.012 A 
ENDROOT
BRANCH   1   7
HETATM    7  O   UNK N   1       3.377   2.224  -0.254  0.00  0.00    -0.349 OA
BRANCH   7   8
HETATM    8  C   UNK N   1       4.002   3.271  -0.896  0.00  0.00     0.209 C 
BRANCH   8   9
HETATM    9  C   UNK N   1       4.596   4.235   0.110  0.00  0.00     0.159 C 
BRANCH   9  10
HETATM   10  O   UNK N   1       3.658   5.218   0.427  0.00  0.00    -0.392 OA
HETATM   11  H   UNK N   1       3.924   6.125   0.647  0.00  0.00     0.210 HD
ENDBRANCH   9  10
BRANCH   9  12
HETATM   12  C   UNK N   1       5.825   4.868  -0.513  0.00  0.00     0.147 C 
BRANCH  12  13
HETATM   13  N   UNK N   1       6.518   5.699   0.457  0.00  0.00    -0.415 N 
HETATM   14  H   UNK N   1       6.191   5.945   1.391  0.00  0.00     0.153 HD
BRANCH  13  15
HETATM   15  C   UNK N   1       7.767   6.111  -0.161  0.00  0.00     0.068 C 
HETATM   16  C   UNK N   1       8.882   5.164   0.244  0.00  0.00     0.031 C 
HETATM   17  C   UNK N   1       8.115   7.515   0.286  0.00  0.00     0.031 C 
ENDBRANCH  13  15
ENDBRANCH  12  13
ENDBRANCH   9  12
ENDBRANCH   8   9
ENDBRANCH   7   8
ENDBRANCH   1   7
BRANCH   2  18
HETATM   18  C   UNK N   1       5.778  -2.888   0.209  0.00  0.00     0.206 C 
BRANCH  18  19
HETATM   19  O   UNK N   1       4.929  -3.847   0.769  0.00  0.00    -0.385 OA
BRANCH  19  20
HETATM   20  C   UNK N   1       4.829  -4.847  -0.201  0.00  0.00     0.194 C 
BRANCH  20  21
HETATM   21  C   UNK N   1       3.398  -4.950  -0.695  0.00  0.00     0.194 C 
BRANCH  21  22
HETATM   22  O   UNK N   1       2.571  -5.381   0.345  0.00  0.00    -0.385 OA
BRANCH  22  23
HETATM   23  C   UNK N   1       1.330  -5.606  -0.251  0.00  0.00     0.113 C 
HETATM   24  C   UNK N   1       0.901  -7.041  -0.016  0.00  0.00     0.039 C 
HETATM   25  C   UNK N   1       0.302  -4.660   0.336  0.00  0.00     0.039 C 
ENDBRANCH  22  23
ENDBRANCH  21  22
ENDBRANCH  20  21
ENDBRANCH  19  20
ENDBRANCH  18  19
ENDBRANCH   2  18
TORSDOF 13
