MODEL 1
REMARK VINA RESULT:      -5.8      0.000      0.000
REMARK  13 active torsions:
REMARK  status: ('A' for Active; 'I' for Inactive)
REMARK    1  A    between atoms: O_1  and  C_9 
REMARK    2  A    between atoms: O_1  and  C_12 
REMARK    3  A    between atoms: O_2  and  C_7 
REMARK    4  A    between atoms: O_3  and  C_14 
REMARK    5  A    between atoms: O_3  and  C_18 
REMARK    6  A    between atoms: O_4  and  C_15 
REMARK    7  A    between atoms: O_4  and  C_19 
REMARK    8  A    between atoms: N_5  and  C_6 
REMARK    9  A    between atoms: N_5  and  C_8 
REMARK   10  A    between atoms: C_6  and  C_7 
REMARK   11  A    between atoms: C_7  and  C_9 
REMARK   12  A    between atoms: C_13  and  C_14 
REMARK   13  A    between atoms: C_18  and  C_19 
ROOT
HETATM    1  C   UNK N   1      31.759  17.150   8.230  0.00  0.00     0.068 A 
HETATM    2  C   UNK N   1      34.105  16.034   9.306  0.00  0.00    -0.034 A 
HETATM    3  C   UNK N   1      31.741  15.857   8.766  0.00  0.00     0.037 A 
HETATM    4  C   UNK N   1      32.961  17.880   8.236  0.00  0.00     0.037 A 
HETATM    5  C   UNK N   1      32.909  15.300   9.300  0.00  0.00     0.012 A 
HETATM    6  C   UNK N   1      34.123  17.325   8.773  0.00  0.00     0.012 A 
ENDROOT
BRANCH   1   7
HETATM    7  O   UNK N   1      30.618  17.679   7.721  0.00  0.00    -0.349 OA
BRANCH   7   8
HETATM    8  C   UNK N   1      29.373  17.310   8.183  0.00  0.00     0.209 C 
BRANCH   8   9
HETATM    9  C   UNK N   1      28.608  18.520   8.678  0.00  0.00     0.159 C 
BRANCH   9  10
HETATM   10  O   UNK N   1      27.448  18.104   9.333  0.00  0.00    -0.392 OA
HETATM   11  H   UNK N   1      27.476  17.706  10.217  0.00  0.00     0.210 HD
ENDBRANCH   9  10
BRANCH   9  12
HETATM   12  C   UNK N   1      28.252  19.376   7.479  0.00  0.00     0.147 C 
BRANCH  12  13
HETATM   13  N   UNK N   1      27.078  18.847   6.805  0.00  0.00    -0.415 N 
HETATM   14  H   UNK N   1      26.537  18.027   7.079  0.00  0.00     0.153 HD
BRANCH  13  15
HETATM   15  C   UNK N   1      26.823  19.714   5.666  0.00  0.00     0.068 C 
HETATM   16  C   UNK N   1      28.031  19.728   4.746  0.00  0.00     0.031 C 
HETATM   17  C   UNK N   1      26.547  21.121   6.151  0.00  0.00     0.031 C 
ENDBRANCH  13  15
ENDBRANCH  12  13
ENDBRANCH   9  12
ENDBRANCH   8   9
ENDBRANCH   7   8
ENDBRANCH   1   7
BRANCH   2  18
HETATM   18  C   UNK N   1      35.372  15.478   9.881  0.00  0.00     0.206 C 
BRANCH  18  19
HETATM   19  O   UNK N   1      35.140  14.703  11.022  0.00  0.00    -0.385 OA
BRANCH  19  20
HETATM   20  C   UNK N   1      35.818  15.365  12.048  0.00  0.00     0.194 C 
BRANCH  20  21
HETATM   21  C   UNK N   1      36.135  14.394  13.170  0.00  0.00     0.194 C 
BRANCH  21  22
HETATM   22  O   UNK N   1      34.977  13.707  13.540  0.00  0.00    -0.385 OA
BRANCH  22  23
HETATM   23  C   UNK N   1      35.395  12.786  14.501  0.00  0.00     0.113 C 
HETATM   24  C   UNK N   1      36.848  13.038  14.854  0.00  0.00     0.039 C 
HETATM   25  C   UNK N   1      34.535  12.916  15.742  0.00  0.00     0.039 C 
ENDBRANCH  22  23
ENDBRANCH  21  22
ENDBRANCH  20  21
ENDBRANCH  19  20
ENDBRANCH  18  19
ENDBRANCH   2  18
TORSDOF 13
ENDMDL
MODEL 2
REMARK VINA RESULT:      -5.7      3.396      9.034
REMARK  13 active torsions:
REMARK  status: ('A' for Active; 'I' for Inactive)
REMARK    1  A    between atoms: O_1  and  C_9 
REMARK    2  A    between atoms: O_1  and  C_12 
REMARK    3  A    between atoms: O_2  and  C_7 
REMARK    4  A    between atoms: O_3  and  C_14 
REMARK    5  A    between atoms: O_3  and  C_18 
REMARK    6  A    between atoms: O_4  and  C_15 
REMARK    7  A    between atoms: O_4  and  C_19 
REMARK    8  A    between atoms: N_5  and  C_6 
REMARK    9  A    between atoms: N_5  and  C_8 
REMARK   10  A    between atoms: C_6  and  C_7 
REMARK   11  A    between atoms: C_7  and  C_9 
REMARK   12  A    between atoms: C_13  and  C_14 
REMARK   13  A    between atoms: C_18  and  C_19 
ROOT
HETATM    1  C   UNK N   1      34.346  16.716   8.791  0.00  0.00     0.068 A 
HETATM    2  C   UNK N   1      33.525  16.698   6.101  0.00  0.00    -0.034 A 
HETATM    3  C   UNK N   1      34.263  17.915   8.073  0.00  0.00     0.037 A 
HETATM    4  C   UNK N   1      34.015  15.508   8.151  0.00  0.00     0.037 A 
HETATM    5  C   UNK N   1      33.856  17.907   6.733  0.00  0.00     0.012 A 
HETATM    6  C   UNK N   1      33.606  15.502   6.817  0.00  0.00     0.012 A 
ENDROOT
BRANCH   1   7
HETATM    7  O   UNK N   1      34.735  16.740  10.090  0.00  0.00    -0.349 OA
BRANCH   7   8
HETATM    8  C   UNK N   1      34.707  15.612  10.881  0.00  0.00     0.209 C 
BRANCH   8   9
HETATM    9  C   UNK N   1      36.026  15.435  11.605  0.00  0.00     0.159 C 
BRANCH   9  10
HETATM   10  O   UNK N   1      37.043  16.062  10.884  0.00  0.00    -0.392 OA
HETATM   11  H   UNK N   1      37.794  15.565  10.523  0.00  0.00     0.210 HD
ENDBRANCH   9  10
BRANCH   9  12
HETATM   12  C   UNK N   1      36.306  13.949  11.718  0.00  0.00     0.147 C 
BRANCH  12  13
HETATM   13  N   UNK N   1      37.033  13.659  12.942  0.00  0.00    -0.415 N 
HETATM   14  H   UNK N   1      37.982  13.294  13.014  0.00  0.00     0.153 HD
BRANCH  13  15
HETATM   15  C   UNK N   1      36.146  13.991  14.044  0.00  0.00     0.068 C 
HETATM   16  C   UNK N   1      36.954  14.221  15.309  0.00  0.00     0.031 C 
HETATM   17  C   UNK N   1      35.172  12.855  14.272  0.00  0.00     0.031 C 
ENDBRANCH  13  15
ENDBRANCH  12  13
ENDBRANCH   9  12
ENDBRANCH   8   9
ENDBRANCH   7   8
ENDBRANCH   1   7
BRANCH   2  18
HETATM   18  C   UNK N   1      33.072  16.650   4.673  0.00  0.00     0.206 C 
BRANCH  18  19
HETATM   19  O   UNK N   1      31.812  16.060   4.537  0.00  0.00    -0.385 OA
BRANCH  19  20
HETATM   20  C   UNK N   1      30.905  17.112   4.692  0.00  0.00     0.194 C 
BRANCH  20  21
HETATM   21  C   UNK N   1      29.663  16.624   5.413  0.00  0.00     0.194 C 
BRANCH  21  22
HETATM   22  O   UNK N   1      29.975  16.330   6.742  0.00  0.00    -0.385 OA
BRANCH  22  23
HETATM   23  C   UNK N   1      29.908  17.554   7.408  0.00  0.00     0.113 C 
HETATM   24  C   UNK N   1      28.458  17.927   7.650  0.00  0.00     0.039 C 
HETATM   25  C   UNK N   1      30.641  17.458   8.730  0.00  0.00     0.039 C 
ENDBRANCH  22  23
ENDBRANCH  21  22
ENDBRANCH  20  21
ENDBRANCH  19  20
ENDBRANCH  18  19
ENDBRANCH   2  18
TORSDOF 13
ENDMDL
MODEL 3
REMARK VINA RESULT:      -5.7      4.109      5.652
REMARK  13 active torsions:
REMARK  status: ('A' for Active; 'I' for Inactive)
REMARK    1  A    between atoms: O_1  and  C_9 
REMARK    2  A    between atoms: O_1  and  C_12 
REMARK    3  A    between atoms: O_2  and  C_7 
REMARK    4  A    between atoms: O_3  and  C_14 
REMARK    5  A    between atoms: O_3  and  C_18 
REMARK    6  A    between atoms: O_4  and  C_15 
REMARK    7  A    between atoms: O_4  and  C_19 
REMARK    8  A    between atoms: N_5  and  C_6 
REMARK    9  A    between atoms: N_5  and  C_8 
REMARK   10  A    between atoms: C_6  and  C_7 
REMARK   11  A    between atoms: C_7  and  C_9 
REMARK   12  A    between atoms: C_13  and  C_14 
REMARK   13  A    between atoms: C_18  and  C_19 
ROOT
HETATM    1  C   UNK N   1      31.835  17.612   8.351  0.00  0.00     0.068 A 
HETATM    2  C   UNK N   1      34.027  16.103   7.441  0.00  0.00    -0.034 A 
HETATM    3  C   UNK N   1      31.722  16.224   8.206  0.00  0.00     0.037 A 
HETATM    4  C   UNK N   1      33.055  18.238   8.035  0.00  0.00     0.037 A 
HETATM    5  C   UNK N   1      32.812  15.472   7.751  0.00  0.00     0.012 A 
HETATM    6  C   UNK N   1      34.141  17.487   7.587  0.00  0.00     0.012 A 
ENDROOT
BRANCH   1   7
HETATM    7  O   UNK N   1      30.773  18.326   8.798  0.00  0.00    -0.349 OA
BRANCH   7   8
HETATM    8  C   UNK N   1      29.634  17.718   9.277  0.00  0.00     0.209 C 
BRANCH   8   9
HETATM    9  C   UNK N   1      28.397  18.343   8.667  0.00  0.00     0.159 C 
BRANCH   9  10
HETATM   10  O   UNK N   1      27.306  18.148   9.514  0.00  0.00    -0.392 OA
HETATM   11  H   UNK N   1      26.555  18.763   9.530  0.00  0.00     0.210 HD
ENDBRANCH   9  10
BRANCH   9  12
HETATM   12  C   UNK N   1      28.144  17.678   7.328  0.00  0.00     0.147 C 
BRANCH  12  13
HETATM   13  N   UNK N   1      28.686  18.484   6.247  0.00  0.00    -0.415 N 
HETATM   14  H   UNK N   1      29.669  18.579   5.993  0.00  0.00     0.153 HD
BRANCH  13  15
HETATM   15  C   UNK N   1      27.557  19.129   5.599  0.00  0.00     0.068 C 
HETATM   16  C   UNK N   1      27.634  18.920   4.097  0.00  0.00     0.031 C 
HETATM   17  C   UNK N   1      27.578  20.612   5.900  0.00  0.00     0.031 C 
ENDBRANCH  13  15
ENDBRANCH  12  13
ENDBRANCH   9  12
ENDBRANCH   8   9
ENDBRANCH   7   8
ENDBRANCH   1   7
BRANCH   2  18
HETATM   18  C   UNK N   1      35.221  15.331   6.966  0.00  0.00     0.206 C 
BRANCH  18  19
HETATM   19  O   UNK N   1      35.445  15.494   5.596  0.00  0.00    -0.385 OA
BRANCH  19  20
HETATM   20  C   UNK N   1      34.969  14.317   5.012  0.00  0.00     0.194 C 
BRANCH  20  21
HETATM   21  C   UNK N   1      33.849  14.636   4.040  0.00  0.00     0.194 C 
BRANCH  21  22
HETATM   22  O   UNK N   1      33.728  16.020   3.899  0.00  0.00    -0.385 OA
BRANCH  22  23
HETATM   23  C   UNK N   1      32.361  16.248   3.739  0.00  0.00     0.113 C 
HETATM   24  C   UNK N   1      31.578  15.069   4.281  0.00  0.00     0.039 C 
HETATM   25  C   UNK N   1      31.964  17.511   4.477  0.00  0.00     0.039 C 
ENDBRANCH  22  23
ENDBRANCH  21  22
ENDBRANCH  20  21
ENDBRANCH  19  20
ENDBRANCH  18  19
ENDBRANCH   2  18
TORSDOF 13
ENDMDL
MODEL 4
REMARK VINA RESULT:      -5.6      6.582     10.487
REMARK  13 active torsions:
REMARK  status: ('A' for Active; 'I' for Inactive)
REMARK    1  A    between atoms: O_1  and  C_9 
REMARK    2  A    between atoms: O_1  and  C_12 
REMARK    3  A    between atoms: O_2  and  C_7 
REMARK    4  A    between atoms: O_3  and  C_14 
REMARK    5  A    between atoms: O_3  and  C_18 
REMARK    6  A    between atoms: O_4  and  C_15 
REMARK    7  A    between atoms: O_4  and  C_19 
REMARK    8  A    between atoms: N_5  and  C_6 
REMARK    9  A    between atoms: N_5  and  C_8 
REMARK   10  A    between atoms: C_6  and  C_7 
REMARK   11  A    between atoms: C_7  and  C_9 
REMARK   12  A    between atoms: C_13  and  C_14 
REMARK   13  A    between atoms: C_18  and  C_19 
ROOT
HETATM    1  C   UNK N   1      23.083  19.788   3.517  0.00  0.00     0.068 A 
HETATM    2  C   UNK N   1      25.751  18.927   3.748  0.00  0.00    -0.034 A 
HETATM    3  C   UNK N   1      24.126  20.595   3.047  0.00  0.00     0.037 A 
HETATM    4  C   UNK N   1      23.388  18.547   4.105  0.00  0.00     0.037 A 
HETATM    5  C   UNK N   1      25.454  20.169   3.163  0.00  0.00     0.012 A 
HETATM    6  C   UNK N   1      24.712  18.121   4.216  0.00  0.00     0.012 A 
ENDROOT
BRANCH   1   7
HETATM    7  O   UNK N   1      21.801  20.211   3.393  0.00  0.00    -0.349 OA
BRANCH   7   8
HETATM    8  C   UNK N   1      21.357  20.873   2.269  0.00  0.00     0.209 C 
BRANCH   8   9
HETATM    9  C   UNK N   1      21.096  19.895   1.142  0.00  0.00     0.159 C 
BRANCH   9  10
HETATM   10  O   UNK N   1      20.527  20.568   0.060  0.00  0.00    -0.392 OA
HETATM   11  H   UNK N   1      19.914  21.310   0.186  0.00  0.00     0.210 HD
ENDBRANCH   9  10
BRANCH   9  12
HETATM   12  C   UNK N   1      20.146  18.831   1.653  0.00  0.00     0.147 C 
BRANCH  12  13
HETATM   13  N   UNK N   1      20.090  17.710   0.729  0.00  0.00    -0.415 N 
HETATM   14  H   UNK N   1      20.136  17.758  -0.289  0.00  0.00     0.153 HD
BRANCH  13  15
HETATM   15  C   UNK N   1      19.958  16.509   1.535  0.00  0.00     0.068 C 
HETATM   16  C   UNK N   1      20.234  16.830   2.993  0.00  0.00     0.031 C 
HETATM   17  C   UNK N   1      20.946  15.466   1.057  0.00  0.00     0.031 C 
ENDBRANCH  13  15
ENDBRANCH  12  13
ENDBRANCH   9  12
ENDBRANCH   8   9
ENDBRANCH   7   8
ENDBRANCH   1   7
BRANCH   2  18
HETATM   18  C   UNK N   1      27.159  18.430   3.877  0.00  0.00     0.206 C 
BRANCH  18  19
HETATM   19  O   UNK N   1      27.219  17.040   4.011  0.00  0.00    -0.385 OA
BRANCH  19  20
HETATM   20  C   UNK N   1      28.470  16.789   4.580  0.00  0.00     0.194 C 
BRANCH  20  21
HETATM   21  C   UNK N   1      28.777  17.830   5.640  0.00  0.00     0.194 C 
BRANCH  21  22
HETATM   22  O   UNK N   1      28.541  17.294   6.908  0.00  0.00    -0.385 OA
BRANCH  22  23
HETATM   23  C   UNK N   1      28.659  18.374   7.783  0.00  0.00     0.113 C 
HETATM   24  C   UNK N   1      27.820  19.534   7.283  0.00  0.00     0.039 C 
HETATM   25  C   UNK N   1      28.195  17.964   9.166  0.00  0.00     0.039 C 
ENDBRANCH  22  23
ENDBRANCH  21  22
ENDBRANCH  20  21
ENDBRANCH  19  20
ENDBRANCH  18  19
ENDBRANCH   2  18
TORSDOF 13
ENDMDL
MODEL 5
REMARK VINA RESULT:      -5.6     17.595     19.292
REMARK  13 active torsions:
REMARK  status: ('A' for Active; 'I' for Inactive)
REMARK    1  A    between atoms: O_1  and  C_9 
REMARK    2  A    between atoms: O_1  and  C_12 
REMARK    3  A    between atoms: O_2  and  C_7 
REMARK    4  A    between atoms: O_3  and  C_14 
REMARK    5  A    between atoms: O_3  and  C_18 
REMARK    6  A    between atoms: O_4  and  C_15 
REMARK    7  A    between atoms: O_4  and  C_19 
REMARK    8  A    between atoms: N_5  and  C_6 
REMARK    9  A    between atoms: N_5  and  C_8 
REMARK   10  A    between atoms: C_6  and  C_7 
REMARK   11  A    between atoms: C_7  and  C_9 
REMARK   12  A    between atoms: C_13  and  C_14 
REMARK   13  A    between atoms: C_18  and  C_19 
ROOT
HETATM    1  C   UNK N   1      25.879  27.405  -3.808  0.00  0.00     0.068 A 
HETATM    2  C   UNK N   1      25.775  24.996  -5.254  0.00  0.00    -0.034 A 
HETATM    3  C   UNK N   1      25.222  27.354  -5.043  0.00  0.00     0.037 A 
HETATM    4  C   UNK N   1      26.485  26.240  -3.304  0.00  0.00     0.037 A 
HETATM    5  C   UNK N   1      25.171  26.156  -5.765  0.00  0.00     0.012 A 
HETATM    6  C   UNK N   1      26.429  25.045  -4.022  0.00  0.00     0.012 A 
ENDROOT
BRANCH   1   7
HETATM    7  O   UNK N   1      25.916  28.572  -3.117  0.00  0.00    -0.349 OA
BRANCH   7   8
HETATM    8  C   UNK N   1      27.104  29.175  -2.765  0.00  0.00     0.209 C 
BRANCH   8   9
HETATM    9  C   UNK N   1      27.264  30.497  -3.488  0.00  0.00     0.159 C 
BRANCH   9  10
HETATM   10  O   UNK N   1      26.008  31.007  -3.816  0.00  0.00    -0.392 OA
HETATM   11  H   UNK N   1      25.900  31.898  -4.185  0.00  0.00     0.210 HD
ENDBRANCH   9  10
BRANCH   9  12
HETATM   12  C   UNK N   1      28.072  30.250  -4.747  0.00  0.00     0.147 C 
BRANCH  12  13
HETATM   13  N   UNK N   1      28.910  29.072  -4.593  0.00  0.00    -0.415 N 
HETATM   14  H   UNK N   1      29.295  28.709  -3.721  0.00  0.00     0.153 HD
BRANCH  13  15
HETATM   15  C   UNK N   1      29.092  28.511  -5.921  0.00  0.00     0.068 C 
HETATM   16  C   UNK N   1      27.940  28.923  -6.819  0.00  0.00     0.031 C 
HETATM   17  C   UNK N   1      29.142  27.001  -5.831  0.00  0.00     0.031 C 
ENDBRANCH  13  15
ENDBRANCH  12  13
ENDBRANCH   9  12
ENDBRANCH   8   9
ENDBRANCH   7   8
ENDBRANCH   1   7
BRANCH   2  18
HETATM   18  C   UNK N   1      25.729  23.691  -5.991  0.00  0.00     0.206 C 
BRANCH  18  19
HETATM   19  O   UNK N   1      25.375  23.853  -7.333  0.00  0.00    -0.385 OA
BRANCH  19  20
HETATM   20  C   UNK N   1      26.536  23.549  -8.049  0.00  0.00     0.194 C 
BRANCH  20  21
HETATM   21  C   UNK N   1      27.144  22.261  -7.528  0.00  0.00     0.194 C 
BRANCH  21  22
HETATM   22  O   UNK N   1      28.537  22.331  -7.610  0.00  0.00    -0.385 OA
BRANCH  22  23
HETATM   23  C   UNK N   1      28.989  22.043  -6.322  0.00  0.00     0.113 C 
HETATM   24  C   UNK N   1      30.039  20.952  -6.379  0.00  0.00     0.039 C 
HETATM   25  C   UNK N   1      29.578  23.291  -5.696  0.00  0.00     0.039 C 
ENDBRANCH  22  23
ENDBRANCH  21  22
ENDBRANCH  20  21
ENDBRANCH  19  20
ENDBRANCH  18  19
ENDBRANCH   2  18
TORSDOF 13
ENDMDL
MODEL 6
REMARK VINA RESULT:      -5.6      2.873      4.333
REMARK  13 active torsions:
REMARK  status: ('A' for Active; 'I' for Inactive)
REMARK    1  A    between atoms: O_1  and  C_9 
REMARK    2  A    between atoms: O_1  and  C_12 
REMARK    3  A    between atoms: O_2  and  C_7 
REMARK    4  A    between atoms: O_3  and  C_14 
REMARK    5  A    between atoms: O_3  and  C_18 
REMARK    6  A    between atoms: O_4  and  C_15 
REMARK    7  A    between atoms: O_4  and  C_19 
REMARK    8  A    between atoms: N_5  and  C_6 
REMARK    9  A    between atoms: N_5  and  C_8 
REMARK   10  A    between atoms: C_6  and  C_7 
REMARK   11  A    between atoms: C_7  and  C_9 
REMARK   12  A    between atoms: C_13  and  C_14 
REMARK   13  A    between atoms: C_18  and  C_19 
ROOT
HETATM    1  C   UNK N   1      30.414  17.418   4.777  0.00  0.00     0.068 A 
HETATM    2  C   UNK N   1      32.831  16.897   6.117  0.00  0.00    -0.034 A 
HETATM    3  C   UNK N   1      31.637  17.735   4.172  0.00  0.00     0.037 A 
HETATM    4  C   UNK N   1      30.412  16.839   6.059  0.00  0.00     0.037 A 
HETATM    5  C   UNK N   1      32.840  17.478   4.840  0.00  0.00     0.012 A 
HETATM    6  C   UNK N   1      31.613  16.579   6.720  0.00  0.00     0.012 A 
ENDROOT
BRANCH   1   7
HETATM    7  O   UNK N   1      29.257  17.668   4.117  0.00  0.00    -0.349 OA
BRANCH   7   8
HETATM    8  C   UNK N   1      28.469  16.654   3.615  0.00  0.00     0.209 C 
BRANCH   8   9
HETATM    9  C   UNK N   1      27.027  16.840   4.038  0.00  0.00     0.159 C 
BRANCH   9  10
HETATM   10  O   UNK N   1      26.180  16.447   3.001  0.00  0.00    -0.392 OA
HETATM   11  H   UNK N   1      26.342  16.712   2.082  0.00  0.00     0.210 HD
ENDBRANCH   9  10
BRANCH   9  12
HETATM   12  C   UNK N   1      26.815  18.307   4.357  0.00  0.00     0.147 C 
BRANCH  12  13
HETATM   13  N   UNK N   1      26.609  18.494   5.783  0.00  0.00    -0.415 N 
HETATM   14  H   UNK N   1      25.970  17.969   6.380  0.00  0.00     0.153 HD
BRANCH  13  15
HETATM   15  C   UNK N   1      27.489  19.575   6.195  0.00  0.00     0.068 C 
HETATM   16  C   UNK N   1      28.090  19.264   7.554  0.00  0.00     0.031 C 
HETATM   17  C   UNK N   1      26.702  20.866   6.279  0.00  0.00     0.031 C 
ENDBRANCH  13  15
ENDBRANCH  12  13
ENDBRANCH   9  12
ENDBRANCH   8   9
ENDBRANCH   7   8
ENDBRANCH   1   7
BRANCH   2  18
HETATM   18  C   UNK N   1      34.099  16.593   6.857  0.00  0.00     0.206 C 
BRANCH  18  19
HETATM   19  O   UNK N   1      34.857  17.741   7.102  0.00  0.00    -0.385 OA
BRANCH  19  20
HETATM   20  C   UNK N   1      34.426  18.194   8.352  0.00  0.00     0.194 C 
BRANCH  20  21
HETATM   21  C   UNK N   1      34.452  17.055   9.354  0.00  0.00     0.194 C 
BRANCH  21  22
HETATM   22  O   UNK N   1      35.557  17.195  10.197  0.00  0.00    -0.385 OA
BRANCH  22  23
HETATM   23  C   UNK N   1      35.722  15.941  10.785  0.00  0.00     0.113 C 
HETATM   24  C   UNK N   1      34.366  15.312  11.042  0.00  0.00     0.039 C 
HETATM   25  C   UNK N   1      36.536  15.050   9.869  0.00  0.00     0.039 C 
ENDBRANCH  22  23
ENDBRANCH  21  22
ENDBRANCH  20  21
ENDBRANCH  19  20
ENDBRANCH  18  19
ENDBRANCH   2  18
TORSDOF 13
ENDMDL
MODEL 7
REMARK VINA RESULT:      -5.5      4.593     11.715
REMARK  13 active torsions:
REMARK  status: ('A' for Active; 'I' for Inactive)
REMARK    1  A    between atoms: O_1  and  C_9 
REMARK    2  A    between atoms: O_1  and  C_12 
REMARK    3  A    between atoms: O_2  and  C_7 
REMARK    4  A    between atoms: O_3  and  C_14 
REMARK    5  A    between atoms: O_3  and  C_18 
REMARK    6  A    between atoms: O_4  and  C_15 
REMARK    7  A    between atoms: O_4  and  C_19 
REMARK    8  A    between atoms: N_5  and  C_6 
REMARK    9  A    between atoms: N_5  and  C_8 
REMARK   10  A    between atoms: C_6  and  C_7 
REMARK   11  A    between atoms: C_7  and  C_9 
REMARK   12  A    between atoms: C_13  and  C_14 
REMARK   13  A    between atoms: C_18  and  C_19 
ROOT
HETATM    1  C   UNK N   1      27.960  19.296   6.644  0.00  0.00     0.068 A 
HETATM    2  C   UNK N   1      26.675  20.057   4.261  0.00  0.00    -0.034 A 
HETATM    3  C   UNK N   1      27.256  20.504   6.580  0.00  0.00     0.037 A 
HETATM    4  C   UNK N   1      28.016  18.472   5.505  0.00  0.00     0.037 A 
HETATM    5  C   UNK N   1      26.618  20.885   5.393  0.00  0.00     0.012 A 
HETATM    6  C   UNK N   1      27.375  18.851   4.325  0.00  0.00     0.012 A 
ENDROOT
BRANCH   1   7
HETATM    7  O   UNK N   1      28.568  18.937   7.802  0.00  0.00    -0.349 OA
BRANCH   7   8
HETATM    8  C   UNK N   1      28.651  17.622   8.207  0.00  0.00     0.209 C 
BRANCH   8   9
HETATM    9  C   UNK N   1      29.405  17.514   9.516  0.00  0.00     0.159 C 
BRANCH   9  10
HETATM   10  O   UNK N   1      29.501  18.774  10.107  0.00  0.00    -0.392 OA
HETATM   11  H   UNK N   1      28.807  19.443   9.999  0.00  0.00     0.210 HD
ENDBRANCH   9  10
BRANCH   9  12
HETATM   12  C   UNK N   1      30.788  16.969   9.218  0.00  0.00     0.147 C 
BRANCH  12  13
HETATM   13  N   UNK N   1      31.643  18.014   8.680  0.00  0.00    -0.415 N 
HETATM   14  H   UNK N   1      31.554  19.017   8.843  0.00  0.00     0.153 HD
BRANCH  13  15
HETATM   15  C   UNK N   1      32.649  17.354   7.866  0.00  0.00     0.068 C 
HETATM   16  C   UNK N   1      33.948  18.138   7.911  0.00  0.00     0.031 C 
HETATM   17  C   UNK N   1      32.166  17.268   6.433  0.00  0.00     0.031 C 
ENDBRANCH  13  15
ENDBRANCH  12  13
ENDBRANCH   9  12
ENDBRANCH   8   9
ENDBRANCH   7   8
ENDBRANCH   1   7
BRANCH   2  18
HETATM   18  C   UNK N   1      25.993  20.423   2.978  0.00  0.00     0.206 C 
BRANCH  18  19
HETATM   19  O   UNK N   1      24.650  20.759   3.170  0.00  0.00    -0.385 OA
BRANCH  19  20
HETATM   20  C   UNK N   1      24.048  19.584   3.625  0.00  0.00     0.194 C 
BRANCH  20  21
HETATM   21  C   UNK N   1      22.551  19.640   3.382  0.00  0.00     0.194 C 
BRANCH  21  22
HETATM   22  O   UNK N   1      22.266  20.615   2.424  0.00  0.00    -0.385 OA
BRANCH  22  23
HETATM   23  C   UNK N   1      21.142  20.139   1.748  0.00  0.00     0.113 C 
HETATM   24  C   UNK N   1      20.097  19.684   2.747  0.00  0.00     0.039 C 
HETATM   25  C   UNK N   1      20.571  21.234   0.870  0.00  0.00     0.039 C 
ENDBRANCH  22  23
ENDBRANCH  21  22
ENDBRANCH  20  21
ENDBRANCH  19  20
ENDBRANCH  18  19
ENDBRANCH   2  18
TORSDOF 13
ENDMDL
MODEL 8
REMARK VINA RESULT:      -5.5      7.560     11.025
REMARK  13 active torsions:
REMARK  status: ('A' for Active; 'I' for Inactive)
REMARK    1  A    between atoms: O_1  and  C_9 
REMARK    2  A    between atoms: O_1  and  C_12 
REMARK    3  A    between atoms: O_2  and  C_7 
REMARK    4  A    between atoms: O_3  and  C_14 
REMARK    5  A    between atoms: O_3  and  C_18 
REMARK    6  A    between atoms: O_4  and  C_15 
REMARK    7  A    between atoms: O_4  and  C_19 
REMARK    8  A    between atoms: N_5  and  C_6 
REMARK    9  A    between atoms: N_5  and  C_8 
REMARK   10  A    between atoms: C_6  and  C_7 
REMARK   11  A    between atoms: C_7  and  C_9 
REMARK   12  A    between atoms: C_13  and  C_14 
REMARK   13  A    between atoms: C_18  and  C_19 
ROOT
HETATM    1  C   UNK N   1      34.998  12.773  16.018  0.00  0.00     0.068 A 
HETATM    2  C   UNK N   1      35.269  11.735  18.618  0.00  0.00    -0.034 A 
HETATM    3  C   UNK N   1      35.109  11.391  16.215  0.00  0.00     0.037 A 
HETATM    4  C   UNK N   1      35.024  13.631  17.132  0.00  0.00     0.037 A 
HETATM    5  C   UNK N   1      35.247  10.874  17.509  0.00  0.00     0.012 A 
HETATM    6  C   UNK N   1      35.156  13.113  18.421  0.00  0.00     0.012 A 
ENDROOT
BRANCH   1   7
HETATM    7  O   UNK N   1      34.860  13.259  14.760  0.00  0.00    -0.349 OA
BRANCH   7   8
HETATM    8  C   UNK N   1      35.840  14.019  14.159  0.00  0.00     0.209 C 
BRANCH   8   9
HETATM    9  C   UNK N   1      35.761  13.897  12.652  0.00  0.00     0.159 C 
BRANCH   9  10
HETATM   10  O   UNK N   1      34.466  13.534  12.278  0.00  0.00    -0.392 OA
HETATM   11  H   UNK N   1      34.207  13.457  11.347  0.00  0.00     0.210 HD
ENDBRANCH   9  10
BRANCH   9  12
HETATM   12  C   UNK N   1      36.748  12.833  12.213  0.00  0.00     0.147 C 
BRANCH  12  13
HETATM   13  N   UNK N   1      37.527  12.362  13.345  0.00  0.00    -0.415 N 
HETATM   14  H   UNK N   1      37.904  12.931  14.103  0.00  0.00     0.153 HD
BRANCH  13  15
HETATM   15  C   UNK N   1      37.666  10.924  13.189  0.00  0.00     0.068 C 
HETATM   16  C   UNK N   1      36.316  10.305  12.878  0.00  0.00     0.031 C 
HETATM   17  C   UNK N   1      38.209  10.325  14.469  0.00  0.00     0.031 C 
ENDBRANCH  13  15
ENDBRANCH  12  13
ENDBRANCH   9  12
ENDBRANCH   8   9
ENDBRANCH   7   8
ENDBRANCH   1   7
BRANCH   2  18
HETATM   18  C   UNK N   1      35.399  11.218  20.018  0.00  0.00     0.206 C 
BRANCH  18  19
HETATM   19  O   UNK N   1      36.318  10.169  20.112  0.00  0.00    -0.385 OA
BRANCH  19  20
HETATM   20  C   UNK N   1      35.635   9.154  20.786  0.00  0.00     0.194 C 
BRANCH  20  21
HETATM   21  C   UNK N   1      34.177   9.535  20.958  0.00  0.00     0.194 C 
BRANCH  21  22
HETATM   22  O   UNK N   1      33.362   8.487  20.524  0.00  0.00    -0.385 OA
BRANCH  22  23
HETATM   23  C   UNK N   1      32.101   8.770  21.050  0.00  0.00     0.113 C 
HETATM   24  C   UNK N   1      31.027   8.248  20.115  0.00  0.00     0.039 C 
HETATM   25  C   UNK N   1      31.957   8.120  22.411  0.00  0.00     0.039 C 
ENDBRANCH  22  23
ENDBRANCH  21  22
ENDBRANCH  20  21
ENDBRANCH  19  20
ENDBRANCH  18  19
ENDBRANCH   2  18
TORSDOF 13
ENDMDL
MODEL 9
REMARK VINA RESULT:      -5.5     14.457     18.565
REMARK  13 active torsions:
REMARK  status: ('A' for Active; 'I' for Inactive)
REMARK    1  A    between atoms: O_1  and  C_9 
REMARK    2  A    between atoms: O_1  and  C_12 
REMARK    3  A    between atoms: O_2  and  C_7 
REMARK    4  A    between atoms: O_3  and  C_14 
REMARK    5  A    between atoms: O_3  and  C_18 
REMARK    6  A    between atoms: O_4  and  C_15 
REMARK    7  A    between atoms: O_4  and  C_19 
REMARK    8  A    between atoms: N_5  and  C_6 
REMARK    9  A    between atoms: N_5  and  C_8 
REMARK   10  A    between atoms: C_6  and  C_7 
REMARK   11  A    between atoms: C_7  and  C_9 
REMARK   12  A    between atoms: C_13  and  C_14 
REMARK   13  A    between atoms: C_18  and  C_19 
ROOT
HETATM    1  C   UNK N   1      30.173  20.341  -6.423  0.00  0.00     0.068 A 
HETATM    2  C   UNK N   1      28.015  21.337  -7.925  0.00  0.00    -0.034 A 
HETATM    3  C   UNK N   1      29.639  21.603  -6.135  0.00  0.00     0.037 A 
HETATM    4  C   UNK N   1      29.618  19.582  -7.469  0.00  0.00     0.037 A 
HETATM    5  C   UNK N   1      28.566  22.101  -6.884  0.00  0.00     0.012 A 
HETATM    6  C   UNK N   1      28.545  20.078  -8.211  0.00  0.00     0.012 A 
ENDROOT
BRANCH   1   7
HETATM    7  O   UNK N   1      31.209  19.869  -5.685  0.00  0.00    -0.349 OA
BRANCH   7   8
HETATM    8  C   UNK N   1      32.454  20.458  -5.715  0.00  0.00     0.209 C 
BRANCH   8   9
HETATM    9  C   UNK N   1      33.223  20.145  -4.449  0.00  0.00     0.159 C 
BRANCH   9  10
HETATM   10  O   UNK N   1      32.816  18.908  -3.947  0.00  0.00    -0.392 OA
HETATM   11  H   UNK N   1      32.940  18.669  -3.015  0.00  0.00     0.210 HD
ENDBRANCH   9  10
BRANCH   9  12
HETATM   12  C   UNK N   1      32.933  21.238  -3.439  0.00  0.00     0.147 C 
BRANCH  12  13
HETATM   13  N   UNK N   1      31.538  21.200  -3.032  0.00  0.00    -0.415 N 
HETATM   14  H   UNK N   1      30.941  20.375  -2.986  0.00  0.00     0.153 HD
BRANCH  13  15
HETATM   15  C   UNK N   1      31.161  22.564  -2.702  0.00  0.00     0.068 C 
HETATM   16  C   UNK N   1      29.653  22.662  -2.554  0.00  0.00     0.031 C 
HETATM   17  C   UNK N   1      31.617  23.497  -3.804  0.00  0.00     0.031 C 
ENDBRANCH  13  15
ENDBRANCH  12  13
ENDBRANCH   9  12
ENDBRANCH   8   9
ENDBRANCH   7   8
ENDBRANCH   1   7
BRANCH   2  18
HETATM   18  C   UNK N   1      26.857  21.830  -8.739  0.00  0.00     0.206 C 
BRANCH  18  19
HETATM   19  O   UNK N   1      25.769  22.199  -7.943  0.00  0.00    -0.385 OA
BRANCH  19  20
HETATM   20  C   UNK N   1      25.400  23.465  -8.405  0.00  0.00     0.194 C 
BRANCH  20  21
HETATM   21  C   UNK N   1      25.786  24.522  -7.387  0.00  0.00     0.194 C 
BRANCH  21  22
HETATM   22  O   UNK N   1      25.220  24.211  -6.148  0.00  0.00    -0.385 OA
BRANCH  22  23
HETATM   23  C   UNK N   1      25.643  25.228  -5.293  0.00  0.00     0.113 C 
HETATM   24  C   UNK N   1      27.155  25.204  -5.177  0.00  0.00     0.039 C 
HETATM   25  C   UNK N   1      25.191  26.570  -5.831  0.00  0.00     0.039 C 
ENDBRANCH  22  23
ENDBRANCH  21  22
ENDBRANCH  20  21
ENDBRANCH  19  20
ENDBRANCH  18  19
ENDBRANCH   2  18
TORSDOF 13
ENDMDL
