MODEL 1
REMARK VINA RESULT:      -6.6      0.000      0.000
REMARK  7 active torsions:
REMARK  status: ('A' for Active; 'I' for Inactive)
REMARK    1  A    between atoms: O_2  and  C_13 
REMARK    2  A    between atoms: N_3  and  C_7 
REMARK    3  A    between atoms: N_3  and  C_9 
REMARK    4  A    between atoms: N_3  and  C_10 
REMARK    5  A    between atoms: N_4  and  C_12 
REMARK    6  A    between atoms: N_4  and  C_17 
REMARK    7  A    between atoms: C_7  and  C_8 
ROOT
HETATM    1  C   UNK N   1      30.653  17.297   6.084  0.00  0.00     0.005 A 
HETATM    2  C   UNK N   1      31.797  17.135   6.867  0.00  0.00     0.041 A 
HETATM    3  C   UNK N   1      33.079  17.209   6.301  0.00  0.00     0.033 A 
HETATM    4  C   UNK N   1      30.787  17.529   4.704  0.00  0.00     0.073 A 
HETATM    5  C   UNK N   1      33.201  17.433   4.925  0.00  0.00     0.032 A 
HETATM    6  C   UNK N   1      32.061  17.596   4.131  0.00  0.00     0.039 A 
ENDROOT
BRANCH   3   7
HETATM    7  N   UNK N   1      34.261  17.054   7.083  0.00  0.00    -0.355 N 
HETATM    8  H   UNK N   1      34.715  17.879   7.368  0.00  0.00     0.166 HD
BRANCH   7   9
HETATM    9  C   UNK N   1      34.856  15.819   7.493  0.00  0.00     0.046 A 
HETATM   10  C   UNK N   1      35.177  15.611   8.848  0.00  0.00     0.017 A 
HETATM   11  C   UNK N   1      35.741  14.373   9.241  0.00  0.00     0.046 A 
HETATM   12  C   UNK N   1      34.949  16.602   9.813  0.00  0.00     0.018 A 
HETATM   13  N   UNK N   1      35.967  13.401   8.320  0.00  0.00    -0.365 N 
HETATM   14  C   UNK N   1      36.061  14.146  10.582  0.00  0.00     0.054 A 
HETATM   15  C   UNK N   1      35.663  13.583   7.009  0.00  0.00     0.090 A 
ATOM     16  HN  UNK N   1      36.374  12.515   8.620  1.00  0.00     0.165 HD
HETATM   17  C   UNK N   1      35.104  14.786   6.579  0.00  0.00     0.047 A 
HETATM   18  C   UNK N   1      35.828  15.138  11.536  0.00  0.00     0.036 A 
HETATM   19 Cl   UNK N   1      36.228  14.841  13.214  0.00  0.00    -0.084 Cl
HETATM   20  C   UNK N   1      35.274  16.365  11.154  0.00  0.00     0.025 A 
ENDBRANCH   7   9
ENDBRANCH   3   7
BRANCH   1  21
HETATM   21  C   UNK N   1      29.312  17.162   6.737  0.00  0.00     0.313 C 
BRANCH  21  22
HETATM   22  N   UNK N   1      28.855  18.415   7.323  0.00  0.00     0.091 N 
BRANCH  22  23
HETATM   23  C   UNK N   1      27.653  18.794   6.590  0.00  0.00     0.268 C 
HETATM   24  C   UNK N   1      27.566  20.303   6.483  0.00  0.00     0.037 C 
ENDBRANCH  22  23
BRANCH  22  25
HETATM   25  C   UNK N   1      28.452  18.086   8.687  0.00  0.00     0.268 C 
HETATM   26  C   UNK N   1      29.525  18.473   9.695  0.00  0.00     0.037 C 
ENDBRANCH  22  25
ENDBRANCH  21  22
ENDBRANCH   1  21
BRANCH   4  27
HETATM   27  O   UNK N   1      29.704  17.666   3.922  0.00  0.00    -0.360 OA
HETATM   28  H   UNK N   1      29.381  16.935   3.432  0.00  0.00     0.217 HD
ENDBRANCH   4  27
TORSDOF 7
ENDMDL
MODEL 2
REMARK VINA RESULT:      -6.5      3.647      7.726
REMARK  7 active torsions:
REMARK  status: ('A' for Active; 'I' for Inactive)
REMARK    1  A    between atoms: O_2  and  C_13 
REMARK    2  A    between atoms: N_3  and  C_7 
REMARK    3  A    between atoms: N_3  and  C_9 
REMARK    4  A    between atoms: N_3  and  C_10 
REMARK    5  A    between atoms: N_4  and  C_12 
REMARK    6  A    between atoms: N_4  and  C_17 
REMARK    7  A    between atoms: C_7  and  C_8 
ROOT
HETATM    1  C   UNK N   1      33.963  15.905   9.714  0.00  0.00     0.005 A 
HETATM    2  C   UNK N   1      32.809  15.499   9.041  0.00  0.00     0.041 A 
HETATM    3  C   UNK N   1      32.231  16.301   8.045  0.00  0.00     0.033 A 
HETATM    4  C   UNK N   1      34.550  17.142   9.394  0.00  0.00     0.073 A 
HETATM    5  C   UNK N   1      32.819  17.533   7.740  0.00  0.00     0.032 A 
HETATM    6  C   UNK N   1      33.975  17.950   8.408  0.00  0.00     0.039 A 
ENDROOT
BRANCH   3   7
HETATM    7  N   UNK N   1      31.056  15.902   7.341  0.00  0.00    -0.355 N 
HETATM    8  H   UNK N   1      30.524  15.178   7.743  0.00  0.00     0.166 HD
BRANCH   7   9
HETATM    9  C   UNK N   1      30.574  16.447   6.109  0.00  0.00     0.046 A 
HETATM   10  C   UNK N   1      29.612  17.475   6.125  0.00  0.00     0.017 A 
HETATM   11  C   UNK N   1      29.166  18.021   4.897  0.00  0.00     0.046 A 
HETATM   12  C   UNK N   1      29.090  17.969   7.329  0.00  0.00     0.018 A 
HETATM   13  N   UNK N   1      29.662  17.556   3.722  0.00  0.00    -0.365 N 
HETATM   14  C   UNK N   1      28.216  19.046   4.893  0.00  0.00     0.054 A 
HETATM   15  C   UNK N   1      30.591  16.566   3.687  0.00  0.00     0.090 A 
ATOM     16  HN  UNK N   1      29.330  17.960   2.846  1.00  0.00     0.165 HD
HETATM   17  C   UNK N   1      31.060  16.002   4.872  0.00  0.00     0.047 A 
HETATM   18  C   UNK N   1      27.704  19.532   6.097  0.00  0.00     0.036 A 
HETATM   19 Cl   UNK N   1      26.518  20.818   6.081  0.00  0.00    -0.084 Cl
HETATM   20  C   UNK N   1      28.138  18.995   7.314  0.00  0.00     0.025 A 
ENDBRANCH   7   9
ENDBRANCH   3   7
BRANCH   1  21
HETATM   21  C   UNK N   1      34.507  15.028  10.799  0.00  0.00     0.313 C 
BRANCH  21  22
HETATM   22  N   UNK N   1      34.849  13.698  10.314  0.00  0.00     0.091 N 
BRANCH  22  23
HETATM   23  C   UNK N   1      36.101  13.839   9.582  0.00  0.00     0.268 C 
HETATM   24  C   UNK N   1      36.020  13.089   8.268  0.00  0.00     0.037 C 
ENDBRANCH  22  23
BRANCH  22  25
HETATM   25  C   UNK N   1      35.124  12.904  11.508  0.00  0.00     0.268 C 
HETATM   26  C   UNK N   1      35.350  13.788  12.726  0.00  0.00     0.037 C 
ENDBRANCH  22  25
ENDBRANCH  21  22
ENDBRANCH   1  21
BRANCH   4  27
HETATM   27  O   UNK N   1      35.647  17.569  10.040  0.00  0.00    -0.360 OA
HETATM   28  H   UNK N   1      35.739  18.474  10.264  0.00  0.00     0.217 HD
ENDBRANCH   4  27
TORSDOF 7
ENDMDL
MODEL 3
REMARK VINA RESULT:      -6.5      3.881      8.339
REMARK  7 active torsions:
REMARK  status: ('A' for Active; 'I' for Inactive)
REMARK    1  A    between atoms: O_2  and  C_13 
REMARK    2  A    between atoms: N_3  and  C_7 
REMARK    3  A    between atoms: N_3  and  C_9 
REMARK    4  A    between atoms: N_3  and  C_10 
REMARK    5  A    between atoms: N_4  and  C_12 
REMARK    6  A    between atoms: N_4  and  C_17 
REMARK    7  A    between atoms: C_7  and  C_8 
ROOT
HETATM    1  C   UNK N   1      34.281  15.441  10.137  0.00  0.00     0.005 A 
HETATM    2  C   UNK N   1      33.043  15.335   9.501  0.00  0.00     0.041 A 
HETATM    3  C   UNK N   1      32.595  16.329   8.618  0.00  0.00     0.033 A 
HETATM    4  C   UNK N   1      35.087  16.568   9.897  0.00  0.00     0.073 A 
HETATM    5  C   UNK N   1      33.402  17.449   8.392  0.00  0.00     0.032 A 
HETATM    6  C   UNK N   1      34.644  17.567   9.025  0.00  0.00     0.039 A 
ENDROOT
BRANCH   3   7
HETATM    7  N   UNK N   1      31.337  16.238   7.953  0.00  0.00    -0.355 N 
HETATM    8  H   UNK N   1      31.256  15.552   7.251  0.00  0.00     0.166 HD
BRANCH   7   9
HETATM    9  C   UNK N   1      30.181  17.045   8.199  0.00  0.00     0.046 A 
HETATM   10  C   UNK N   1      29.496  17.637   7.120  0.00  0.00     0.017 A 
HETATM   11  C   UNK N   1      28.338  18.410   7.381  0.00  0.00     0.046 A 
HETATM   12  C   UNK N   1      29.935  17.476   5.799  0.00  0.00     0.018 A 
HETATM   13  N   UNK N   1      27.898  18.575   8.654  0.00  0.00    -0.365 N 
HETATM   14  C   UNK N   1      27.642  19.001   6.323  0.00  0.00     0.054 A 
HETATM   15  C   UNK N   1      28.545  18.010   9.707  0.00  0.00     0.090 A 
ATOM     16  HN  UNK N   1      27.062  19.134   8.824  1.00  0.00     0.165 HD
HETATM   17  C   UNK N   1      29.687  17.239   9.496  0.00  0.00     0.047 A 
HETATM   18  C   UNK N   1      28.086  18.833   5.011  0.00  0.00     0.036 A 
HETATM   19 Cl   UNK N   1      27.204  19.574   3.693  0.00  0.00    -0.084 Cl
HETATM   20  C   UNK N   1      29.231  18.074   4.747  0.00  0.00     0.025 A 
ENDBRANCH   7   9
ENDBRANCH   3   7
BRANCH   1  21
HETATM   21  C   UNK N   1      34.684  14.370  11.104  0.00  0.00     0.313 C 
BRANCH  21  22
HETATM   22  N   UNK N   1      35.507  13.344  10.479  0.00  0.00     0.091 N 
BRANCH  22  23
HETATM   23  C   UNK N   1      36.776  13.344  11.195  0.00  0.00     0.268 C 
HETATM   24  C   UNK N   1      36.611  12.666  12.540  0.00  0.00     0.037 C 
ENDBRANCH  22  23
BRANCH  22  25
HETATM   25  C   UNK N   1      34.839  12.078  10.767  0.00  0.00     0.268 C 
HETATM   26  C   UNK N   1      34.495  11.324   9.490  0.00  0.00     0.037 C 
ENDBRANCH  22  25
ENDBRANCH  21  22
ENDBRANCH   1  21
BRANCH   4  27
HETATM   27  O   UNK N   1      36.273  16.708  10.512  0.00  0.00    -0.360 OA
HETATM   28  H   UNK N   1      36.474  16.192  11.268  0.00  0.00     0.217 HD
ENDBRANCH   4  27
TORSDOF 7
ENDMDL
MODEL 4
REMARK VINA RESULT:      -6.4      5.579      8.701
REMARK  7 active torsions:
REMARK  status: ('A' for Active; 'I' for Inactive)
REMARK    1  A    between atoms: O_2  and  C_13 
REMARK    2  A    between atoms: N_3  and  C_7 
REMARK    3  A    between atoms: N_3  and  C_9 
REMARK    4  A    between atoms: N_3  and  C_10 
REMARK    5  A    between atoms: N_4  and  C_12 
REMARK    6  A    between atoms: N_4  and  C_17 
REMARK    7  A    between atoms: C_7  and  C_8 
ROOT
HETATM    1  C   UNK N   1      22.516  19.090   3.722  0.00  0.00     0.005 A 
HETATM    2  C   UNK N   1      23.477  18.495   4.541  0.00  0.00     0.041 A 
HETATM    3  C   UNK N   1      24.788  18.992   4.598  0.00  0.00     0.033 A 
HETATM    4  C   UNK N   1      22.870  20.200   2.935  0.00  0.00     0.073 A 
HETATM    5  C   UNK N   1      25.131  20.092   3.806  0.00  0.00     0.032 A 
HETATM    6  C   UNK N   1      24.177  20.696   2.981  0.00  0.00     0.039 A 
ENDROOT
BRANCH   3   7
HETATM    7  N   UNK N   1      25.784  18.404   5.433  0.00  0.00    -0.355 N 
HETATM    8  H   UNK N   1      25.634  18.454   6.405  0.00  0.00     0.166 HD
BRANCH   7   9
HETATM    9  C   UNK N   1      26.981  17.749   5.001  0.00  0.00     0.046 A 
HETATM   10  C   UNK N   1      28.096  17.688   5.859  0.00  0.00     0.017 A 
HETATM   11  C   UNK N   1      29.263  17.013   5.426  0.00  0.00     0.046 A 
HETATM   12  C   UNK N   1      28.072  18.278   7.130  0.00  0.00     0.018 A 
HETATM   13  N   UNK N   1      29.302  16.435   4.198  0.00  0.00    -0.365 N 
HETATM   14  C   UNK N   1      30.377  16.937   6.265  0.00  0.00     0.054 A 
HETATM   15  C   UNK N   1      28.237  16.483   3.357  0.00  0.00     0.090 A 
ATOM     16  HN  UNK N   1      30.151  15.953   3.901  1.00  0.00     0.165 HD
HETATM   17  C   UNK N   1      27.067  17.135   3.745  0.00  0.00     0.047 A 
HETATM   18  C   UNK N   1      30.344  17.526   7.530  0.00  0.00     0.036 A 
HETATM   19 Cl   UNK N   1      31.743  17.420   8.576  0.00  0.00    -0.084 Cl
HETATM   20  C   UNK N   1      29.195  18.197   7.963  0.00  0.00     0.025 A 
ENDBRANCH   7   9
ENDBRANCH   3   7
BRANCH   1  21
HETATM   21  C   UNK N   1      21.146  18.485   3.668  0.00  0.00     0.313 C 
BRANCH  21  22
HETATM   22  N   UNK N   1      21.062  17.394   2.708  0.00  0.00     0.091 N 
BRANCH  22  23
HETATM   23  C   UNK N   1      20.703  16.205   3.469  0.00  0.00     0.268 C 
HETATM   24  C   UNK N   1      19.489  16.490   4.331  0.00  0.00     0.037 C 
ENDBRANCH  22  23
BRANCH  22  25
HETATM   25  C   UNK N   1      19.933  17.721   1.842  0.00  0.00     0.268 C 
HETATM   26  C   UNK N   1      20.013  16.980   0.515  0.00  0.00     0.037 C 
ENDBRANCH  22  25
ENDBRANCH  21  22
ENDBRANCH   1  21
BRANCH   4  27
HETATM   27  O   UNK N   1      21.972  20.779   2.121  0.00  0.00    -0.360 OA
HETATM   28  H   UNK N   1      21.602  20.295   1.409  0.00  0.00     0.217 HD
ENDBRANCH   4  27
TORSDOF 7
ENDMDL
MODEL 5
REMARK VINA RESULT:      -6.4      3.989      6.657
REMARK  7 active torsions:
REMARK  status: ('A' for Active; 'I' for Inactive)
REMARK    1  A    between atoms: O_2  and  C_13 
REMARK    2  A    between atoms: N_3  and  C_7 
REMARK    3  A    between atoms: N_3  and  C_9 
REMARK    4  A    between atoms: N_3  and  C_10 
REMARK    5  A    between atoms: N_4  and  C_12 
REMARK    6  A    between atoms: N_4  and  C_17 
REMARK    7  A    between atoms: C_7  and  C_8 
ROOT
HETATM    1  C   UNK N   1      24.793  18.440   4.349  0.00  0.00     0.005 A 
HETATM    2  C   UNK N   1      25.705  17.597   4.986  0.00  0.00     0.041 A 
HETATM    3  C   UNK N   1      27.031  17.999   5.206  0.00  0.00     0.033 A 
HETATM    4  C   UNK N   1      25.213  19.709   3.912  0.00  0.00     0.073 A 
HETATM    5  C   UNK N   1      27.440  19.260   4.761  0.00  0.00     0.032 A 
HETATM    6  C   UNK N   1      26.535  20.113   4.121  0.00  0.00     0.039 A 
ENDROOT
BRANCH   3   7
HETATM    7  N   UNK N   1      27.978  17.156   5.860  0.00  0.00    -0.355 N 
HETATM    8  H   UNK N   1      28.200  16.308   5.412  0.00  0.00     0.166 HD
BRANCH   7   9
HETATM    9  C   UNK N   1      28.636  17.417   7.103  0.00  0.00     0.046 A 
HETATM   10  C   UNK N   1      30.043  17.430   7.163  0.00  0.00     0.017 A 
HETATM   11  C   UNK N   1      30.678  17.717   8.396  0.00  0.00     0.046 A 
HETATM   12  C   UNK N   1      30.824  17.168   6.030  0.00  0.00     0.018 A 
HETATM   13  N   UNK N   1      29.936  17.975   9.504  0.00  0.00    -0.365 N 
HETATM   14  C   UNK N   1      32.072  17.740   8.474  0.00  0.00     0.054 A 
HETATM   15  C   UNK N   1      28.578  17.968   9.465  0.00  0.00     0.090 A 
ATOM     16  HN  UNK N   1      30.409  18.179  10.384  1.00  0.00     0.165 HD
HETATM   17  C   UNK N   1      27.912  17.693   8.271  0.00  0.00     0.047 A 
HETATM   18  C   UNK N   1      32.842  17.479   7.340  0.00  0.00     0.036 A 
HETATM   19 Cl   UNK N   1      34.589  17.515   7.447  0.00  0.00    -0.084 Cl
HETATM   20  C   UNK N   1      32.221  17.192   6.119  0.00  0.00     0.025 A 
ENDBRANCH   7   9
ENDBRANCH   3   7
BRANCH   1  21
HETATM   21  C   UNK N   1      23.403  17.937   4.101  0.00  0.00     0.313 C 
BRANCH  21  22
HETATM   22  N   UNK N   1      22.494  18.273   5.188  0.00  0.00     0.091 N 
BRANCH  22  23
HETATM   23  C   UNK N   1      21.324  18.882   4.568  0.00  0.00     0.268 C 
HETATM   24  C   UNK N   1      21.213  18.437   3.123  0.00  0.00     0.037 C 
ENDBRANCH  22  23
BRANCH  22  25
HETATM   25  C   UNK N   1      22.075  16.995   5.756  0.00  0.00     0.268 C 
HETATM   26  C   UNK N   1      21.082  17.188   6.894  0.00  0.00     0.037 C 
ENDBRANCH  22  25
ENDBRANCH  21  22
ENDBRANCH   1  21
BRANCH   4  27
HETATM   27  O   UNK N   1      24.363  20.532   3.276  0.00  0.00    -0.360 OA
HETATM   28  H   UNK N   1      24.255  21.415   3.571  0.00  0.00     0.217 HD
ENDBRANCH   4  27
TORSDOF 7
ENDMDL
MODEL 6
REMARK VINA RESULT:      -6.3      4.790      9.621
REMARK  7 active torsions:
REMARK  status: ('A' for Active; 'I' for Inactive)
REMARK    1  A    between atoms: O_2  and  C_13 
REMARK    2  A    between atoms: N_3  and  C_7 
REMARK    3  A    between atoms: N_3  and  C_9 
REMARK    4  A    between atoms: N_3  and  C_10 
REMARK    5  A    between atoms: N_4  and  C_12 
REMARK    6  A    between atoms: N_4  and  C_17 
REMARK    7  A    between atoms: C_7  and  C_8 
ROOT
HETATM    1  C   UNK N   1      30.384  17.216   7.407  0.00  0.00     0.005 A 
HETATM    2  C   UNK N   1      29.652  17.064   6.228  0.00  0.00     0.041 A 
HETATM    3  C   UNK N   1      28.346  17.566   6.117  0.00  0.00     0.033 A 
HETATM    4  C   UNK N   1      29.800  17.873   8.504  0.00  0.00     0.073 A 
HETATM    5  C   UNK N   1      27.772  18.212   7.217  0.00  0.00     0.032 A 
HETATM    6  C   UNK N   1      28.496  18.369   8.404  0.00  0.00     0.039 A 
ENDROOT
BRANCH   3   7
HETATM    7  N   UNK N   1      27.582  17.428   4.921  0.00  0.00    -0.355 N 
HETATM    8  H   UNK N   1      27.675  16.578   4.432  0.00  0.00     0.166 HD
BRANCH   7   9
HETATM    9  C   UNK N   1      26.697  18.400   4.357  0.00  0.00     0.046 A 
HETATM   10  C   UNK N   1      25.306  18.186   4.392  0.00  0.00     0.017 A 
HETATM   11  C   UNK N   1      24.443  19.171   3.853  0.00  0.00     0.046 A 
HETATM   12  C   UNK N   1      24.760  17.021   4.949  0.00  0.00     0.018 A 
HETATM   13  N   UNK N   1      24.954  20.306   3.311  0.00  0.00    -0.365 N 
HETATM   14  C   UNK N   1      23.059  18.979   3.884  0.00  0.00     0.054 A 
HETATM   15  C   UNK N   1      26.293  20.531   3.270  0.00  0.00     0.090 A 
ATOM     16  HN  UNK N   1      24.319  21.006   2.928  1.00  0.00     0.165 HD
HETATM   17  C   UNK N   1      27.179  19.588   3.791  0.00  0.00     0.047 A 
HETATM   18  C   UNK N   1      22.525  17.816   4.442  0.00  0.00     0.036 A 
HETATM   19 Cl   UNK N   1      20.790  17.588   4.479  0.00  0.00    -0.084 Cl
HETATM   20  C   UNK N   1      23.372  16.838   4.973  0.00  0.00     0.025 A 
ENDBRANCH   7   9
ENDBRANCH   3   7
BRANCH   1  21
HETATM   21  C   UNK N   1      31.756  16.618   7.481  0.00  0.00     0.313 C 
BRANCH  21  22
HETATM   22  N   UNK N   1      32.801  17.607   7.255  0.00  0.00     0.091 N 
BRANCH  22  23
HETATM   23  C   UNK N   1      33.625  17.613   8.456  0.00  0.00     0.268 C 
HETATM   24  C   UNK N   1      34.772  18.591   8.293  0.00  0.00     0.037 C 
ENDBRANCH  22  23
BRANCH  22  25
HETATM   25  C   UNK N   1      33.615  17.075   6.166  0.00  0.00     0.268 C 
HETATM   26  C   UNK N   1      33.093  17.523   4.807  0.00  0.00     0.037 C 
ENDBRANCH  22  25
ENDBRANCH  21  22
ENDBRANCH   1  21
BRANCH   4  27
HETATM   27  O   UNK N   1      30.473  18.014   9.658  0.00  0.00    -0.360 OA
HETATM   28  H   UNK N   1      30.947  18.803   9.833  0.00  0.00     0.217 HD
ENDBRANCH   4  27
TORSDOF 7
ENDMDL
MODEL 7
REMARK VINA RESULT:      -6.3      5.369      8.482
REMARK  7 active torsions:
REMARK  status: ('A' for Active; 'I' for Inactive)
REMARK    1  A    between atoms: O_2  and  C_13 
REMARK    2  A    between atoms: N_3  and  C_7 
REMARK    3  A    between atoms: N_3  and  C_9 
REMARK    4  A    between atoms: N_3  and  C_10 
REMARK    5  A    between atoms: N_4  and  C_12 
REMARK    6  A    between atoms: N_4  and  C_17 
REMARK    7  A    between atoms: C_7  and  C_8 
ROOT
HETATM    1  C   UNK N   1      23.496  19.183   3.845  0.00  0.00     0.005 A 
HETATM    2  C   UNK N   1      24.288  18.106   4.248  0.00  0.00     0.041 A 
HETATM    3  C   UNK N   1      25.684  18.148   4.121  0.00  0.00     0.033 A 
HETATM    4  C   UNK N   1      24.107  20.322   3.294  0.00  0.00     0.073 A 
HETATM    5  C   UNK N   1      26.282  19.284   3.565  0.00  0.00     0.032 A 
HETATM    6  C   UNK N   1      25.498  20.368   3.157  0.00  0.00     0.039 A 
ENDROOT
BRANCH   3   7
HETATM    7  N   UNK N   1      26.514  17.063   4.533  0.00  0.00    -0.355 N 
HETATM    8  H   UNK N   1      26.241  16.162   4.242  0.00  0.00     0.166 HD
BRANCH   7   9
HETATM    9  C   UNK N   1      27.701  17.149   5.327  0.00  0.00     0.046 A 
HETATM   10  C   UNK N   1      28.961  16.960   4.729  0.00  0.00     0.017 A 
HETATM   11  C   UNK N   1      30.126  17.076   5.525  0.00  0.00     0.046 A 
HETATM   12  C   UNK N   1      29.084  16.662   3.365  0.00  0.00     0.018 A 
HETATM   13  N   UNK N   1      30.025  17.366   6.847  0.00  0.00    -0.365 N 
HETATM   14  C   UNK N   1      31.386  16.897   4.948  0.00  0.00     0.054 A 
HETATM   15  C   UNK N   1      28.818  17.552   7.442  0.00  0.00     0.090 A 
ATOM     16  HN  UNK N   1      30.875  17.445   7.407  1.00  0.00     0.165 HD
HETATM   17  C   UNK N   1      27.646  17.450   6.695  0.00  0.00     0.047 A 
HETATM   18  C   UNK N   1      31.499  16.602   3.588  0.00  0.00     0.036 A 
HETATM   19 Cl   UNK N   1      33.082  16.385   2.874  0.00  0.00    -0.084 Cl
HETATM   20  C   UNK N   1      30.351  16.484   2.797  0.00  0.00     0.025 A 
ENDBRANCH   7   9
ENDBRANCH   3   7
BRANCH   1  21
HETATM   21  C   UNK N   1      22.007  19.061   3.963  0.00  0.00     0.313 C 
BRANCH  21  22
HETATM   22  N   UNK N   1      21.396  18.565   2.738  0.00  0.00     0.091 N 
BRANCH  22  23
HETATM   23  C   UNK N   1      20.743  17.309   3.086  0.00  0.00     0.268 C 
HETATM   24  C   UNK N   1      20.329  16.574   1.827  0.00  0.00     0.037 C 
ENDBRANCH  22  23
BRANCH  22  25
HETATM   25  C   UNK N   1      20.349  19.527   2.405  0.00  0.00     0.268 C 
HETATM   26  C   UNK N   1      20.709  20.337   1.167  0.00  0.00     0.037 C 
ENDBRANCH  22  25
ENDBRANCH  21  22
ENDBRANCH   1  21
BRANCH   4  27
HETATM   27  O   UNK N   1      23.368  21.364   2.876  0.00  0.00    -0.360 OA
HETATM   28  H   UNK N   1      22.894  21.311   2.070  0.00  0.00     0.217 HD
ENDBRANCH   4  27
TORSDOF 7
ENDMDL
MODEL 8
REMARK VINA RESULT:      -6.3     11.071     13.722
REMARK  7 active torsions:
REMARK  status: ('A' for Active; 'I' for Inactive)
REMARK    1  A    between atoms: O_2  and  C_13 
REMARK    2  A    between atoms: N_3  and  C_7 
REMARK    3  A    between atoms: N_3  and  C_9 
REMARK    4  A    between atoms: N_3  and  C_10 
REMARK    5  A    between atoms: N_4  and  C_12 
REMARK    6  A    between atoms: N_4  and  C_17 
REMARK    7  A    between atoms: C_7  and  C_8 
ROOT
HETATM    1  C   UNK N   1      21.290  14.372   8.453  0.00  0.00     0.005 A 
HETATM    2  C   UNK N   1      21.953  15.092   7.457  0.00  0.00     0.041 A 
HETATM    3  C   UNK N   1      21.468  16.331   7.015  0.00  0.00     0.033 A 
HETATM    4  C   UNK N   1      20.112  14.893   9.014  0.00  0.00     0.073 A 
HETATM    5  C   UNK N   1      20.290  16.838   7.575  0.00  0.00     0.032 A 
HETATM    6  C   UNK N   1      19.617  16.125   8.573  0.00  0.00     0.039 A 
ENDROOT
BRANCH   3   7
HETATM    7  N   UNK N   1      22.132  17.086   6.004  0.00  0.00    -0.355 N 
HETATM    8  H   UNK N   1      23.086  17.281   6.152  0.00  0.00     0.166 HD
BRANCH   7   9
HETATM    9  C   UNK N   1      21.553  17.592   4.797  0.00  0.00     0.046 A 
HETATM   10  C   UNK N   1      21.159  16.700   3.781  0.00  0.00     0.017 A 
HETATM   11  C   UNK N   1      20.562  17.216   2.604  0.00  0.00     0.046 A 
HETATM   12  C   UNK N   1      21.342  15.317   3.911  0.00  0.00     0.018 A 
HETATM   13  N   UNK N   1      20.376  18.553   2.462  0.00  0.00    -0.365 N 
HETATM   14  C   UNK N   1      20.159  16.347   1.588  0.00  0.00     0.054 A 
HETATM   15  C   UNK N   1      20.749  19.428   3.432  0.00  0.00     0.090 A 
ATOM     16  HN  UNK N   1      19.945  18.909   1.609  1.00  0.00     0.165 HD
HETATM   17  C   UNK N   1      21.337  18.963   4.607  0.00  0.00     0.047 A 
HETATM   18  C   UNK N   1      20.345  14.970   1.728  0.00  0.00     0.036 A 
HETATM   19 Cl   UNK N   1      19.832  13.890   0.450  0.00  0.00    -0.084 Cl
HETATM   20  C   UNK N   1      20.936  14.455   2.886  0.00  0.00     0.025 A 
ENDBRANCH   7   9
ENDBRANCH   3   7
BRANCH   1  21
HETATM   21  C   UNK N   1      21.832  13.033   8.851  0.00  0.00     0.313 C 
BRANCH  21  22
HETATM   22  N   UNK N   1      22.671  13.108  10.039  0.00  0.00     0.091 N 
BRANCH  22  23
HETATM   23  C   UNK N   1      22.251  12.014  10.906  0.00  0.00     0.268 C 
HETATM   24  C   UNK N   1      23.143  11.951  12.129  0.00  0.00     0.037 C 
ENDBRANCH  22  23
BRANCH  22  25
HETATM   25  C   UNK N   1      24.025  12.812   9.582  0.00  0.00     0.268 C 
HETATM   26  C   UNK N   1      24.028  11.738   8.504  0.00  0.00     0.037 C 
ENDBRANCH  22  25
ENDBRANCH  21  22
ENDBRANCH   1  21
BRANCH   4  27
HETATM   27  O   UNK N   1      19.441  14.213   9.958  0.00  0.00    -0.360 OA
HETATM   28  H   UNK N   1      19.453  13.276   9.961  0.00  0.00     0.217 HD
ENDBRANCH   4  27
TORSDOF 7
ENDMDL
MODEL 9
REMARK VINA RESULT:      -6.2      7.801     11.084
REMARK  7 active torsions:
REMARK  status: ('A' for Active; 'I' for Inactive)
REMARK    1  A    between atoms: O_2  and  C_13 
REMARK    2  A    between atoms: N_3  and  C_7 
REMARK    3  A    between atoms: N_3  and  C_9 
REMARK    4  A    between atoms: N_3  and  C_10 
REMARK    5  A    between atoms: N_4  and  C_12 
REMARK    6  A    between atoms: N_4  and  C_17 
REMARK    7  A    between atoms: C_7  and  C_8 
ROOT
HETATM    1  C   UNK N   1      24.233  19.242   3.996  0.00  0.00     0.005 A 
HETATM    2  C   UNK N   1      23.979  18.060   4.694  0.00  0.00     0.041 A 
HETATM    3  C   UNK N   1      22.682  17.532   4.776  0.00  0.00     0.033 A 
HETATM    4  C   UNK N   1      23.169  19.919   3.373  0.00  0.00     0.073 A 
HETATM    5  C   UNK N   1      21.630  18.216   4.158  0.00  0.00     0.032 A 
HETATM    6  C   UNK N   1      21.872  19.402   3.457  0.00  0.00     0.039 A 
ENDROOT
BRANCH   3   7
HETATM    7  N   UNK N   1      22.401  16.322   5.478  0.00  0.00    -0.355 N 
HETATM    8  H   UNK N   1      22.770  15.493   5.096  0.00  0.00     0.166 HD
BRANCH   7   9
HETATM    9  C   UNK N   1      21.636  16.191   6.680  0.00  0.00     0.046 A 
HETATM   10  C   UNK N   1      21.872  15.108   7.547  0.00  0.00     0.017 A 
HETATM   11  C   UNK N   1      21.124  15.008   8.746  0.00  0.00     0.046 A 
HETATM   12  C   UNK N   1      22.831  14.130   7.250  0.00  0.00     0.018 A 
HETATM   13  N   UNK N   1      20.192  15.947   9.050  0.00  0.00    -0.365 N 
HETATM   14  C   UNK N   1      21.348  13.944   9.622  0.00  0.00     0.054 A 
HETATM   15  C   UNK N   1      19.951  17.000   8.225  0.00  0.00     0.090 A 
ATOM     16  HN  UNK N   1      19.661  15.861   9.916  1.00  0.00     0.165 HD
HETATM   17  C   UNK N   1      20.666  17.138   7.037  0.00  0.00     0.047 A 
HETATM   18  C   UNK N   1      22.307  12.976   9.318  0.00  0.00     0.036 A 
HETATM   19 Cl   UNK N   1      22.583  11.649  10.425  0.00  0.00    -0.084 Cl
HETATM   20  C   UNK N   1      23.047  13.067   8.135  0.00  0.00     0.025 A 
ENDBRANCH   7   9
ENDBRANCH   3   7
BRANCH   1  21
HETATM   21  C   UNK N   1      25.630  19.782   3.983  0.00  0.00     0.313 C 
BRANCH  21  22
HETATM   22  N   UNK N   1      26.313  19.575   5.253  0.00  0.00     0.091 N 
BRANCH  22  23
HETATM   23  C   UNK N   1      27.712  19.326   4.929  0.00  0.00     0.268 C 
HETATM   24  C   UNK N   1      27.829  18.098   4.050  0.00  0.00     0.037 C 
ENDBRANCH  22  23
BRANCH  22  25
HETATM   25  C   UNK N   1      26.243  20.857   5.948  0.00  0.00     0.268 C 
HETATM   26  C   UNK N   1      27.631  21.390   6.277  0.00  0.00     0.037 C 
ENDBRANCH  22  25
ENDBRANCH  21  22
ENDBRANCH   1  21
BRANCH   4  27
HETATM   27  O   UNK N   1      23.380  21.070   2.714  0.00  0.00    -0.360 OA
HETATM   28  H   UNK N   1      22.724  21.407   2.135  0.00  0.00     0.217 HD
ENDBRANCH   4  27
TORSDOF 7
ENDMDL
