REMARK  7 active torsions:
REMARK  status: ('A' for Active; 'I' for Inactive)
REMARK    1  A    between atoms: O_2  and  C_13 
REMARK    2  A    between atoms: N_3  and  C_7 
REMARK    3  A    between atoms: N_3  and  C_9 
REMARK    4  A    between atoms: N_3  and  C_10 
REMARK    5  A    between atoms: N_4  and  C_12 
REMARK    6  A    between atoms: N_4  and  C_17 
REMARK    7  A    between atoms: C_7  and  C_8 
ROOT
HETATM    1  C   UNK N   1       3.879  -1.640   0.423  0.00  0.00     0.005 A 
HETATM    2  C   UNK N   1       4.992  -0.799   0.366  0.00  0.00     0.041 A 
HETATM    3  C   UNK N   1       6.230  -1.267  -0.099  0.00  0.00     0.033 A 
HETATM    4  C   UNK N   1       4.004  -2.980   0.017  0.00  0.00     0.073 A 
HETATM    5  C   UNK N   1       6.345  -2.604  -0.494  0.00  0.00     0.032 A 
HETATM    6  C   UNK N   1       5.237  -3.456  -0.440  0.00  0.00     0.039 A 
ENDROOT
BRANCH   3   7
HETATM    7  N   UNK N   1       7.378  -0.424  -0.172  0.00  0.00    -0.355 N 
HETATM    8  H   UNK N   1       8.237  -0.862  -0.372  0.00  0.00     0.166 HD
BRANCH   7   9
HETATM    9  C   UNK N   1       7.409   0.994   0.018  0.00  0.00     0.046 A 
HETATM   10  C   UNK N   1       8.638   1.680  -0.019  0.00  0.00     0.017 A 
HETATM   11  C   UNK N   1       8.647   3.087   0.144  0.00  0.00     0.046 A 
HETATM   12  C   UNK N   1       9.848   1.001  -0.216  0.00  0.00     0.018 A 
HETATM   13  N   UNK N   1       7.484   3.761   0.334  0.00  0.00    -0.365 N 
HETATM   14  C   UNK N   1       9.856   3.786   0.104  0.00  0.00     0.054 A 
HETATM   15  C   UNK N   1       6.289   3.116   0.372  0.00  0.00     0.090 A 
ATOM     16  HN  UNK N   1       7.508   4.774   0.450  1.00  0.00     0.165 HD
HETATM   17  C   UNK N   1       6.234   1.732   0.213  0.00  0.00     0.047 A 
HETATM   18  C   UNK N   1      11.056   3.101  -0.094  0.00  0.00     0.036 A 
HETATM   19 Cl   UNK N   1      12.564   3.987  -0.147  0.00  0.00    -0.084 Cl
HETATM   20  C   UNK N   1      11.054   1.711  -0.253  0.00  0.00     0.025 A 
ENDBRANCH   7   9
ENDBRANCH   3   7
BRANCH   1  21
HETATM   21  C   UNK N   1       2.596  -1.095   0.972  0.00  0.00     0.313 C 
BRANCH  21  22
HETATM   22  N   UNK N   1       1.609  -0.852  -0.071  0.00  0.00     0.091 N 
BRANCH  22  23
HETATM   23  C   UNK N   1       0.422  -1.609   0.305  0.00  0.00     0.268 C 
HETATM   24  C   UNK N   1       0.220  -2.765  -0.654  0.00  0.00     0.037 C 
ENDBRANCH  22  23
BRANCH  22  25
HETATM   25  C   UNK N   1       1.276   0.566   0.028  0.00  0.00     0.268 C 
HETATM   26  C   UNK N   1       0.331   0.997  -1.085  0.00  0.00     0.037 C 
ENDBRANCH  22  25
ENDBRANCH  21  22
ENDBRANCH   1  21
BRANCH   4  27
HETATM   27  O   UNK N   1       2.956  -3.818   0.082  0.00  0.00    -0.360 OA
HETATM   28  H   UNK N   1       2.084  -3.478   0.127  0.00  0.00     0.217 HD
ENDBRANCH   4  27
TORSDOF 7
