REMARK  3 active torsions:
REMARK  status: ('A' for Active; 'I' for Inactive)
REMARK    1  A    between atoms: N_6  and  N_7 
REMARK    2  A    between atoms: N_9  and  C_16 
REMARK    3  A    between atoms: C_13  and  C_14 
ROOT
HETATM    1  N   UNK N   1       6.520   0.849  -0.000  0.00  0.00    -0.303 N 
ATOM      2  HN  UNK N   1       6.398   1.862  -0.000  1.00  0.00     0.186 HD
HETATM    3  C   UNK N   1       5.484   0.088  -0.000  0.00  0.00     0.144 C 
ENDROOT
BRANCH   3   4
HETATM    4  C   UNK N   1       4.112   0.590  -0.000  0.00  0.00     0.095 A 
HETATM    5  O   UNK N   1       3.090  -0.222  -0.000  0.00  0.00    -0.287 OA
HETATM    6  C   UNK N   1       1.994   0.484  -0.000  0.00  0.00     0.215 A 
HETATM    7  C   UNK N   1       2.289   1.837   0.000  0.00  0.00     0.065 A 
HETATM    8  C   UNK N   1       3.678   1.907   0.000  0.00  0.00     0.043 A 
BRANCH   6   9
HETATM    9  N   UNK N   1       0.702  -0.092  -0.000  0.00  0.00    -0.090 N 
HETATM   10  O   UNK N   1      -0.368   0.671   0.000  0.00  0.00    -0.530 OA
HETATM   11  O   UNK N   1       0.583  -1.281  -0.000  0.00  0.00    -0.530 OA
ENDBRANCH   6   9
ENDBRANCH   3   4
BRANCH   1  12
HETATM   12  N   UNK N   1       7.798   0.316  -0.000  0.00  0.00    -0.235 N 
HETATM   13  C   UNK N   1       8.984   1.115  -0.000  0.00  0.00     0.181 A 
HETATM   14  C   UNK N   1      10.103   0.028   0.000  0.00  0.00     0.202 A 
HETATM   15  O   UNK N   1       9.433  -1.186   0.000  0.00  0.00    -0.301 OA
HETATM   16  C   UNK N   1       8.120  -0.983   0.000  0.00  0.00     0.381 A 
HETATM   17  O   UNK N   1       7.307  -1.895   0.000  0.00  0.00    -0.236 OA
ENDBRANCH   1  12
TORSDOF 3
