MODEL 1
REMARK VINA RESULT:      -6.0      0.000      0.000
REMARK  3 active torsions:
REMARK  status: ('A' for Active; 'I' for Inactive)
REMARK    1  A    between atoms: N_6  and  N_7 
REMARK    2  A    between atoms: N_9  and  C_16 
REMARK    3  A    between atoms: C_13  and  C_14 
ROOT
HETATM    1  N   UNK N   1      34.906  14.043  12.176  0.00  0.00    -0.303 N 
ATOM      2  HN  UNK N   1      34.223  13.471  11.679  1.00  0.00     0.186 HD
HETATM    3  C   UNK N   1      35.236  15.190  11.699  0.00  0.00     0.144 C 
ENDROOT
BRANCH   3   4
HETATM    4  C   UNK N   1      34.685  15.741  10.463  0.00  0.00     0.095 A 
HETATM    5  O   UNK N   1      35.143  16.850   9.949  0.00  0.00    -0.287 OA
HETATM    6  C   UNK N   1      34.479  17.110   8.857  0.00  0.00     0.215 A 
HETATM    7  C   UNK N   1      33.528  16.131   8.623  0.00  0.00     0.065 A 
HETATM    8  C   UNK N   1      33.663  15.233   9.676  0.00  0.00     0.043 A 
BRANCH   6   9
HETATM    9  N   UNK N   1      34.727  18.247   8.053  0.00  0.00    -0.090 N 
HETATM   10  O   UNK N   1      35.318  19.306   8.559  0.00  0.00    -0.530 OA
HETATM   11  O   UNK N   1      34.398  18.244   6.904  0.00  0.00    -0.530 OA
ENDBRANCH   6   9
ENDBRANCH   3   4
BRANCH   1  12
HETATM   12  N   UNK N   1      35.462  13.571  13.353  0.00  0.00    -0.235 N 
HETATM   13  C   UNK N   1      36.487  14.263  14.072  0.00  0.00     0.181 A 
HETATM   14  C   UNK N   1      36.731  13.309  15.282  0.00  0.00     0.202 A 
HETATM   15  O   UNK N   1      35.852  12.253  15.096  0.00  0.00    -0.301 OA
HETATM   16  C   UNK N   1      35.145  12.436  13.986  0.00  0.00     0.381 A 
HETATM   17  O   UNK N   1      34.299  11.644  13.599  0.00  0.00    -0.236 OA
ENDBRANCH   1  12
TORSDOF 3
ENDMDL
MODEL 2
REMARK VINA RESULT:      -6.0      1.433      7.095
REMARK  3 active torsions:
REMARK  status: ('A' for Active; 'I' for Inactive)
REMARK    1  A    between atoms: N_6  and  N_7 
REMARK    2  A    between atoms: N_9  and  C_16 
REMARK    3  A    between atoms: C_13  and  C_14 
ROOT
HETATM    1  N   UNK N   1      34.668  16.638  10.132  0.00  0.00    -0.303 N 
ATOM      2  HN  UNK N   1      34.970  17.305  10.843  1.00  0.00     0.186 HD
HETATM    3  C   UNK N   1      34.709  15.379  10.389  0.00  0.00     0.144 C 
ENDROOT
BRANCH   3   4
HETATM    4  C   UNK N   1      35.169  14.828  11.661  0.00  0.00     0.095 A 
HETATM    5  O   UNK N   1      34.582  13.800  12.210  0.00  0.00    -0.287 OA
HETATM    6  C   UNK N   1      35.188  13.519  13.329  0.00  0.00     0.215 A 
HETATM    7  C   UNK N   1      36.235  14.399  13.548  0.00  0.00     0.065 A 
HETATM    8  C   UNK N   1      36.222  15.258  12.454  0.00  0.00     0.043 A 
BRANCH   6   9
HETATM    9  N   UNK N   1      34.799  12.453  14.174  0.00  0.00    -0.090 N 
HETATM   10  O   UNK N   1      34.185  12.694  15.311  0.00  0.00    -0.530 OA
HETATM   11  O   UNK N   1      35.030  11.326  13.852  0.00  0.00    -0.530 OA
ENDBRANCH   6   9
ENDBRANCH   3   4
BRANCH   1  12
HETATM   12  N   UNK N   1      34.223  17.103   8.906  0.00  0.00    -0.235 N 
HETATM   13  C   UNK N   1      33.274  16.403   8.096  0.00  0.00     0.181 A 
HETATM   14  C   UNK N   1      33.140  17.353   6.866  0.00  0.00     0.202 A 
HETATM   15  O   UNK N   1      33.991  18.415   7.130  0.00  0.00    -0.301 OA
HETATM   16  C   UNK N   1      34.592  18.239   8.302  0.00  0.00     0.381 A 
HETATM   17  O   UNK N   1      35.392  19.037   8.764  0.00  0.00    -0.236 OA
ENDBRANCH   1  12
TORSDOF 3
ENDMDL
MODEL 3
REMARK VINA RESULT:      -5.8     14.238     15.899
REMARK  3 active torsions:
REMARK  status: ('A' for Active; 'I' for Inactive)
REMARK    1  A    between atoms: N_6  and  N_7 
REMARK    2  A    between atoms: N_9  and  C_16 
REMARK    3  A    between atoms: C_13  and  C_14 
ROOT
HETATM    1  N   UNK N   1      22.508  18.986   4.485  0.00  0.00    -0.303 N 
ATOM      2  HN  UNK N   1      21.534  19.263   4.364  1.00  0.00     0.186 HD
HETATM    3  C   UNK N   1      22.810  18.102   5.367  0.00  0.00     0.144 C 
ENDROOT
BRANCH   3   4
HETATM    4  C   UNK N   1      21.825  17.451   6.229  0.00  0.00     0.095 A 
HETATM    5  O   UNK N   1      21.139  18.127   7.109  0.00  0.00    -0.287 OA
HETATM    6  C   UNK N   1      20.341  17.309   7.736  0.00  0.00     0.215 A 
HETATM    7  C   UNK N   1      20.495  16.019   7.257  0.00  0.00     0.065 A 
HETATM    8  C   UNK N   1      21.469  16.112   6.269  0.00  0.00     0.043 A 
BRANCH   6   9
HETATM    9  N   UNK N   1      19.455  17.723   8.759  0.00  0.00    -0.090 N 
HETATM   10  O   UNK N   1      18.316  17.096   8.948  0.00  0.00    -0.530 OA
HETATM   11  O   UNK N   1      19.745  18.650   9.455  0.00  0.00    -0.530 OA
ENDBRANCH   6   9
ENDBRANCH   3   4
BRANCH   1  12
HETATM   12  N   UNK N   1      23.485  19.570   3.695  0.00  0.00    -0.235 N 
HETATM   13  C   UNK N   1      24.843  19.122   3.664  0.00  0.00     0.181 A 
HETATM   14  C   UNK N   1      25.482  20.107   2.637  0.00  0.00     0.202 A 
HETATM   15  O   UNK N   1      24.448  20.943   2.241  0.00  0.00    -0.301 OA
HETATM   16  C   UNK N   1      23.325  20.607   2.865  0.00  0.00     0.381 A 
HETATM   17  O   UNK N   1      22.267  21.192   2.689  0.00  0.00    -0.236 OA
ENDBRANCH   1  12
TORSDOF 3
ENDMDL
MODEL 4
REMARK VINA RESULT:      -5.7     16.542     19.140
REMARK  3 active torsions:
REMARK  status: ('A' for Active; 'I' for Inactive)
REMARK    1  A    between atoms: N_6  and  N_7 
REMARK    2  A    between atoms: N_9  and  C_16 
REMARK    3  A    between atoms: C_13  and  C_14 
ROOT
HETATM    1  N   UNK N   1      29.671  24.012  -3.937  0.00  0.00    -0.303 N 
ATOM      2  HN  UNK N   1      29.864  25.013  -3.994  1.00  0.00     0.186 HD
HETATM    3  C   UNK N   1      28.481  23.584  -4.168  0.00  0.00     0.144 C 
ENDROOT
BRANCH   3   4
HETATM    4  C   UNK N   1      27.361  24.456  -4.515  0.00  0.00     0.095 A 
HETATM    5  O   UNK N   1      27.169  25.593  -3.903  0.00  0.00    -0.287 OA
HETATM    6  C   UNK N   1      26.110  26.164  -4.404  0.00  0.00     0.215 A 
HETATM    7  C   UNK N   1      25.559  25.376  -5.400  0.00  0.00     0.065 A 
HETATM    8  C   UNK N   1      26.379  24.255  -5.473  0.00  0.00     0.043 A 
BRANCH   6   9
HETATM    9  N   UNK N   1      25.623  27.417  -3.961  0.00  0.00    -0.090 N 
HETATM   10  O   UNK N   1      25.704  27.753  -2.693  0.00  0.00    -0.530 OA
HETATM   11  O   UNK N   1      25.135  28.174  -4.746  0.00  0.00    -0.530 OA
ENDBRANCH   6   9
ENDBRANCH   3   4
BRANCH   1  12
HETATM   12  N   UNK N   1      30.694  23.138  -3.613  0.00  0.00    -0.235 N 
HETATM   13  C   UNK N   1      31.592  22.584  -4.578  0.00  0.00     0.181 A 
HETATM   14  C   UNK N   1      32.513  21.695  -3.687  0.00  0.00     0.202 A 
HETATM   15  O   UNK N   1      32.037  21.856  -2.395  0.00  0.00    -0.301 OA
HETATM   16  C   UNK N   1      30.999  22.685  -2.391  0.00  0.00     0.381 A 
HETATM   17  O   UNK N   1      30.398  22.992  -1.372  0.00  0.00    -0.236 OA
ENDBRANCH   1  12
TORSDOF 3
ENDMDL
MODEL 5
REMARK VINA RESULT:      -5.6      3.199      4.777
REMARK  3 active torsions:
REMARK  status: ('A' for Active; 'I' for Inactive)
REMARK    1  A    between atoms: N_6  and  N_7 
REMARK    2  A    between atoms: N_9  and  C_16 
REMARK    3  A    between atoms: C_13  and  C_14 
ROOT
HETATM    1  N   UNK N   1      35.313  13.056  16.142  0.00  0.00    -0.303 N 
ATOM      2  HN  UNK N   1      34.422  13.175  15.659  1.00  0.00     0.186 HD
HETATM    3  C   UNK N   1      36.409  13.132  15.475  0.00  0.00     0.144 C 
ENDROOT
BRANCH   3   4
HETATM    4  C   UNK N   1      36.464  13.384  14.037  0.00  0.00     0.095 A 
HETATM    5  O   UNK N   1      36.035  14.505  13.525  0.00  0.00    -0.287 OA
HETATM    6  C   UNK N   1      36.200  14.466  12.233  0.00  0.00     0.215 A 
HETATM    7  C   UNK N   1      36.768  13.262  11.853  0.00  0.00     0.065 A 
HETATM    8  C   UNK N   1      36.941  12.551  13.036  0.00  0.00     0.043 A 
BRANCH   6   9
HETATM    9  N   UNK N   1      35.837  15.529  11.373  0.00  0.00    -0.090 N 
HETATM   10  O   UNK N   1      34.573  15.758  11.093  0.00  0.00    -0.530 OA
HETATM   11  O   UNK N   1      36.685  16.225  10.898  0.00  0.00    -0.530 OA
ENDBRANCH   6   9
ENDBRANCH   3   4
BRANCH   1  12
HETATM   12  N   UNK N   1      35.322  12.815  17.506  0.00  0.00    -0.235 N 
HETATM   13  C   UNK N   1      35.336  11.502  18.073  0.00  0.00     0.181 A 
HETATM   14  C   UNK N   1      35.341  11.813  19.601  0.00  0.00     0.202 A 
HETATM   15  O   UNK N   1      35.329  13.197  19.693  0.00  0.00    -0.301 OA
HETATM   16  C   UNK N   1      35.318  13.735  18.478  0.00  0.00     0.381 A 
HETATM   17  O   UNK N   1      35.306  14.941  18.286  0.00  0.00    -0.236 OA
ENDBRANCH   1  12
TORSDOF 3
ENDMDL
MODEL 6
REMARK VINA RESULT:      -5.3      7.010     10.270
REMARK  3 active torsions:
REMARK  status: ('A' for Active; 'I' for Inactive)
REMARK    1  A    between atoms: N_6  and  N_7 
REMARK    2  A    between atoms: N_9  and  C_16 
REMARK    3  A    between atoms: C_13  and  C_14 
ROOT
HETATM    1  N   UNK N   1      28.969  18.720   4.393  0.00  0.00    -0.303 N 
ATOM      2  HN  UNK N   1      29.501  19.395   3.842  1.00  0.00     0.186 HD
HETATM    3  C   UNK N   1      29.563  17.683   4.867  0.00  0.00     0.144 C 
ENDROOT
BRANCH   3   4
HETATM    4  C   UNK N   1      30.982  17.401   4.663  0.00  0.00     0.095 A 
HETATM    5  O   UNK N   1      31.834  17.447   5.651  0.00  0.00    -0.287 OA
HETATM    6  C   UNK N   1      33.020  17.156   5.196  0.00  0.00     0.215 A 
HETATM    7  C   UNK N   1      32.968  16.901   3.836  0.00  0.00     0.065 A 
HETATM    8  C   UNK N   1      31.632  17.062   3.486  0.00  0.00     0.043 A 
BRANCH   6   9
HETATM    9  N   UNK N   1      34.175  17.117   6.012  0.00  0.00    -0.090 N 
HETATM   10  O   UNK N   1      34.974  16.074   5.988  0.00  0.00    -0.530 OA
HETATM   11  O   UNK N   1      34.425  18.040   6.729  0.00  0.00    -0.530 OA
ENDBRANCH   6   9
ENDBRANCH   3   4
BRANCH   1  12
HETATM   12  N   UNK N   1      27.620  18.935   4.618  0.00  0.00    -0.235 N 
HETATM   13  C   UNK N   1      26.600  18.013   4.227  0.00  0.00     0.181 A 
HETATM   14  C   UNK N   1      25.307  18.740   4.712  0.00  0.00     0.202 A 
HETATM   15  O   UNK N   1      25.747  19.923   5.287  0.00  0.00    -0.301 OA
HETATM   16  C   UNK N   1      27.071  20.000   5.215  0.00  0.00     0.381 A 
HETATM   17  O   UNK N   1      27.706  20.949   5.652  0.00  0.00    -0.236 OA
ENDBRANCH   1  12
TORSDOF 3
ENDMDL
MODEL 7
REMARK VINA RESULT:      -5.3      4.202      6.084
REMARK  3 active torsions:
REMARK  status: ('A' for Active; 'I' for Inactive)
REMARK    1  A    between atoms: N_6  and  N_7 
REMARK    2  A    between atoms: N_9  and  C_16 
REMARK    3  A    between atoms: C_13  and  C_14 
ROOT
HETATM    1  N   UNK N   1      32.715  16.977   9.233  0.00  0.00    -0.303 N 
ATOM      2  HN  UNK N   1      32.711  17.886   9.697  1.00  0.00     0.186 HD
HETATM    3  C   UNK N   1      31.653  16.567   8.637  0.00  0.00     0.144 C 
ENDROOT
BRANCH   3   4
HETATM    4  C   UNK N   1      30.411  17.334   8.579  0.00  0.00     0.095 A 
HETATM    5  O   UNK N   1      29.869  17.666   7.439  0.00  0.00    -0.287 OA
HETATM    6  C   UNK N   1      28.778  18.341   7.675  0.00  0.00     0.215 A 
HETATM    7  C   UNK N   1      28.574  18.471   9.038  0.00  0.00     0.065 A 
HETATM    8  C   UNK N   1      29.644  17.811   9.632  0.00  0.00     0.043 A 
BRANCH   6   9
HETATM    9  N   UNK N   1      27.947  18.852   6.651  0.00  0.00    -0.090 N 
HETATM   10  O   UNK N   1      27.302  18.037   5.846  0.00  0.00    -0.530 OA
HETATM   11  O   UNK N   1      27.831  20.034   6.515  0.00  0.00    -0.530 OA
ENDBRANCH   6   9
ENDBRANCH   3   4
BRANCH   1  12
HETATM   12  N   UNK N   1      33.865  16.205   9.255  0.00  0.00    -0.235 N 
HETATM   13  C   UNK N   1      33.908  14.845   8.817  0.00  0.00     0.181 A 
HETATM   14  C   UNK N   1      35.405  14.478   9.057  0.00  0.00     0.202 A 
HETATM   15  O   UNK N   1      35.984  15.626   9.576  0.00  0.00    -0.301 OA
HETATM   16  C   UNK N   1      35.076  16.591   9.675  0.00  0.00     0.381 A 
HETATM   17  O   UNK N   1      35.334  17.704  10.105  0.00  0.00    -0.236 OA
ENDBRANCH   1  12
TORSDOF 3
ENDMDL
MODEL 8
REMARK VINA RESULT:      -5.2      8.432     10.728
REMARK  3 active torsions:
REMARK  status: ('A' for Active; 'I' for Inactive)
REMARK    1  A    between atoms: N_6  and  N_7 
REMARK    2  A    between atoms: N_9  and  C_16 
REMARK    3  A    between atoms: C_13  and  C_14 
ROOT
HETATM    1  N   UNK N   1      28.372  18.591   6.321  0.00  0.00    -0.303 N 
ATOM      2  HN  UNK N   1      28.888  18.445   5.454  1.00  0.00     0.186 HD
HETATM    3  C   UNK N   1      27.226  19.174   6.284  0.00  0.00     0.144 C 
ENDROOT
BRANCH   3   4
HETATM    4  C   UNK N   1      26.602  19.652   5.053  0.00  0.00     0.095 A 
HETATM    5  O   UNK N   1      25.305  19.657   4.905  0.00  0.00    -0.287 OA
HETATM    6  C   UNK N   1      25.020  20.129   3.724  0.00  0.00     0.215 A 
HETATM    7  C   UNK N   1      26.178  20.458   3.041  0.00  0.00     0.065 A 
HETATM    8  C   UNK N   1      27.216  20.146   3.912  0.00  0.00     0.043 A 
BRANCH   6   9
HETATM    9  N   UNK N   1      23.696  20.269   3.245  0.00  0.00    -0.090 N 
HETATM   10  O   UNK N   1      22.703  19.644   3.838  0.00  0.00    -0.530 OA
HETATM   11  O   UNK N   1      23.479  20.960   2.295  0.00  0.00    -0.530 OA
ENDBRANCH   6   9
ENDBRANCH   3   4
BRANCH   1  12
HETATM   12  N   UNK N   1      28.915  18.159   7.519  0.00  0.00    -0.235 N 
HETATM   13  C   UNK N   1      28.287  18.363   8.788  0.00  0.00     0.181 A 
HETATM   14  C   UNK N   1      29.306  17.695   9.762  0.00  0.00     0.202 A 
HETATM   15  O   UNK N   1      30.328  17.222   8.953  0.00  0.00    -0.301 OA
HETATM   16  C   UNK N   1      30.071  17.505   7.680  0.00  0.00     0.381 A 
HETATM   17  O   UNK N   1      30.821  17.194   6.767  0.00  0.00    -0.236 OA
ENDBRANCH   1  12
TORSDOF 3
ENDMDL
MODEL 9
REMARK VINA RESULT:      -5.2     14.394     16.776
REMARK  3 active torsions:
REMARK  status: ('A' for Active; 'I' for Inactive)
REMARK    1  A    between atoms: N_6  and  N_7 
REMARK    2  A    between atoms: N_9  and  C_16 
REMARK    3  A    between atoms: C_13  and  C_14 
ROOT
HETATM    1  N   UNK N   1      21.197  18.802   4.689  0.00  0.00    -0.303 N 
ATOM      2  HN  UNK N   1      21.002  19.266   5.576  1.00  0.00     0.186 HD
HETATM    3  C   UNK N   1      21.408  17.534   4.673  0.00  0.00     0.144 C 
ENDROOT
BRANCH   3   4
HETATM    4  C   UNK N   1      21.385  16.695   5.869  0.00  0.00     0.095 A 
HETATM    5  O   UNK N   1      20.363  16.694   6.680  0.00  0.00    -0.287 OA
HETATM    6  C   UNK N   1      20.603  15.864   7.656  0.00  0.00     0.215 A 
HETATM    7  C   UNK N   1      21.846  15.276   7.497  0.00  0.00     0.065 A 
HETATM    8  C   UNK N   1      22.360  15.820   6.325  0.00  0.00     0.043 A 
BRANCH   6   9
HETATM    9  N   UNK N   1      19.692  15.626   8.712  0.00  0.00    -0.090 N 
HETATM   10  O   UNK N   1      18.909  16.588   9.147  0.00  0.00    -0.530 OA
HETATM   11  O   UNK N   1      19.635  14.543   9.213  0.00  0.00    -0.530 OA
ENDBRANCH   6   9
ENDBRANCH   3   4
BRANCH   1  12
HETATM   12  N   UNK N   1      21.232  19.546   3.522  0.00  0.00    -0.235 N 
HETATM   13  C   UNK N   1      20.091  19.749   2.683  0.00  0.00     0.181 A 
HETATM   14  C   UNK N   1      20.683  20.635   1.544  0.00  0.00     0.202 A 
HETATM   15  O   UNK N   1      22.019  20.809   1.874  0.00  0.00    -0.301 OA
HETATM   16  C   UNK N   1      22.296  20.174   3.008  0.00  0.00     0.381 A 
HETATM   17  O   UNK N   1      23.408  20.172   3.513  0.00  0.00    -0.236 OA
ENDBRANCH   1  12
TORSDOF 3
ENDMDL
