MODEL 1
REMARK VINA RESULT:      -4.8      0.000      0.000
REMARK  1 active torsions:
REMARK  status: ('A' for Active; 'I' for Inactive)
REMARK    1  A    between atoms: C_5  and  C_6 
ROOT
HETATM    1  O   UNK N   1      20.314  13.323  10.179  0.00  0.00    -0.283 OA
HETATM    2  O   UNK N   1      23.614  13.258   9.403  0.00  0.00    -0.269 OA
HETATM    3  O   UNK N   1      19.546  14.733   8.593  0.00  0.00    -0.238 OA
HETATM    4  N   UNK N   1      21.702  14.181   8.730  0.00  0.00    -0.266 N 
HETATM    5  C   UNK N   1      21.496  12.703  10.653  0.00  0.00     0.149 A 
HETATM    6  C   UNK N   1      22.401  13.395   9.544  0.00  0.00     0.263 A 
HETATM    7  C   UNK N   1      20.504  12.117  11.650  0.00  0.00     0.057 C 
HETATM    8  C   UNK N   1      20.464  14.125   9.123  0.00  0.00     0.370 A 
HETATM    9  C   UNK N   1      22.214  14.953   7.624  0.00  0.00     0.165 C 
ENDROOT
BRANCH   5  10
HETATM   10  C   UNK N   1      22.695  11.919  11.342  0.00  0.00     0.044 C 
HETATM   11  C   UNK N   1      23.120  11.885  12.830  0.00  0.00     0.009 C 
ENDBRANCH   5  10
TORSDOF 1
ENDMDL
MODEL 2
REMARK VINA RESULT:      -4.8     11.931     13.537
REMARK  1 active torsions:
REMARK  status: ('A' for Active; 'I' for Inactive)
REMARK    1  A    between atoms: C_5  and  C_6 
ROOT
HETATM    1  O   UNK N   1      34.238  18.087   6.973  0.00  0.00    -0.283 OA
HETATM    2  O   UNK N   1      33.812  15.109   8.536  0.00  0.00    -0.269 OA
HETATM    3  O   UNK N   1      35.302  19.251   8.587  0.00  0.00    -0.238 OA
HETATM    4  N   UNK N   1      34.672  17.132   8.886  0.00  0.00    -0.266 N 
HETATM    5  C   UNK N   1      33.674  16.819   6.689  0.00  0.00     0.149 A 
HETATM    6  C   UNK N   1      34.047  16.241   8.122  0.00  0.00     0.263 A 
HETATM    7  C   UNK N   1      33.385  17.509   5.361  0.00  0.00     0.057 C 
HETATM    8  C   UNK N   1      34.776  18.223   8.186  0.00  0.00     0.370 A 
HETATM    9  C   UNK N   1      35.144  16.934  10.235  0.00  0.00     0.165 C 
ENDROOT
BRANCH   5  10
HETATM   10  C   UNK N   1      32.987  15.481   6.174  0.00  0.00     0.044 C 
HETATM   11  C   UNK N   1      31.486  15.171   5.950  0.00  0.00     0.009 C 
ENDBRANCH   5  10
TORSDOF 1
ENDMDL
MODEL 3
REMARK VINA RESULT:      -4.6     12.612     13.443
REMARK  1 active torsions:
REMARK  status: ('A' for Active; 'I' for Inactive)
REMARK    1  A    between atoms: C_5  and  C_6 
ROOT
HETATM    1  O   UNK N   1      35.230  17.513   9.795  0.00  0.00    -0.283 OA
HETATM    2  O   UNK N   1      33.307  15.226   8.193  0.00  0.00    -0.269 OA
HETATM    3  O   UNK N   1      35.114  19.237   8.344  0.00  0.00    -0.238 OA
HETATM    4  N   UNK N   1      34.062  17.308   7.963  0.00  0.00    -0.266 N 
HETATM    5  C   UNK N   1      34.781  16.185  10.000  0.00  0.00     0.149 A 
HETATM    6  C   UNK N   1      33.968  16.163   8.634  0.00  0.00     0.263 A 
HETATM    7  C   UNK N   1      35.602  16.356  11.272  0.00  0.00     0.057 C 
HETATM    8  C   UNK N   1      34.817  18.097   8.669  0.00  0.00     0.370 A 
HETATM    9  C   UNK N   1      33.450  17.619   6.694  0.00  0.00     0.165 C 
ENDROOT
BRANCH   5  10
HETATM   10  C   UNK N   1      34.395  14.700  10.415  0.00  0.00     0.044 C 
HETATM   11  C   UNK N   1      34.867  13.866  11.631  0.00  0.00     0.009 C 
ENDBRANCH   5  10
TORSDOF 1
ENDMDL
MODEL 4
REMARK VINA RESULT:      -4.5     22.532     24.288
REMARK  1 active torsions:
REMARK  status: ('A' for Active; 'I' for Inactive)
REMARK    1  A    between atoms: C_5  and  C_6 
ROOT
HETATM    1  O   UNK N   1      42.730  23.675   2.207  0.00  0.00    -0.283 OA
HETATM    2  O   UNK N   1      42.553  20.537   3.480  0.00  0.00    -0.269 OA
HETATM    3  O   UNK N   1      44.795  24.280   2.889  0.00  0.00    -0.238 OA
HETATM    4  N   UNK N   1      43.941  22.275   3.363  0.00  0.00    -0.266 N 
HETATM    5  C   UNK N   1      41.804  22.604   2.245  0.00  0.00     0.149 A 
HETATM    6  C   UNK N   1      42.782  21.680   3.091  0.00  0.00     0.263 A 
HETATM    7  C   UNK N   1      40.981  23.600   1.437  0.00  0.00     0.057 C 
HETATM    8  C   UNK N   1      43.891  23.460   2.829  0.00  0.00     0.370 A 
HETATM    9  C   UNK N   1      45.043  21.719   4.108  0.00  0.00     0.165 C 
ENDROOT
BRANCH   5  10
HETATM   10  C   UNK N   1      40.630  21.535   2.175  0.00  0.00     0.044 C 
HETATM   11  C   UNK N   1      39.798  21.067   0.955  0.00  0.00     0.009 C 
ENDBRANCH   5  10
TORSDOF 1
ENDMDL
MODEL 5
REMARK VINA RESULT:      -4.5     11.775     13.414
REMARK  1 active torsions:
REMARK  status: ('A' for Active; 'I' for Inactive)
REMARK    1  A    between atoms: C_5  and  C_6 
ROOT
HETATM    1  O   UNK N   1      35.084  17.281   9.464  0.00  0.00    -0.283 OA
HETATM    2  O   UNK N   1      32.536  15.057   9.713  0.00  0.00    -0.269 OA
HETATM    3  O   UNK N   1      36.598  16.328  10.839  0.00  0.00    -0.238 OA
HETATM    4  N   UNK N   1      34.597  15.411  10.478  0.00  0.00    -0.266 N 
HETATM    5  C   UNK N   1      33.778  17.111   8.940  0.00  0.00     0.149 A 
HETATM    6  C   UNK N   1      33.547  15.755   9.737  0.00  0.00     0.263 A 
HETATM    7  C   UNK N   1      34.145  18.415   8.243  0.00  0.00     0.057 C 
HETATM    8  C   UNK N   1      35.500  16.330  10.303  0.00  0.00     0.370 A 
HETATM    9  C   UNK N   1      34.716  14.245  11.319  0.00  0.00     0.165 C 
ENDROOT
BRANCH   5  10
HETATM   10  C   UNK N   1      32.347  17.111   8.249  0.00  0.00     0.044 C 
HETATM   11  C   UNK N   1      31.121  18.014   8.530  0.00  0.00     0.009 C 
ENDBRANCH   5  10
TORSDOF 1
ENDMDL
MODEL 6
REMARK VINA RESULT:      -4.4      8.497      9.781
REMARK  1 active torsions:
REMARK  status: ('A' for Active; 'I' for Inactive)
REMARK    1  A    between atoms: C_5  and  C_6 
ROOT
HETATM    1  O   UNK N   1      22.742  20.776   2.327  0.00  0.00    -0.283 OA
HETATM    2  O   UNK N   1      21.745  18.144   4.217  0.00  0.00    -0.269 OA
HETATM    3  O   UNK N   1      20.787  21.352   1.358  0.00  0.00    -0.238 OA
HETATM    4  N   UNK N   1      20.933  19.646   2.787  0.00  0.00    -0.266 N 
HETATM    5  C   UNK N   1      23.318  19.850   3.231  0.00  0.00     0.149 A 
HETATM    6  C   UNK N   1      21.934  19.108   3.480  0.00  0.00     0.263 A 
HETATM    7  C   UNK N   1      24.565  20.658   2.893  0.00  0.00     0.057 C 
HETATM    8  C   UNK N   1      21.434  20.635   2.108  0.00  0.00     0.370 A 
HETATM    9  C   UNK N   1      19.556  19.215   2.784  0.00  0.00     0.165 C 
ENDROOT
BRANCH   5  10
HETATM   10  C   UNK N   1      24.155  18.912   4.203  0.00  0.00     0.044 C 
HETATM   11  C   UNK N   1      25.415  18.062   3.905  0.00  0.00     0.009 C 
ENDBRANCH   5  10
TORSDOF 1
ENDMDL
MODEL 7
REMARK VINA RESULT:      -4.4      1.286      2.561
REMARK  1 active torsions:
REMARK  status: ('A' for Active; 'I' for Inactive)
REMARK    1  A    between atoms: C_5  and  C_6 
ROOT
HETATM    1  O   UNK N   1      23.770  13.159   9.119  0.00  0.00    -0.283 OA
HETATM    2  O   UNK N   1      20.570  12.902  10.210  0.00  0.00    -0.269 OA
HETATM    3  O   UNK N   1      23.449  14.199   7.142  0.00  0.00    -0.238 OA
HETATM    4  N   UNK N   1      21.747  13.674   8.484  0.00  0.00    -0.266 N 
HETATM    5  C   UNK N   1      23.079  12.650  10.245  0.00  0.00     0.149 A 
HETATM    6  C   UNK N   1      21.660  13.076   9.670  0.00  0.00     0.263 A 
HETATM    7  C   UNK N   1      24.502  12.304  10.665  0.00  0.00     0.057 C 
HETATM    8  C   UNK N   1      23.009  13.714   8.174  0.00  0.00     0.370 A 
HETATM    9  C   UNK N   1      20.654  14.181   7.690  0.00  0.00     0.165 C 
ENDROOT
BRANCH   5  10
HETATM   10  C   UNK N   1      22.501  12.015  11.583  0.00  0.00     0.044 C 
HETATM   11  C   UNK N   1      23.166  11.882  12.975  0.00  0.00     0.009 C 
ENDBRANCH   5  10
TORSDOF 1
ENDMDL
MODEL 8
REMARK VINA RESULT:      -4.4     10.914     12.438
REMARK  1 active torsions:
REMARK  status: ('A' for Active; 'I' for Inactive)
REMARK    1  A    between atoms: C_5  and  C_6 
ROOT
HETATM    1  O   UNK N   1      31.051  16.960   6.649  0.00  0.00    -0.283 OA
HETATM    2  O   UNK N   1      34.314  17.731   6.147  0.00  0.00    -0.269 OA
HETATM    3  O   UNK N   1      31.025  16.719   8.892  0.00  0.00    -0.238 OA
HETATM    4  N   UNK N   1      32.890  17.246   7.788  0.00  0.00    -0.266 N 
HETATM    5  C   UNK N   1      31.907  17.264   5.562  0.00  0.00     0.149 A 
HETATM    6  C   UNK N   1      33.175  17.443   6.503  0.00  0.00     0.263 A 
HETATM    7  C   UNK N   1      30.608  17.061   4.791  0.00  0.00     0.057 C 
HETATM    8  C   UNK N   1      31.623  16.960   7.854  0.00  0.00     0.370 A 
HETATM    9  C   UNK N   1      33.807  17.329   8.899  0.00  0.00     0.165 C 
ENDROOT
BRANCH   5  10
HETATM   10  C   UNK N   1      32.690  17.573   4.214  0.00  0.00     0.044 C 
HETATM   11  C   UNK N   1      32.877  16.684   2.960  0.00  0.00     0.009 C 
ENDBRANCH   5  10
TORSDOF 1
ENDMDL
MODEL 9
REMARK VINA RESULT:      -4.3     18.358     20.349
REMARK  1 active torsions:
REMARK  status: ('A' for Active; 'I' for Inactive)
REMARK    1  A    between atoms: C_5  and  C_6 
ROOT
HETATM    1  O   UNK N   1      26.344  25.997  -3.338  0.00  0.00    -0.283 OA
HETATM    2  O   UNK N   1      28.140  26.126  -6.211  0.00  0.00    -0.269 OA
HETATM    3  O   UNK N   1      26.836  23.908  -2.639  0.00  0.00    -0.238 OA
HETATM    4  N   UNK N   1      27.678  24.744  -4.528  0.00  0.00    -0.266 N 
HETATM    5  C   UNK N   1      26.600  26.922  -4.380  0.00  0.00     0.149 A 
HETATM    6  C   UNK N   1      27.554  25.912  -5.153  0.00  0.00     0.263 A 
HETATM    7  C   UNK N   1      25.668  27.775  -3.529  0.00  0.00     0.057 C 
HETATM    8  C   UNK N   1      26.951  24.814  -3.451  0.00  0.00     0.370 A 
HETATM    9  C   UNK N   1      28.463  23.613  -4.957  0.00  0.00     0.165 C 
ENDROOT
BRANCH   5  10
HETATM   10  C   UNK N   1      26.750  28.095  -5.442  0.00  0.00     0.044 C 
HETATM   11  C   UNK N   1      27.432  29.477  -5.290  0.00  0.00     0.009 C 
ENDBRANCH   5  10
TORSDOF 1
ENDMDL
