MODEL 1
REMARK VINA RESULT:      -9.1      0.000      0.000
REMARK  6 active torsions:
REMARK  status: ('A' for Active; 'I' for Inactive)
REMARK    1  A    between atoms: N_2  and  C_16 
REMARK       I    between atoms: N_4  and  C_24 
REMARK    2  A    between atoms: N_4  and  C_25 
REMARK    3  A    between atoms: N_5  and  C_26 
REMARK       I    between atoms: N_5  and  C_32 
REMARK    4  A    between atoms: C_16  and  C_18 
REMARK    5  A    between atoms: C_23  and  C_24 
REMARK    6  A    between atoms: C_33  and  C_34 
ROOT
HETATM    1  C   UNK N   1      34.095  16.347   9.493  0.00  0.00     0.037 A 
HETATM    2  C   UNK N   1      33.046  15.876   7.351  0.00  0.00     0.057 A 
HETATM    3  C   UNK N   1      33.305  15.539   8.674  0.00  0.00     0.060 A 
HETATM    4  C   UNK N   1      33.618  17.052   6.830  0.00  0.00    -0.035 A 
HETATM    5  C   UNK N   1      34.631  17.534   8.993  0.00  0.00     0.030 A 
HETATM    6  C   UNK N   1      34.398  17.881   7.655  0.00  0.00     0.011 A 
HETATM    7  C   UNK N   1      33.404  17.438   5.407  0.00  0.00     0.050 C 
ENDROOT
BRANCH   1   8
HETATM    8  N   UNK N   1      34.384  15.898  10.803  0.00  0.00    -0.323 N 
HETATM    9  C   UNK N   1      35.580  15.299  11.050  0.00  0.00     0.256 C 
HETATM   10  O   UNK N   1      36.495  15.406  10.242  0.00  0.00    -0.267 OA
HETATM   11  H   UNK N   1      33.728  16.017  11.527  0.00  0.00     0.169 HD
BRANCH   9  12
HETATM   12  C   UNK N   1      35.787  14.475  12.242  0.00  0.00     0.032 A 
HETATM   13  C   UNK N   1      36.410  14.989  13.388  0.00  0.00     0.017 A 
HETATM   14  C   UNK N   1      36.540  14.186  14.525  0.00  0.00     0.010 A 
HETATM   15  C   UNK N   1      36.034  12.882  14.521  0.00  0.00    -0.030 A 
HETATM   16  C   UNK N   1      35.389  12.381  13.389  0.00  0.00     0.010 A 
HETATM   17  C   UNK N   1      35.267  13.174  12.257  0.00  0.00     0.017 A 
BRANCH  15  18
HETATM   18  C   UNK N   1      36.275  11.992  15.697  0.00  0.00     0.311 C 
BRANCH  18  19
HETATM   19  N   UNK N   1      35.048  11.595  16.420  0.00  0.00     0.096 N 
HETATM   20  C   UNK N   1      35.226  11.907  17.843  0.00  0.00     0.303 C 
HETATM   21  C   UNK N   1      35.830  10.741  18.648  0.00  0.00     0.302 C 
HETATM   22  N   UNK N   1      36.523   9.809  17.763  0.00  0.00     0.087 N 
HETATM   23  C   UNK N   1      35.546   9.172  16.880  0.00  0.00     0.302 C 
HETATM   24  C   UNK N   1      37.096   8.764  18.589  0.00  0.00     0.310 C 
HETATM   25  C   UNK N   1      34.594  10.199  16.241  0.00  0.00     0.303 C 
ENDBRANCH  18  19
ENDBRANCH  15  18
ENDBRANCH   9  12
ENDBRANCH   1   8
BRANCH   2  26
HETATM   26  N   UNK N   1      32.224  15.045   6.534  0.00  0.00    -0.191 N 
HETATM   27  C   UNK N   1      30.908  15.356   6.063  0.00  0.00     0.683 A 
HETATM   28  N   UNK N   1      30.291  16.531   6.388  0.00  0.00    -0.191 N 
HETATM   29  N   UNK N   1      30.267  14.457   5.274  0.00  0.00    -0.202 N 
HETATM   30  C   UNK N   1      29.032  16.817   5.941  0.00  0.00     0.062 A 
ATOM     31  HN  UNK N   1      30.780  17.207   6.976  1.00  0.00     0.184 HD
HETATM   32  C   UNK N   1      28.370  15.890   5.132  0.00  0.00     0.048 A 
HETATM   33  C   UNK N   1      29.016  14.703   4.804  0.00  0.00     0.108 A 
ATOM     34  HN  UNK N   1      30.732  13.582   5.030  1.00  0.00     0.183 HD
HETATM   35  H   UNK N   1      32.598  14.175   6.268  0.00  0.00     0.184 HD
BRANCH  30  36
HETATM   36  C   UNK N   1      28.372  18.091   6.315  0.00  0.00     0.007 A 
HETATM   37  C   UNK N   1      28.071  19.058   5.343  0.00  0.00     0.016 A 
HETATM   38  C   UNK N   1      27.441  20.248   5.707  0.00  0.00     0.018 A 
HETATM   39  C   UNK N   1      27.121  20.466   7.048  0.00  0.00     0.087 A 
HETATM   40  N   UNK N   1      27.421  19.526   7.983  0.00  0.00    -0.374 N 
HETATM   41  C   UNK N   1      28.029  18.355   7.647  0.00  0.00     0.101 A 
ATOM     42  HN  UNK N   1      27.185  19.702   8.959  1.00  0.00     0.164 HD
ENDBRANCH  30  36
ENDBRANCH   2  26
TORSDOF 6
ENDMDL
MODEL 2
REMARK VINA RESULT:      -8.9      7.871     12.780
REMARK  6 active torsions:
REMARK  status: ('A' for Active; 'I' for Inactive)
REMARK    1  A    between atoms: N_2  and  C_16 
REMARK       I    between atoms: N_4  and  C_24 
REMARK    2  A    between atoms: N_4  and  C_25 
REMARK    3  A    between atoms: N_5  and  C_26 
REMARK       I    between atoms: N_5  and  C_32 
REMARK    4  A    between atoms: C_16  and  C_18 
REMARK    5  A    between atoms: C_23  and  C_24 
REMARK    6  A    between atoms: C_33  and  C_34 
ROOT
HETATM    1  C   UNK N   1      22.801  14.191   0.991  0.00  0.00     0.037 A 
HETATM    2  C   UNK N   1      20.540  15.071   1.149  0.00  0.00     0.057 A 
HETATM    3  C   UNK N   1      21.916  15.244   1.225  0.00  0.00     0.060 A 
HETATM    4  C   UNK N   1      20.038  13.790   0.849  0.00  0.00    -0.035 A 
HETATM    5  C   UNK N   1      22.309  12.930   0.653  0.00  0.00     0.030 A 
HETATM    6  C   UNK N   1      20.922  12.729   0.591  0.00  0.00     0.011 A 
HETATM    7  C   UNK N   1      18.570  13.541   0.794  0.00  0.00     0.050 C 
ENDROOT
BRANCH   1   8
HETATM    8  N   UNK N   1      24.185  14.423   1.169  0.00  0.00    -0.323 N 
HETATM    9  C   UNK N   1      24.722  14.313   2.414  0.00  0.00     0.256 C 
HETATM   10  O   UNK N   1      24.093  13.748   3.301  0.00  0.00    -0.267 OA
HETATM   11  H   UNK N   1      24.753  14.660   0.401  0.00  0.00     0.169 HD
BRANCH   9  12
HETATM   12  C   UNK N   1      26.019  14.908   2.739  0.00  0.00     0.032 A 
HETATM   13  C   UNK N   1      27.152  14.670   1.949  0.00  0.00     0.017 A 
HETATM   14  C   UNK N   1      28.359  15.300   2.262  0.00  0.00     0.010 A 
HETATM   15  C   UNK N   1      28.429  16.178   3.349  0.00  0.00    -0.030 A 
HETATM   16  C   UNK N   1      27.292  16.436   4.118  0.00  0.00     0.010 A 
HETATM   17  C   UNK N   1      26.095  15.804   3.813  0.00  0.00     0.017 A 
BRANCH  15  18
HETATM   18  C   UNK N   1      29.746  16.760   3.746  0.00  0.00     0.311 C 
BRANCH  18  19
HETATM   19  N   UNK N   1      30.913  15.933   3.372  0.00  0.00     0.096 N 
HETATM   20  C   UNK N   1      31.207  15.016   4.480  0.00  0.00     0.303 C 
HETATM   21  C   UNK N   1      32.206  15.598   5.497  0.00  0.00     0.302 C 
HETATM   22  N   UNK N   1      32.248  17.055   5.403  0.00  0.00     0.087 N 
HETATM   23  C   UNK N   1      32.796  17.433   4.101  0.00  0.00     0.302 C 
HETATM   24  C   UNK N   1      33.175  17.533   6.411  0.00  0.00     0.310 C 
HETATM   25  C   UNK N   1      32.132  16.657   2.950  0.00  0.00     0.303 C 
ENDBRANCH  18  19
ENDBRANCH  15  18
ENDBRANCH   9  12
ENDBRANCH   1   8
BRANCH   2  26
HETATM   26  N   UNK N   1      19.653  16.163   1.377  0.00  0.00    -0.191 N 
HETATM   27  C   UNK N   1      19.970  17.386   2.051  0.00  0.00     0.683 A 
HETATM   28  N   UNK N   1      21.210  17.613   2.576  0.00  0.00    -0.191 N 
HETATM   29  N   UNK N   1      19.008  18.337   2.167  0.00  0.00    -0.202 N 
HETATM   30  C   UNK N   1      21.503  18.779   3.225  0.00  0.00     0.062 A 
ATOM     31  HN  UNK N   1      21.932  16.898   2.480  1.00  0.00     0.184 HD
HETATM   32  C   UNK N   1      20.512  19.757   3.347  0.00  0.00     0.048 A 
HETATM   33  C   UNK N   1      19.257  19.513   2.801  0.00  0.00     0.108 A 
ATOM     34  HN  UNK N   1      18.083  18.166   1.771  1.00  0.00     0.183 HD
HETATM   35  H   UNK N   1      18.734  16.069   1.036  0.00  0.00     0.184 HD
BRANCH  30  36
HETATM   36  C   UNK N   1      22.851  19.003   3.800  0.00  0.00     0.007 A 
HETATM   37  C   UNK N   1      23.724  19.948   3.240  0.00  0.00     0.016 A 
HETATM   38  C   UNK N   1      24.986  20.155   3.797  0.00  0.00     0.018 A 
HETATM   39  C   UNK N   1      25.370  19.408   4.911  0.00  0.00     0.087 A 
HETATM   40  N   UNK N   1      24.518  18.491   5.444  0.00  0.00    -0.374 N 
HETATM   41  C   UNK N   1      23.280  18.279   4.920  0.00  0.00     0.101 A 
ATOM     42  HN  UNK N   1      24.815  17.950   6.256  1.00  0.00     0.164 HD
ENDBRANCH  30  36
ENDBRANCH   2  26
TORSDOF 6
ENDMDL
MODEL 3
REMARK VINA RESULT:      -8.8      5.246      9.729
REMARK  6 active torsions:
REMARK  status: ('A' for Active; 'I' for Inactive)
REMARK    1  A    between atoms: N_2  and  C_16 
REMARK       I    between atoms: N_4  and  C_24 
REMARK    2  A    between atoms: N_4  and  C_25 
REMARK    3  A    between atoms: N_5  and  C_26 
REMARK       I    between atoms: N_5  and  C_32 
REMARK    4  A    between atoms: C_16  and  C_18 
REMARK    5  A    between atoms: C_23  and  C_24 
REMARK    6  A    between atoms: C_33  and  C_34 
ROOT
HETATM    1  C   UNK N   1      26.152  18.550   4.796  0.00  0.00     0.037 A 
HETATM    2  C   UNK N   1      23.817  19.008   4.296  0.00  0.00     0.057 A 
HETATM    3  C   UNK N   1      24.792  18.312   4.999  0.00  0.00     0.060 A 
HETATM    4  C   UNK N   1      24.225  19.959   3.341  0.00  0.00    -0.035 A 
HETATM    5  C   UNK N   1      26.560  19.520   3.880  0.00  0.00     0.030 A 
HETATM    6  C   UNK N   1      25.591  20.220   3.145  0.00  0.00     0.011 A 
HETATM    7  C   UNK N   1      23.220  20.705   2.531  0.00  0.00     0.050 C 
ENDROOT
BRANCH   1   8
HETATM    8  N   UNK N   1      27.086  17.744   5.487  0.00  0.00    -0.323 N 
HETATM    9  C   UNK N   1      27.816  18.291   6.496  0.00  0.00     0.256 C 
HETATM   10  O   UNK N   1      27.473  19.360   6.987  0.00  0.00    -0.267 OA
HETATM   11  H   UNK N   1      27.207  16.799   5.241  0.00  0.00     0.169 HD
BRANCH   9  12
HETATM   12  C   UNK N   1      29.046  17.659   6.977  0.00  0.00     0.032 A 
HETATM   13  C   UNK N   1      29.767  16.761   6.178  0.00  0.00     0.017 A 
HETATM   14  C   UNK N   1      30.965  16.221   6.652  0.00  0.00     0.010 A 
HETATM   15  C   UNK N   1      31.449  16.589   7.912  0.00  0.00    -0.030 A 
HETATM   16  C   UNK N   1      30.743  17.505   8.695  0.00  0.00     0.010 A 
HETATM   17  C   UNK N   1      29.549  18.035   8.228  0.00  0.00     0.017 A 
BRANCH  15  18
HETATM   18  C   UNK N   1      32.669  15.924   8.460  0.00  0.00     0.311 C 
BRANCH  18  19
HETATM   19  N   UNK N   1      33.943  16.524   8.008  0.00  0.00     0.096 N 
HETATM   20  C   UNK N   1      34.831  15.445   7.557  0.00  0.00     0.303 C 
HETATM   21  C   UNK N   1      35.728  14.892   8.680  0.00  0.00     0.302 C 
HETATM   22  N   UNK N   1      35.166  15.205   9.990  0.00  0.00     0.087 N 
HETATM   23  C   UNK N   1      35.191  16.654  10.188  0.00  0.00     0.302 C 
HETATM   24  C   UNK N   1      36.038  14.622  10.992  0.00  0.00     0.310 C 
HETATM   25  C   UNK N   1      34.636  17.410   8.968  0.00  0.00     0.303 C 
ENDBRANCH  18  19
ENDBRANCH  15  18
ENDBRANCH   9  12
ENDBRANCH   1   8
BRANCH   2  26
HETATM   26  N   UNK N   1      22.432  18.761   4.528  0.00  0.00    -0.191 N 
HETATM   27  C   UNK N   1      21.665  17.673   4.001  0.00  0.00     0.683 A 
HETATM   28  N   UNK N   1      22.222  16.740   3.173  0.00  0.00    -0.191 N 
HETATM   29  N   UNK N   1      20.354  17.574   4.339  0.00  0.00    -0.202 N 
HETATM   30  C   UNK N   1      21.482  15.709   2.667  0.00  0.00     0.062 A 
ATOM     31  HN  UNK N   1      23.210  16.815   2.928  1.00  0.00     0.184 HD
HETATM   32  C   UNK N   1      20.131  15.609   3.012  0.00  0.00     0.048 A 
HETATM   33  C   UNK N   1      19.582  16.562   3.862  0.00  0.00     0.108 A 
ATOM     34  HN  UNK N   1      19.942  18.270   4.960  1.00  0.00     0.183 HD
HETATM   35  H   UNK N   1      21.958  19.399   5.109  0.00  0.00     0.184 HD
BRANCH  30  36
HETATM   36  C   UNK N   1      22.099  14.714   1.759  0.00  0.00     0.007 A 
HETATM   37  C   UNK N   1      23.474  14.747   1.483  0.00  0.00     0.016 A 
HETATM   38  C   UNK N   1      24.044  13.799   0.633  0.00  0.00     0.018 A 
HETATM   39  C   UNK N   1      23.229  12.823   0.058  0.00  0.00     0.087 A 
HETATM   40  N   UNK N   1      21.896  12.802   0.328  0.00  0.00    -0.374 N 
HETATM   41  C   UNK N   1      21.322  13.714   1.159  0.00  0.00     0.101 A 
ATOM     42  HN  UNK N   1      21.312  12.086  -0.104  1.00  0.00     0.164 HD
ENDBRANCH  30  36
ENDBRANCH   2  26
TORSDOF 6
ENDMDL
MODEL 4
REMARK VINA RESULT:      -8.8      5.230      9.485
REMARK  6 active torsions:
REMARK  status: ('A' for Active; 'I' for Inactive)
REMARK    1  A    between atoms: N_2  and  C_16 
REMARK       I    between atoms: N_4  and  C_24 
REMARK    2  A    between atoms: N_4  and  C_25 
REMARK    3  A    between atoms: N_5  and  C_26 
REMARK       I    between atoms: N_5  and  C_32 
REMARK    4  A    between atoms: C_16  and  C_18 
REMARK    5  A    between atoms: C_23  and  C_24 
REMARK    6  A    between atoms: C_33  and  C_34 
ROOT
HETATM    1  C   UNK N   1      26.857  19.590   4.230  0.00  0.00     0.037 A 
HETATM    2  C   UNK N   1      24.497  19.141   4.603  0.00  0.00     0.057 A 
HETATM    3  C   UNK N   1      25.831  18.982   4.955  0.00  0.00     0.060 A 
HETATM    4  C   UNK N   1      24.187  19.920   3.471  0.00  0.00    -0.035 A 
HETATM    5  C   UNK N   1      26.552  20.394   3.132  0.00  0.00     0.030 A 
HETATM    6  C   UNK N   1      25.213  20.551   2.748  0.00  0.00     0.011 A 
HETATM    7  C   UNK N   1      22.775  20.089   3.027  0.00  0.00     0.050 C 
ENDROOT
BRANCH   1   8
HETATM    8  N   UNK N   1      28.195  19.314   4.598  0.00  0.00    -0.323 N 
HETATM    9  C   UNK N   1      28.688  18.060   4.417  0.00  0.00     0.256 C 
HETATM   10  O   UNK N   1      28.094  17.269   3.693  0.00  0.00    -0.267 OA
HETATM   11  H   UNK N   1      28.763  20.022   4.980  0.00  0.00     0.169 HD
BRANCH   9  12
HETATM   12  C   UNK N   1      29.890  17.605   5.118  0.00  0.00     0.032 A 
HETATM   13  C   UNK N   1      31.127  17.511   4.465  0.00  0.00     0.017 A 
HETATM   14  C   UNK N   1      32.262  17.126   5.182  0.00  0.00     0.010 A 
HETATM   15  C   UNK N   1      32.165  16.852   6.551  0.00  0.00    -0.030 A 
HETATM   16  C   UNK N   1      30.938  16.973   7.207  0.00  0.00     0.010 A 
HETATM   17  C   UNK N   1      29.809  17.347   6.493  0.00  0.00     0.017 A 
BRANCH  15  18
HETATM   18  C   UNK N   1      33.356  16.332   7.287  0.00  0.00     0.311 C 
BRANCH  18  19
HETATM   19  N   UNK N   1      33.156  16.195   8.746  0.00  0.00     0.096 N 
HETATM   20  C   UNK N   1      34.280  16.845   9.432  0.00  0.00     0.303 C 
HETATM   21  C   UNK N   1      35.453  15.887   9.711  0.00  0.00     0.302 C 
HETATM   22  N   UNK N   1      35.393  14.727   8.826  0.00  0.00     0.087 N 
HETATM   23  C   UNK N   1      34.201  13.943   9.147  0.00  0.00     0.302 C 
HETATM   24  C   UNK N   1      36.543  13.893   9.118  0.00  0.00     0.310 C 
HETATM   25  C   UNK N   1      32.946  14.826   9.262  0.00  0.00     0.303 C 
ENDBRANCH  18  19
ENDBRANCH  15  18
ENDBRANCH   9  12
ENDBRANCH   1   8
BRANCH   2  26
HETATM   26  N   UNK N   1      23.462  18.525   5.366  0.00  0.00    -0.191 N 
HETATM   27  C   UNK N   1      22.803  17.291   5.060  0.00  0.00     0.683 A 
HETATM   28  N   UNK N   1      23.117  16.572   3.943  0.00  0.00    -0.191 N 
HETATM   29  N   UNK N   1      21.847  16.834   5.907  0.00  0.00    -0.202 N 
HETATM   30  C   UNK N   1      22.479  15.399   3.653  0.00  0.00     0.062 A 
ATOM     31  HN  UNK N   1      23.842  16.916   3.312  1.00  0.00     0.184 HD
HETATM   32  C   UNK N   1      21.491  14.929   4.522  0.00  0.00     0.048 A 
HETATM   33  C   UNK N   1      21.190  15.670   5.660  0.00  0.00     0.108 A 
ATOM     34  HN  UNK N   1      21.617  17.372   6.743  1.00  0.00     0.183 HD
HETATM   35  H   UNK N   1      23.173  18.993   6.183  0.00  0.00     0.184 HD
BRANCH  30  36
HETATM   36  C   UNK N   1      22.822  14.637   2.428  0.00  0.00     0.007 A 
HETATM   37  C   UNK N   1      21.825  13.999   1.675  0.00  0.00     0.016 A 
HETATM   38  C   UNK N   1      22.160  13.293   0.519  0.00  0.00     0.018 A 
HETATM   39  C   UNK N   1      23.498  13.225   0.127  0.00  0.00     0.087 A 
HETATM   40  N   UNK N   1      24.458  13.842   0.867  0.00  0.00    -0.374 N 
HETATM   41  C   UNK N   1      24.151  14.542   1.993  0.00  0.00     0.101 A 
ATOM     42  HN  UNK N   1      25.431  13.779   0.570  1.00  0.00     0.164 HD
ENDBRANCH  30  36
ENDBRANCH   2  26
TORSDOF 6
ENDMDL
MODEL 5
REMARK VINA RESULT:      -8.8      5.624      9.802
REMARK  6 active torsions:
REMARK  status: ('A' for Active; 'I' for Inactive)
REMARK    1  A    between atoms: N_2  and  C_16 
REMARK       I    between atoms: N_4  and  C_24 
REMARK    2  A    between atoms: N_4  and  C_25 
REMARK    3  A    between atoms: N_5  and  C_26 
REMARK       I    between atoms: N_5  and  C_32 
REMARK    4  A    between atoms: C_16  and  C_18 
REMARK    5  A    between atoms: C_23  and  C_24 
REMARK    6  A    between atoms: C_33  and  C_34 
ROOT
HETATM    1  C   UNK N   1      25.768  15.868   5.363  0.00  0.00     0.037 A 
HETATM    2  C   UNK N   1      23.368  16.183   5.125  0.00  0.00     0.057 A 
HETATM    3  C   UNK N   1      24.541  16.315   5.857  0.00  0.00     0.060 A 
HETATM    4  C   UNK N   1      23.429  15.563   3.862  0.00  0.00    -0.035 A 
HETATM    5  C   UNK N   1      25.838  15.289   4.096  0.00  0.00     0.030 A 
HETATM    6  C   UNK N   1      24.662  15.129   3.349  0.00  0.00     0.011 A 
HETATM    7  C   UNK N   1      22.194  15.361   3.053  0.00  0.00     0.050 C 
ENDROOT
BRANCH   1   8
HETATM    8  N   UNK N   1      26.904  15.960   6.200  0.00  0.00    -0.323 N 
HETATM    9  C   UNK N   1      27.706  17.055   6.113  0.00  0.00     0.256 C 
HETATM   10  O   UNK N   1      27.303  18.062   5.543  0.00  0.00    -0.267 OA
HETATM   11  H   UNK N   1      27.112  15.240   6.838  0.00  0.00     0.169 HD
BRANCH   9  12
HETATM   12  C   UNK N   1      29.072  17.042   6.638  0.00  0.00     0.032 A 
HETATM   13  C   UNK N   1      30.167  16.729   5.821  0.00  0.00     0.017 A 
HETATM   14  C   UNK N   1      31.461  16.782   6.345  0.00  0.00     0.010 A 
HETATM   15  C   UNK N   1      31.661  17.163   7.677  0.00  0.00    -0.030 A 
HETATM   16  C   UNK N   1      30.571  17.501   8.482  0.00  0.00     0.010 A 
HETATM   17  C   UNK N   1      29.286  17.441   7.964  0.00  0.00     0.017 A 
BRANCH  15  18
HETATM   18  C   UNK N   1      33.033  17.108   8.264  0.00  0.00     0.311 C 
BRANCH  18  19
HETATM   19  N   UNK N   1      33.208  16.071   9.304  0.00  0.00     0.096 N 
HETATM   20  C   UNK N   1      34.587  16.143   9.803  0.00  0.00     0.303 C 
HETATM   21  C   UNK N   1      35.559  15.234   9.027  0.00  0.00     0.302 C 
HETATM   22  N   UNK N   1      35.016  14.904   7.713  0.00  0.00     0.087 N 
HETATM   23  C   UNK N   1      33.816  14.087   7.883  0.00  0.00     0.302 C 
HETATM   24  C   UNK N   1      35.997  14.083   7.028  0.00  0.00     0.310 C 
HETATM   25  C   UNK N   1      32.856  14.686   8.927  0.00  0.00     0.303 C 
ENDBRANCH  18  19
ENDBRANCH  15  18
ENDBRANCH   9  12
ENDBRANCH   1   8
BRANCH   2  26
HETATM   26  N   UNK N   1      22.128  16.660   5.641  0.00  0.00    -0.191 N 
HETATM   27  C   UNK N   1      21.465  16.192   6.821  0.00  0.00     0.683 A 
HETATM   28  N   UNK N   1      21.986  15.184   7.581  0.00  0.00    -0.191 N 
HETATM   29  N   UNK N   1      20.292  16.770   7.184  0.00  0.00    -0.202 N 
HETATM   30  C   UNK N   1      21.344  14.737   8.702  0.00  0.00     0.062 A 
ATOM     31  HN  UNK N   1      22.871  14.757   7.308  1.00  0.00     0.184 HD
HETATM   32  C   UNK N   1      20.134  15.330   9.074  0.00  0.00     0.048 A 
HETATM   33  C   UNK N   1      19.622  16.360   8.293  0.00  0.00     0.108 A 
ATOM     34  HN  UNK N   1      19.907  17.525   6.616  1.00  0.00     0.183 HD
HETATM   35  H   UNK N   1      21.685  17.381   5.139  0.00  0.00     0.184 HD
BRANCH  30  36
HETATM   36  C   UNK N   1      21.916  13.633   9.508  0.00  0.00     0.007 A 
HETATM   37  C   UNK N   1      23.277  13.304   9.414  0.00  0.00     0.016 A 
HETATM   38  C   UNK N   1      23.805  12.269  10.185  0.00  0.00     0.018 A 
HETATM   39  C   UNK N   1      22.963  11.562  11.045  0.00  0.00     0.087 A 
HETATM   40  N   UNK N   1      21.644  11.885  11.125  0.00  0.00    -0.374 N 
HETATM   41  C   UNK N   1      21.111  12.896  10.386  0.00  0.00     0.101 A 
ATOM     42  HN  UNK N   1      21.040  11.357  11.754  1.00  0.00     0.164 HD
ENDBRANCH  30  36
ENDBRANCH   2  26
TORSDOF 6
ENDMDL
MODEL 6
REMARK VINA RESULT:      -8.5      2.747     11.953
REMARK  6 active torsions:
REMARK  status: ('A' for Active; 'I' for Inactive)
REMARK    1  A    between atoms: N_2  and  C_16 
REMARK       I    between atoms: N_4  and  C_24 
REMARK    2  A    between atoms: N_4  and  C_25 
REMARK    3  A    between atoms: N_5  and  C_26 
REMARK       I    between atoms: N_5  and  C_32 
REMARK    4  A    between atoms: C_16  and  C_18 
REMARK    5  A    between atoms: C_23  and  C_24 
REMARK    6  A    between atoms: C_33  and  C_34 
ROOT
HETATM    1  C   UNK N   1      34.426  15.853   9.338  0.00  0.00     0.037 A 
HETATM    2  C   UNK N   1      36.067  15.008  10.922  0.00  0.00     0.057 A 
HETATM    3  C   UNK N   1      34.884  15.682  10.646  0.00  0.00     0.060 A 
HETATM    4  C   UNK N   1      36.825  14.509   9.845  0.00  0.00    -0.035 A 
HETATM    5  C   UNK N   1      35.154  15.325   8.271  0.00  0.00     0.030 A 
HETATM    6  C   UNK N   1      36.361  14.659   8.528  0.00  0.00     0.011 A 
HETATM    7  C   UNK N   1      38.121  13.813  10.084  0.00  0.00     0.050 C 
ENDROOT
BRANCH   1   8
HETATM    8  N   UNK N   1      33.258  16.623   9.130  0.00  0.00    -0.323 N 
HETATM    9  C   UNK N   1      32.074  15.987   8.919  0.00  0.00     0.256 C 
HETATM   10  O   UNK N   1      31.963  14.797   9.189  0.00  0.00    -0.267 OA
HETATM   11  H   UNK N   1      33.301  17.606   9.138  0.00  0.00     0.169 HD
BRANCH   9  12
HETATM   12  C   UNK N   1      30.934  16.681   8.317  0.00  0.00     0.032 A 
HETATM   13  C   UNK N   1      30.063  17.463   9.088  0.00  0.00     0.017 A 
HETATM   14  C   UNK N   1      29.019  18.154   8.468  0.00  0.00     0.010 A 
HETATM   15  C   UNK N   1      28.857  18.077   7.080  0.00  0.00    -0.030 A 
HETATM   16  C   UNK N   1      29.742  17.320   6.310  0.00  0.00     0.010 A 
HETATM   17  C   UNK N   1      30.774  16.627   6.926  0.00  0.00     0.017 A 
BRANCH  15  18
HETATM   18  C   UNK N   1      27.674  18.724   6.437  0.00  0.00     0.311 C 
BRANCH  18  19
HETATM   19  N   UNK N   1      27.921  19.212   5.063  0.00  0.00     0.096 N 
HETATM   20  C   UNK N   1      27.247  20.506   4.901  0.00  0.00     0.303 C 
HETATM   21  C   UNK N   1      25.806  20.376   4.375  0.00  0.00     0.302 C 
HETATM   22  N   UNK N   1      25.287  19.033   4.620  0.00  0.00     0.087 N 
HETATM   23  C   UNK N   1      26.050  18.073   3.825  0.00  0.00     0.302 C 
HETATM   24  C   UNK N   1      23.920  18.996   4.137  0.00  0.00     0.310 C 
HETATM   25  C   UNK N   1      27.568  18.293   3.959  0.00  0.00     0.303 C 
ENDBRANCH  18  19
ENDBRANCH  15  18
ENDBRANCH   9  12
ENDBRANCH   1   8
BRANCH   2  26
HETATM   26  N   UNK N   1      36.510  14.830  12.265  0.00  0.00    -0.191 N 
HETATM   27  C   UNK N   1      36.468  13.613  13.017  0.00  0.00     0.683 A 
HETATM   28  N   UNK N   1      35.957  12.462  12.487  0.00  0.00    -0.191 N 
HETATM   29  N   UNK N   1      36.950  13.612  14.286  0.00  0.00    -0.202 N 
HETATM   30  C   UNK N   1      35.913  11.306  13.214  0.00  0.00     0.062 A 
ATOM     31  HN  UNK N   1      35.602  12.466  11.531  1.00  0.00     0.184 HD
HETATM   32  C   UNK N   1      36.406  11.305  14.521  0.00  0.00     0.048 A 
HETATM   33  C   UNK N   1      36.930  12.483  15.043  0.00  0.00     0.108 A 
ATOM     34  HN  UNK N   1      37.334  14.472  14.678  1.00  0.00     0.183 HD
HETATM   35  H   UNK N   1      36.881  15.621  12.719  0.00  0.00     0.184 HD
BRANCH  30  36
HETATM   36  C   UNK N   1      35.343  10.069  12.628  0.00  0.00     0.007 A 
HETATM   37  C   UNK N   1      34.244  10.127  11.757  0.00  0.00     0.016 A 
HETATM   38  C   UNK N   1      33.723   8.956  11.205  0.00  0.00     0.018 A 
HETATM   39  C   UNK N   1      34.303   7.731  11.535  0.00  0.00     0.087 A 
HETATM   40  N   UNK N   1      35.365   7.685  12.384  0.00  0.00    -0.374 N 
HETATM   41  C   UNK N   1      35.893   8.816  12.927  0.00  0.00     0.101 A 
ATOM     42  HN  UNK N   1      35.775   6.782  12.619  1.00  0.00     0.164 HD
ENDBRANCH  30  36
ENDBRANCH   2  26
TORSDOF 6
ENDMDL
MODEL 7
REMARK VINA RESULT:      -8.2      6.905     12.409
REMARK  6 active torsions:
REMARK  status: ('A' for Active; 'I' for Inactive)
REMARK    1  A    between atoms: N_2  and  C_16 
REMARK       I    between atoms: N_4  and  C_24 
REMARK    2  A    between atoms: N_4  and  C_25 
REMARK    3  A    between atoms: N_5  and  C_26 
REMARK       I    between atoms: N_5  and  C_32 
REMARK    4  A    between atoms: C_16  and  C_18 
REMARK    5  A    between atoms: C_23  and  C_24 
REMARK    6  A    between atoms: C_33  and  C_34 
ROOT
HETATM    1  C   UNK N   1      30.824  14.539   4.207  0.00  0.00     0.037 A 
HETATM    2  C   UNK N   1      31.756  15.498   6.238  0.00  0.00     0.057 A 
HETATM    3  C   UNK N   1      30.675  15.015   5.511  0.00  0.00     0.060 A 
HETATM    4  C   UNK N   1      33.023  15.523   5.625  0.00  0.00    -0.035 A 
HETATM    5  C   UNK N   1      32.085  14.525   3.610  0.00  0.00     0.030 A 
HETATM    6  C   UNK N   1      33.185  15.027   4.320  0.00  0.00     0.011 A 
HETATM    7  C   UNK N   1      34.208  16.068   6.346  0.00  0.00     0.050 C 
ENDROOT
BRANCH   1   8
HETATM    8  N   UNK N   1      29.665  14.141   3.500  0.00  0.00    -0.323 N 
HETATM    9  C   UNK N   1      28.906  15.087   2.884  0.00  0.00     0.256 C 
HETATM   10  O   UNK N   1      29.363  16.209   2.696  0.00  0.00    -0.267 OA
HETATM   11  H   UNK N   1      29.410  13.192   3.455  0.00  0.00     0.169 HD
BRANCH   9  12
HETATM   12  C   UNK N   1      27.524  14.815   2.486  0.00  0.00     0.032 A 
HETATM   13  C   UNK N   1      27.108  13.528   2.119  0.00  0.00     0.017 A 
HETATM   14  C   UNK N   1      25.768  13.298   1.799  0.00  0.00     0.010 A 
HETATM   15  C   UNK N   1      24.843  14.346   1.862  0.00  0.00    -0.030 A 
HETATM   16  C   UNK N   1      25.254  15.622   2.256  0.00  0.00     0.010 A 
HETATM   17  C   UNK N   1      26.586  15.853   2.565  0.00  0.00     0.017 A 
BRANCH  15  18
HETATM   18  C   UNK N   1      23.438  14.121   1.411  0.00  0.00     0.311 C 
BRANCH  18  19
HETATM   19  N   UNK N   1      22.411  14.672   2.323  0.00  0.00     0.096 N 
HETATM   20  C   UNK N   1      21.841  13.566   3.102  0.00  0.00     0.303 C 
HETATM   21  C   UNK N   1      20.609  12.928   2.434  0.00  0.00     0.302 C 
HETATM   22  N   UNK N   1      20.588  13.222   1.004  0.00  0.00     0.087 N 
HETATM   23  C   UNK N   1      20.398  14.659   0.814  0.00  0.00     0.302 C 
HETATM   24  C   UNK N   1      19.428  12.559   0.437  0.00  0.00     0.310 C 
HETATM   25  C   UNK N   1      21.343  15.486   1.705  0.00  0.00     0.303 C 
ENDBRANCH  18  19
ENDBRANCH  15  18
ENDBRANCH   9  12
ENDBRANCH   1   8
BRANCH   2  26
HETATM   26  N   UNK N   1      31.586  15.965   7.574  0.00  0.00    -0.191 N 
HETATM   27  C   UNK N   1      30.610  16.912   8.023  0.00  0.00     0.683 A 
HETATM   28  N   UNK N   1      29.723  17.489   7.160  0.00  0.00    -0.191 N 
HETATM   29  N   UNK N   1      30.573  17.235   9.341  0.00  0.00    -0.202 N 
HETATM   30  C   UNK N   1      28.800  18.397   7.595  0.00  0.00     0.062 A 
ATOM     31  HN  UNK N   1      29.751  17.237   6.171  1.00  0.00     0.184 HD
HETATM   32  C   UNK N   1      28.763  18.734   8.951  0.00  0.00     0.048 A 
HETATM   33  C   UNK N   1      29.667  18.131   9.818  0.00  0.00     0.108 A 
ATOM     34  HN  UNK N   1      31.234  16.800   9.984  1.00  0.00     0.183 HD
HETATM   35  H   UNK N   1      32.198  15.601   8.253  0.00  0.00     0.184 HD
BRANCH  30  36
HETATM   36  C   UNK N   1      27.854  19.025   6.642  0.00  0.00     0.007 A 
HETATM   37  C   UNK N   1      27.436  20.354   6.813  0.00  0.00     0.016 A 
HETATM   38  C   UNK N   1      26.553  20.935   5.903  0.00  0.00     0.018 A 
HETATM   39  C   UNK N   1      26.086  20.179   4.828  0.00  0.00     0.087 A 
HETATM   40  N   UNK N   1      26.493  18.890   4.673  0.00  0.00    -0.374 N 
HETATM   41  C   UNK N   1      27.360  18.306   5.545  0.00  0.00     0.101 A 
ATOM     42  HN  UNK N   1      26.140  18.348   3.885  1.00  0.00     0.164 HD
ENDBRANCH  30  36
ENDBRANCH   2  26
TORSDOF 6
ENDMDL
MODEL 8
REMARK VINA RESULT:      -8.2      5.127      7.908
REMARK  6 active torsions:
REMARK  status: ('A' for Active; 'I' for Inactive)
REMARK    1  A    between atoms: N_2  and  C_16 
REMARK       I    between atoms: N_4  and  C_24 
REMARK    2  A    between atoms: N_4  and  C_25 
REMARK    3  A    between atoms: N_5  and  C_26 
REMARK       I    between atoms: N_5  and  C_32 
REMARK    4  A    between atoms: C_16  and  C_18 
REMARK    5  A    between atoms: C_23  and  C_24 
REMARK    6  A    between atoms: C_33  and  C_34 
ROOT
HETATM    1  C   UNK N   1      35.611  14.176  12.493  0.00  0.00     0.037 A 
HETATM    2  C   UNK N   1      34.620  13.469  10.388  0.00  0.00     0.057 A 
HETATM    3  C   UNK N   1      34.689  13.413  11.774  0.00  0.00     0.060 A 
HETATM    4  C   UNK N   1      35.523  14.303   9.701  0.00  0.00    -0.035 A 
HETATM    5  C   UNK N   1      36.480  15.034  11.819  0.00  0.00     0.030 A 
HETATM    6  C   UNK N   1      36.440  15.089  10.418  0.00  0.00     0.011 A 
HETATM    7  C   UNK N   1      35.518  14.369   8.212  0.00  0.00     0.050 C 
ENDROOT
BRANCH   1   8
HETATM    8  N   UNK N   1      35.679  14.003  13.895  0.00  0.00    -0.323 N 
HETATM    9  C   UNK N   1      36.232  12.868  14.398  0.00  0.00     0.256 C 
HETATM   10  O   UNK N   1      36.913  12.149  13.676  0.00  0.00    -0.267 OA
HETATM   11  H   UNK N   1      35.330  14.697  14.499  0.00  0.00     0.169 HD
BRANCH   9  12
HETATM   12  C   UNK N   1      35.986  12.446  15.778  0.00  0.00     0.032 A 
HETATM   13  C   UNK N   1      35.310  13.274  16.686  0.00  0.00     0.017 A 
HETATM   14  C   UNK N   1      35.046  12.813  17.978  0.00  0.00     0.010 A 
HETATM   15  C   UNK N   1      35.439  11.525  18.356  0.00  0.00    -0.030 A 
HETATM   16  C   UNK N   1      36.086  10.691  17.442  0.00  0.00     0.010 A 
HETATM   17  C   UNK N   1      36.357  11.151  16.161  0.00  0.00     0.017 A 
BRANCH  15  18
HETATM   18  C   UNK N   1      35.255  11.080  19.770  0.00  0.00     0.311 C 
BRANCH  18  19
HETATM   19  N   UNK N   1      35.146   9.615  19.937  0.00  0.00     0.096 N 
HETATM   20  C   UNK N   1      33.758   9.219  19.666  0.00  0.00     0.303 C 
HETATM   21  C   UNK N   1      32.872   9.221  20.926  0.00  0.00     0.302 C 
HETATM   22  N   UNK N   1      33.459  10.060  21.967  0.00  0.00     0.087 N 
HETATM   23  C   UNK N   1      34.717   9.462  22.411  0.00  0.00     0.302 C 
HETATM   24  C   UNK N   1      32.556  10.046  23.103  0.00  0.00     0.310 C 
HETATM   25  C   UNK N   1      35.611   9.057  21.225  0.00  0.00     0.303 C 
ENDBRANCH  18  19
ENDBRANCH  15  18
ENDBRANCH   9  12
ENDBRANCH   1   8
BRANCH   2  26
HETATM   26  N   UNK N   1      33.661  12.693   9.673  0.00  0.00    -0.191 N 
HETATM   27  C   UNK N   1      33.389  11.300   9.859  0.00  0.00     0.683 A 
HETATM   28  N   UNK N   1      34.075  10.553  10.774  0.00  0.00    -0.191 N 
HETATM   29  N   UNK N   1      32.424  10.716   9.103  0.00  0.00    -0.202 N 
HETATM   30  C   UNK N   1      33.816   9.222  10.940  0.00  0.00     0.062 A 
ATOM     31  HN  UNK N   1      34.795  10.998  11.344  1.00  0.00     0.184 HD
HETATM   32  C   UNK N   1      32.825   8.620  10.160  0.00  0.00     0.048 A 
HETATM   33  C   UNK N   1      32.130   9.396   9.239  0.00  0.00     0.108 A 
ATOM     34  HN  UNK N   1      31.911  11.277   8.423  1.00  0.00     0.183 HD
HETATM   35  H   UNK N   1      33.133  13.162   8.986  0.00  0.00     0.184 HD
BRANCH  30  36
HETATM   36  C   UNK N   1      34.579   8.424  11.928  0.00  0.00     0.007 A 
HETATM   37  C   UNK N   1      35.125   9.026  13.072  0.00  0.00     0.016 A 
HETATM   38  C   UNK N   1      35.834   8.261  13.999  0.00  0.00     0.018 A 
HETATM   39  C   UNK N   1      35.998   6.894  13.771  0.00  0.00     0.087 A 
HETATM   40  N   UNK N   1      35.469   6.321  12.657  0.00  0.00    -0.374 N 
HETATM   41  C   UNK N   1      34.768   7.048  11.744  0.00  0.00     0.101 A 
ATOM     42  HN  UNK N   1      35.601   5.322  12.502  1.00  0.00     0.164 HD
ENDBRANCH  30  36
ENDBRANCH   2  26
TORSDOF 6
ENDMDL
MODEL 9
REMARK VINA RESULT:      -8.2      1.621      2.570
REMARK  6 active torsions:
REMARK  status: ('A' for Active; 'I' for Inactive)
REMARK    1  A    between atoms: N_2  and  C_16 
REMARK       I    between atoms: N_4  and  C_24 
REMARK    2  A    between atoms: N_4  and  C_25 
REMARK    3  A    between atoms: N_5  and  C_26 
REMARK       I    between atoms: N_5  and  C_32 
REMARK    4  A    between atoms: C_16  and  C_18 
REMARK    5  A    between atoms: C_23  and  C_24 
REMARK    6  A    between atoms: C_33  and  C_34 
ROOT
HETATM    1  C   UNK N   1      33.155  16.183   7.255  0.00  0.00     0.037 A 
HETATM    2  C   UNK N   1      31.963  15.760   5.179  0.00  0.00     0.057 A 
HETATM    3  C   UNK N   1      32.234  15.450   6.505  0.00  0.00     0.060 A 
HETATM    4  C   UNK N   1      32.659  16.828   4.581  0.00  0.00    -0.035 A 
HETATM    5  C   UNK N   1      33.817  17.267   6.678  0.00  0.00     0.030 A 
HETATM    6  C   UNK N   1      33.573  17.584   5.335  0.00  0.00     0.011 A 
HETATM    7  C   UNK N   1      32.435  17.177   3.149  0.00  0.00     0.050 C 
ENDROOT
BRANCH   1   8
HETATM    8  N   UNK N   1      33.440  15.757   8.573  0.00  0.00    -0.323 N 
HETATM    9  C   UNK N   1      34.547  14.999   8.801  0.00  0.00     0.256 C 
HETATM   10  O   UNK N   1      35.426  14.932   7.950  0.00  0.00    -0.267 OA
HETATM   11  H   UNK N   1      32.845  16.005   9.317  0.00  0.00     0.169 HD
BRANCH   9  12
HETATM   12  C   UNK N   1      34.691  14.209  10.025  0.00  0.00     0.032 A 
HETATM   13  C   UNK N   1      34.611  12.810  10.006  0.00  0.00     0.017 A 
HETATM   14  C   UNK N   1      34.808  12.089  11.186  0.00  0.00     0.010 A 
HETATM   15  C   UNK N   1      35.102  12.762  12.377  0.00  0.00    -0.030 A 
HETATM   16  C   UNK N   1      35.209  14.154  12.389  0.00  0.00     0.010 A 
HETATM   17  C   UNK N   1      35.004  14.872  11.219  0.00  0.00     0.017 A 
BRANCH  15  18
HETATM   18  C   UNK N   1      35.199  11.996  13.655  0.00  0.00     0.311 C 
BRANCH  18  19
HETATM   19  N   UNK N   1      36.295  12.437  14.546  0.00  0.00     0.096 N 
HETATM   20  C   UNK N   1      37.133  11.273  14.861  0.00  0.00     0.303 C 
HETATM   21  C   UNK N   1      36.680  10.528  16.130  0.00  0.00     0.302 C 
HETATM   22  N   UNK N   1      35.285  10.834  16.437  0.00  0.00     0.087 N 
HETATM   23  C   UNK N   1      35.172  12.248  16.789  0.00  0.00     0.302 C 
HETATM   24  C   UNK N   1      34.918  10.070  17.614  0.00  0.00     0.310 C 
HETATM   25  C   UNK N   1      35.902  13.152  15.779  0.00  0.00     0.303 C 
ENDBRANCH  18  19
ENDBRANCH  15  18
ENDBRANCH   9  12
ENDBRANCH   1   8
BRANCH   2  26
HETATM   26  N   UNK N   1      31.007  15.009   4.434  0.00  0.00    -0.191 N 
HETATM   27  C   UNK N   1      29.689  15.436   4.073  0.00  0.00     0.683 A 
HETATM   28  N   UNK N   1      29.206  16.658   4.446  0.00  0.00    -0.191 N 
HETATM   29  N   UNK N   1      28.909  14.600   3.341  0.00  0.00    -0.202 N 
HETATM   30  C   UNK N   1      27.945  17.056   4.104  0.00  0.00     0.062 A 
ATOM     31  HN  UNK N   1      29.799  17.286   4.990  1.00  0.00     0.184 HD
HETATM   32  C   UNK N   1      27.139  16.195   3.354  0.00  0.00     0.048 A 
HETATM   33  C   UNK N   1      27.649  14.958   2.975  0.00  0.00     0.108 A 
ATOM     34  HN  UNK N   1      29.273  13.690   3.061  1.00  0.00     0.183 HD
HETATM   35  H   UNK N   1      31.280  14.111   4.139  0.00  0.00     0.184 HD
BRANCH  30  36
HETATM   36  C   UNK N   1      27.431  18.380   4.529  0.00  0.00     0.007 A 
HETATM   37  C   UNK N   1      26.387  19.005   3.830  0.00  0.00     0.016 A 
HETATM   38  C   UNK N   1      25.907  20.247   4.246  0.00  0.00     0.018 A 
HETATM   39  C   UNK N   1      26.481  20.861   5.360  0.00  0.00     0.087 A 
HETATM   40  N   UNK N   1      27.496  20.249   6.029  0.00  0.00    -0.374 N 
HETATM   41  C   UNK N   1      27.974  19.034   5.643  0.00  0.00     0.101 A 
ATOM     42  HN  UNK N   1      27.908  20.712   6.838  1.00  0.00     0.164 HD
ENDBRANCH  30  36
ENDBRANCH   2  26
TORSDOF 6
ENDMDL
