MODEL 1
REMARK VINA RESULT:      -7.4      0.000      0.000
REMARK  5 active torsions:
REMARK  status: ('A' for Active; 'I' for Inactive)
REMARK    1  A    between atoms: C_15  and  O_3 
REMARK    2  A    between atoms: C_16  and  O_4 
REMARK    3  A    between atoms: O_6  and  C_26 
REMARK    4  A    between atoms: C_12  and  C_22 
REMARK    5  A    between atoms: C_22  and  C_26 
ROOT
HETATM    1  F   UNK N   1      32.294  14.448   7.658  0.00  0.00    -0.238 F 
HETATM    2  O   UNK N   1      35.431  12.431  10.422  0.00  0.00    -0.378 OA
HETATM    3  O   UNK N   1      29.440  17.762   4.524  0.00  0.00    -0.289 OA
HETATM    4  C   UNK N   1      34.931  14.764  10.144  0.00  0.00     0.003 C 
HETATM    5  C   UNK N   1      35.106  14.561   8.635  0.00  0.00     0.007 C 
HETATM    6  C   UNK N   1      34.365  15.659   7.850  0.00  0.00     0.035 C 
HETATM    7  C   UNK N   1      32.827  15.621   8.180  0.00  0.00     0.147 C 
HETATM    8  C   UNK N   1      35.915  13.717  10.698  0.00  0.00     0.153 C 
HETATM    9  C   UNK N   1      33.451  14.568  10.479  0.00  0.00     0.048 C 
HETATM   10  C   UNK N   1      36.620  14.469   8.456  0.00  0.00     0.041 C 
HETATM   11  C   UNK N   1      32.602  15.611   9.729  0.00  0.00     0.160 C 
HETATM   12  C   UNK N   1      37.168  13.950   9.803  0.00  0.00     0.161 C 
HETATM   13  C   UNK N   1      32.143  16.867   7.505  0.00  0.00     0.036 C 
HETATM   14  C   UNK N   1      34.570  15.532   6.336  0.00  0.00     0.013 C 
HETATM   15  C   UNK N   1      35.363  16.173  10.612  0.00  0.00     0.019 C 
HETATM   16  C   UNK N   1      33.973  16.754   5.638  0.00  0.00     0.036 C 
HETATM   17  C   UNK N   1      32.531  16.918   6.020  0.00  0.00    -0.061 C 
HETATM   18  C   UNK N   1      32.673  18.144   8.153  0.00  0.00     0.028 C 
HETATM   19  C   UNK N   1      30.638  16.889   7.727  0.00  0.00    -0.006 C 
HETATM   20  C   UNK N   1      31.636  17.170   5.053  0.00  0.00     0.058 C 
HETATM   21  C   UNK N   1      29.755  17.136   6.750  0.00  0.00     0.052 C 
HETATM   22  C   UNK N   1      30.221  17.379   5.381  0.00  0.00     0.172 C 
HETATM   23  H   UNK N   1      35.245  11.501  10.217  0.00  0.00     0.211 HD
ENDROOT
BRANCH   8  24
HETATM   24  C   UNK N   1      36.146  13.809  12.202  0.00  0.00     0.187 C 
HETATM   25  O   UNK N   1      36.626  14.813  12.704  0.00  0.00    -0.292 OA
BRANCH  24  26
HETATM   26  C   UNK N   1      35.775  12.661  13.088  0.00  0.00     0.245 C 
BRANCH  26  27
HETATM   27  O   UNK N   1      34.390  12.602  13.241  0.00  0.00    -0.393 OA
HETATM   28  H   UNK N   1      33.723  13.030  12.682  0.00  0.00     0.209 HD
ENDBRANCH  26  27
ENDBRANCH  24  26
ENDBRANCH   8  24
BRANCH  12  29
HETATM   29  O   UNK N   1      37.999  14.952  10.315  0.00  0.00    -0.392 OA
HETATM   30  H   UNK N   1      38.258  15.810  10.687  0.00  0.00     0.210 HD
ENDBRANCH  12  29
BRANCH  11  31
HETATM   31  O   UNK N   1      31.258  15.407  10.046  0.00  0.00    -0.392 OA
HETATM   32  H   UNK N   1      30.796  15.892  10.748  0.00  0.00     0.210 HD
ENDBRANCH  11  31
TORSDOF 5
ENDMDL
MODEL 2
REMARK VINA RESULT:      -7.3      3.891      9.580
REMARK  5 active torsions:
REMARK  status: ('A' for Active; 'I' for Inactive)
REMARK    1  A    between atoms: C_15  and  O_3 
REMARK    2  A    between atoms: C_16  and  O_4 
REMARK    3  A    between atoms: O_6  and  C_26 
REMARK    4  A    between atoms: C_12  and  C_22 
REMARK    5  A    between atoms: C_22  and  C_26 
ROOT
HETATM    1  F   UNK N   1      28.489  15.749   6.409  0.00  0.00    -0.238 F 
HETATM    2  O   UNK N   1      25.031  18.717   5.518  0.00  0.00    -0.378 OA
HETATM    3  O   UNK N   1      33.207  13.335   7.334  0.00  0.00    -0.289 OA
HETATM    4  C   UNK N   1      27.351  18.864   4.912  0.00  0.00     0.003 C 
HETATM    5  C   UNK N   1      27.691  18.619   6.386  0.00  0.00     0.007 C 
HETATM    6  C   UNK N   1      29.121  18.068   6.530  0.00  0.00     0.035 C 
HETATM    7  C   UNK N   1      29.260  16.705   5.757  0.00  0.00     0.147 C 
HETATM    8  C   UNK N   1      26.006  19.602   5.039  0.00  0.00     0.153 C 
HETATM    9  C   UNK N   1      27.333  17.510   4.200  0.00  0.00     0.048 C 
HETATM   10  C   UNK N   1      27.383  19.957   7.056  0.00  0.00     0.041 C 
HETATM   11  C   UNK N   1      28.721  16.850   4.295  0.00  0.00     0.160 C 
HETATM   12  C   UNK N   1      26.309  20.627   6.172  0.00  0.00     0.161 C 
HETATM   13  C   UNK N   1      30.773  16.274   5.775  0.00  0.00     0.036 C 
HETATM   14  C   UNK N   1      29.526  17.872   7.995  0.00  0.00     0.013 C 
HETATM   15  C   UNK N   1      28.376  19.781   4.207  0.00  0.00     0.019 C 
HETATM   16  C   UNK N   1      31.010  17.510   8.069  0.00  0.00     0.036 C 
HETATM   17  C   UNK N   1      31.294  16.307   7.219  0.00  0.00    -0.061 C 
HETATM   18  C   UNK N   1      31.593  17.286   4.977  0.00  0.00     0.028 C 
HETATM   19  C   UNK N   1      31.000  14.934   5.091  0.00  0.00    -0.006 C 
HETATM   20  C   UNK N   1      32.052  15.325   7.730  0.00  0.00     0.058 C 
HETATM   21  C   UNK N   1      31.755  13.959   5.617  0.00  0.00     0.052 C 
HETATM   22  C   UNK N   1      32.393  14.147   6.924  0.00  0.00     0.172 C 
HETATM   23  H   UNK N   1      24.297  18.227   5.922  0.00  0.00     0.211 HD
ENDROOT
BRANCH   8  24
HETATM   24  C   UNK N   1      25.489  20.190   3.731  0.00  0.00     0.187 C 
HETATM   25  O   UNK N   1      26.230  20.813   2.986  0.00  0.00    -0.292 OA
BRANCH  24  26
HETATM   26  C   UNK N   1      24.056  20.002   3.339  0.00  0.00     0.245 C 
BRANCH  26  27
HETATM   27  O   UNK N   1      23.492  21.227   2.988  0.00  0.00    -0.393 OA
HETATM   28  H   UNK N   1      23.575  22.068   3.466  0.00  0.00     0.209 HD
ENDBRANCH  26  27
ENDBRANCH  24  26
ENDBRANCH   8  24
BRANCH  12  29
HETATM   29  O   UNK N   1      26.871  21.807   5.675  0.00  0.00    -0.392 OA
HETATM   30  H   UNK N   1      27.368  22.641   5.670  0.00  0.00     0.210 HD
ENDBRANCH  12  29
BRANCH  11  31
HETATM   31  O   UNK N   1      28.676  15.616   3.644  0.00  0.00    -0.392 OA
HETATM   32  H   UNK N   1      28.597  15.522   2.682  0.00  0.00     0.210 HD
ENDBRANCH  11  31
TORSDOF 5
ENDMDL
MODEL 3
REMARK VINA RESULT:      -7.2      4.713      9.050
REMARK  5 active torsions:
REMARK  status: ('A' for Active; 'I' for Inactive)
REMARK    1  A    between atoms: C_15  and  O_3 
REMARK    2  A    between atoms: C_16  and  O_4 
REMARK    3  A    between atoms: O_6  and  C_26 
REMARK    4  A    between atoms: C_12  and  C_22 
REMARK    5  A    between atoms: C_22  and  C_26 
ROOT
HETATM    1  F   UNK N   1      37.537  11.810  15.170  0.00  0.00    -0.238 F 
HETATM    2  O   UNK N   1      38.520  13.470  10.947  0.00  0.00    -0.378 OA
HETATM    3  O   UNK N   1      35.533   9.226  19.443  0.00  0.00    -0.289 OA
HETATM    4  C   UNK N   1      36.458  12.562  11.778  0.00  0.00     0.003 C 
HETATM    5  C   UNK N   1      37.252  11.337  12.243  0.00  0.00     0.007 C 
HETATM    6  C   UNK N   1      36.504  10.598  13.366  0.00  0.00     0.035 C 
HETATM    7  C   UNK N   1      36.296  11.550  14.601  0.00  0.00     0.147 C 
HETATM    8  C   UNK N   1      37.269  12.987  10.541  0.00  0.00     0.153 C 
HETATM    9  C   UNK N   1      36.397  13.554  12.941  0.00  0.00     0.048 C 
HETATM   10  C   UNK N   1      37.518  10.566  10.950  0.00  0.00     0.041 C 
HETATM   11  C   UNK N   1      35.677  12.912  14.141  0.00  0.00     0.160 C 
HETATM   12  C   UNK N   1      37.500  11.623   9.825  0.00  0.00     0.161 C 
HETATM   13  C   UNK N   1      35.371  10.819  15.644  0.00  0.00     0.036 C 
HETATM   14  C   UNK N   1      37.233   9.326  13.814  0.00  0.00     0.013 C 
HETATM   15  C   UNK N   1      35.014  12.211  11.350  0.00  0.00     0.019 C 
HETATM   16  C   UNK N   1      36.346   8.546  14.786  0.00  0.00     0.036 C 
HETATM   17  C   UNK N   1      35.940   9.422  15.935  0.00  0.00    -0.061 C 
HETATM   18  C   UNK N   1      33.985  10.623  15.036  0.00  0.00     0.028 C 
HETATM   19  C   UNK N   1      35.154  11.646  16.902  0.00  0.00    -0.006 C 
HETATM   20  C   UNK N   1      36.026   8.928  17.180  0.00  0.00     0.058 C 
HETATM   21  C   UNK N   1      35.250  11.141  18.140  0.00  0.00     0.052 C 
HETATM   22  C   UNK N   1      35.602   9.731  18.333  0.00  0.00     0.172 C 
HETATM   23  H   UNK N   1      39.440  13.743  11.097  0.00  0.00     0.211 HD
ENDROOT
BRANCH   8  24
HETATM   24  C   UNK N   1      36.608  14.075   9.702  0.00  0.00     0.187 C 
HETATM   25  O   UNK N   1      36.467  13.940   8.496  0.00  0.00    -0.292 OA
BRANCH  24  26
HETATM   26  C   UNK N   1      36.112  15.328  10.355  0.00  0.00     0.245 C 
BRANCH  26  27
HETATM   27  O   UNK N   1      37.189  16.093  10.799  0.00  0.00    -0.393 OA
HETATM   28  H   UNK N   1      37.241  17.062  10.836  0.00  0.00     0.209 HD
ENDBRANCH  26  27
ENDBRANCH  24  26
ENDBRANCH   8  24
BRANCH  12  29
HETATM   29  O   UNK N   1      36.441  11.292   8.974  0.00  0.00    -0.392 OA
HETATM   30  H   UNK N   1      35.534  11.250   8.633  0.00  0.00     0.210 HD
ENDBRANCH  12  29
BRANCH  11  31
HETATM   31  O   UNK N   1      35.640  13.834  15.188  0.00  0.00    -0.392 OA
HETATM   32  H   UNK N   1      36.337  13.909  15.858  0.00  0.00     0.210 HD
ENDBRANCH  11  31
TORSDOF 5
ENDMDL
MODEL 4
REMARK VINA RESULT:      -7.2      1.953      3.483
REMARK  5 active torsions:
REMARK  status: ('A' for Active; 'I' for Inactive)
REMARK    1  A    between atoms: C_15  and  O_3 
REMARK    2  A    between atoms: C_16  and  O_4 
REMARK    3  A    between atoms: O_6  and  C_26 
REMARK    4  A    between atoms: C_12  and  C_22 
REMARK    5  A    between atoms: C_22  and  C_26 
ROOT
HETATM    1  F   UNK N   1      35.117  16.537   6.550  0.00  0.00    -0.238 F 
HETATM    2  O   UNK N   1      37.114  15.424  10.591  0.00  0.00    -0.378 OA
HETATM    3  O   UNK N   1      31.864  17.120   2.304  0.00  0.00    -0.289 OA
HETATM    4  C   UNK N   1      35.442  14.232   9.346  0.00  0.00     0.003 C 
HETATM    5  C   UNK N   1      34.627  15.529   9.310  0.00  0.00     0.007 C 
HETATM    6  C   UNK N   1      33.629  15.512   8.139  0.00  0.00     0.035 C 
HETATM    7  C   UNK N   1      34.394  15.370   6.772  0.00  0.00     0.147 C 
HETATM    8  C   UNK N   1      36.180  14.385  10.688  0.00  0.00     0.153 C 
HETATM    9  C   UNK N   1      36.304  14.180   8.083  0.00  0.00     0.048 C 
HETATM   10  C   UNK N   1      34.053  15.635  10.722  0.00  0.00     0.041 C 
HETATM   11  C   UNK N   1      35.404  14.176   6.834  0.00  0.00     0.160 C 
HETATM   12  C   UNK N   1      35.037  14.865  11.630  0.00  0.00     0.161 C 
HETATM   13  C   UNK N   1      33.334  15.171   5.626  0.00  0.00     0.036 C 
HETATM   14  C   UNK N   1      32.745  16.764   8.107  0.00  0.00     0.013 C 
HETATM   15  C   UNK N   1      34.552  12.968   9.390  0.00  0.00     0.019 C 
HETATM   16  C   UNK N   1      31.658  16.593   7.046  0.00  0.00     0.036 C 
HETATM   17  C   UNK N   1      32.275  16.280   5.714  0.00  0.00    -0.061 C 
HETATM   18  C   UNK N   1      32.613  13.842   5.835  0.00  0.00     0.028 C 
HETATM   19  C   UNK N   1      33.981  15.075   4.252  0.00  0.00    -0.006 C 
HETATM   20  C   UNK N   1      31.833  16.937   4.632  0.00  0.00     0.058 C 
HETATM   21  C   UNK N   1      33.532  15.743   3.180  0.00  0.00     0.052 C 
HETATM   22  C   UNK N   1      32.376  16.637   3.302  0.00  0.00     0.172 C 
HETATM   23  H   UNK N   1      37.729  16.171  10.672  0.00  0.00     0.211 HD
ENDROOT
BRANCH   8  24
HETATM   24  C   UNK N   1      36.929  13.135  11.137  0.00  0.00     0.187 C 
HETATM   25  O   UNK N   1      36.562  12.498  12.112  0.00  0.00    -0.292 OA
BRANCH  24  26
HETATM   26  C   UNK N   1      38.129  12.666  10.374  0.00  0.00     0.245 C 
BRANCH  26  27
HETATM   27  O   UNK N   1      39.221  13.488  10.647  0.00  0.00    -0.393 OA
HETATM   28  H   UNK N   1      39.943  13.312  11.271  0.00  0.00     0.209 HD
ENDBRANCH  26  27
ENDBRANCH  24  26
ENDBRANCH   8  24
BRANCH  12  29
HETATM   29  O   UNK N   1      34.326  13.795  12.182  0.00  0.00    -0.392 OA
HETATM   30  H   UNK N   1      34.118  12.881  12.433  0.00  0.00     0.210 HD
ENDBRANCH  12  29
BRANCH  11  31
HETATM   31  O   UNK N   1      36.214  14.135   5.698  0.00  0.00    -0.392 OA
HETATM   32  H   UNK N   1      36.189  13.413   5.051  0.00  0.00     0.210 HD
ENDBRANCH  11  31
TORSDOF 5
ENDMDL
MODEL 5
REMARK VINA RESULT:      -7.1     13.951     17.874
REMARK  5 active torsions:
REMARK  status: ('A' for Active; 'I' for Inactive)
REMARK    1  A    between atoms: C_15  and  O_3 
REMARK    2  A    between atoms: C_16  and  O_4 
REMARK    3  A    between atoms: O_6  and  C_26 
REMARK    4  A    between atoms: C_12  and  C_22 
REMARK    5  A    between atoms: C_22  and  C_26 
ROOT
HETATM    1  F   UNK N   1      31.334  23.800  -5.374  0.00  0.00    -0.238 F 
HETATM    2  O   UNK N   1      28.039  26.908  -6.391  0.00  0.00    -0.378 OA
HETATM    3  O   UNK N   1      34.173  19.441  -4.001  0.00  0.00    -0.289 OA
HETATM    4  C   UNK N   1      27.912  24.970  -4.979  0.00  0.00     0.003 C 
HETATM    5  C   UNK N   1      28.479  24.154  -6.146  0.00  0.00     0.007 C 
HETATM    6  C   UNK N   1      29.135  22.859  -5.636  0.00  0.00     0.035 C 
HETATM    7  C   UNK N   1      30.313  23.195  -4.650  0.00  0.00     0.147 C 
HETATM    8  C   UNK N   1      27.135  26.064  -5.734  0.00  0.00     0.153 C 
HETATM    9  C   UNK N   1      29.084  25.427  -4.109  0.00  0.00     0.048 C 
HETATM   10  C   UNK N   1      27.293  24.014  -7.099  0.00  0.00     0.041 C 
HETATM   11  C   UNK N   1      29.833  24.203  -3.552  0.00  0.00     0.160 C 
HETATM   12  C   UNK N   1      26.389  25.234  -6.821  0.00  0.00     0.161 C 
HETATM   13  C   UNK N   1      30.829  21.852  -4.014  0.00  0.00     0.036 C 
HETATM   14  C   UNK N   1      29.656  21.980  -6.780  0.00  0.00     0.013 C 
HETATM   15  C   UNK N   1      26.932  24.155  -4.103  0.00  0.00     0.019 C 
HETATM   16  C   UNK N   1      30.116  20.634  -6.218  0.00  0.00     0.036 C 
HETATM   17  C   UNK N   1      31.131  20.843  -5.133  0.00  0.00    -0.061 C 
HETATM   18  C   UNK N   1      29.726  21.248  -3.149  0.00  0.00     0.028 C 
HETATM   19  C   UNK N   1      32.009  22.072  -3.079  0.00  0.00    -0.006 C 
HETATM   20  C   UNK N   1      32.242  20.092  -5.140  0.00  0.00     0.058 C 
HETATM   21  C   UNK N   1      33.117  21.318  -3.103  0.00  0.00     0.052 C 
HETATM   22  C   UNK N   1      33.245  20.230  -4.078  0.00  0.00     0.172 C 
HETATM   23  H   UNK N   1      28.556  27.505  -6.955  0.00  0.00     0.211 HD
ENDROOT
BRANCH   8  24
HETATM   24  C   UNK N   1      26.256  26.935  -4.843  0.00  0.00     0.187 C 
HETATM   25  O   UNK N   1      25.062  27.059  -5.068  0.00  0.00    -0.292 OA
BRANCH  24  26
HETATM   26  C   UNK N   1      26.852  27.647  -3.669  0.00  0.00     0.245 C 
BRANCH  26  27
HETATM   27  O   UNK N   1      26.058  27.455  -2.539  0.00  0.00    -0.393 OA
HETATM   28  H   UNK N   1      25.089  27.437  -2.503  0.00  0.00     0.209 HD
ENDBRANCH  26  27
ENDBRANCH  24  26
ENDBRANCH   8  24
BRANCH  12  29
HETATM   29  O   UNK N   1      25.168  24.737  -6.355  0.00  0.00    -0.392 OA
HETATM   30  H   UNK N   1      24.482  24.088  -6.130  0.00  0.00     0.210 HD
ENDBRANCH  12  29
BRANCH  11  31
HETATM   31  O   UNK N   1      30.899  24.647  -2.768  0.00  0.00    -0.392 OA
HETATM   32  H   UNK N   1      31.829  24.516  -3.008  0.00  0.00     0.210 HD
ENDBRANCH  11  31
TORSDOF 5
ENDMDL
MODEL 6
REMARK VINA RESULT:      -7.1      2.267      6.880
REMARK  5 active torsions:
REMARK  status: ('A' for Active; 'I' for Inactive)
REMARK    1  A    between atoms: C_15  and  O_3 
REMARK    2  A    between atoms: C_16  and  O_4 
REMARK    3  A    between atoms: O_6  and  C_26 
REMARK    4  A    between atoms: C_12  and  C_22 
REMARK    5  A    between atoms: C_22  and  C_26 
ROOT
HETATM    1  F   UNK N   1      34.003  13.926  11.136  0.00  0.00    -0.238 F 
HETATM    2  O   UNK N   1      31.770  17.403   9.020  0.00  0.00    -0.378 OA
HETATM    3  O   UNK N   1      37.373  10.003  12.617  0.00  0.00    -0.289 OA
HETATM    4  C   UNK N   1      33.209  15.728   8.077  0.00  0.00     0.003 C 
HETATM    5  C   UNK N   1      34.253  16.115   9.131  0.00  0.00     0.007 C 
HETATM    6  C   UNK N   1      35.248  14.963   9.358  0.00  0.00     0.035 C 
HETATM    7  C   UNK N   1      34.492  13.679   9.859  0.00  0.00     0.147 C 
HETATM    8  C   UNK N   1      32.492  17.073   7.866  0.00  0.00     0.153 C 
HETATM    9  C   UNK N   1      32.373  14.578   8.640  0.00  0.00     0.048 C 
HETATM   10  C   UNK N   1      34.814  17.439   8.615  0.00  0.00     0.041 C 
HETATM   11  C   UNK N   1      33.276  13.364   8.925  0.00  0.00     0.160 C 
HETATM   12  C   UNK N   1      33.690  18.063   7.760  0.00  0.00     0.161 C 
HETATM   13  C   UNK N   1      35.514  12.483   9.899  0.00  0.00     0.036 C 
HETATM   14  C   UNK N   1      36.351  15.334  10.357  0.00  0.00     0.013 C 
HETATM   15  C   UNK N   1      33.847  15.271   6.745  0.00  0.00     0.019 C 
HETATM   16  C   UNK N   1      37.404  14.226  10.388  0.00  0.00     0.036 C 
HETATM   17  C   UNK N   1      36.759  12.905  10.693  0.00  0.00    -0.061 C 
HETATM   18  C   UNK N   1      35.971  12.164   8.478  0.00  0.00     0.028 C 
HETATM   19  C   UNK N   1      34.882  11.201  10.423  0.00  0.00    -0.006 C 
HETATM   20  C   UNK N   1      37.333  12.106  11.605  0.00  0.00     0.058 C 
HETATM   21  C   UNK N   1      35.464  10.417  11.340  0.00  0.00     0.052 C 
HETATM   22  C   UNK N   1      36.765  10.788  11.907  0.00  0.00     0.172 C 
HETATM   23  H   UNK N   1      31.304  17.778   9.784  0.00  0.00     0.211 HD
ENDROOT
BRANCH   8  24
HETATM   24  C   UNK N   1      31.516  17.085   6.694  0.00  0.00     0.187 C 
HETATM   25  O   UNK N   1      31.893  17.354   5.564  0.00  0.00    -0.292 OA
BRANCH  24  26
HETATM   26  C   UNK N   1      30.072  16.756   6.918  0.00  0.00     0.245 C 
BRANCH  26  27
HETATM   27  O   UNK N   1      29.413  17.852   7.474  0.00  0.00    -0.393 OA
HETATM   28  H   UNK N   1      29.625  18.789   7.342  0.00  0.00     0.209 HD
ENDBRANCH  26  27
ENDBRANCH  24  26
ENDBRANCH   8  24
BRANCH  12  29
HETATM   29  O   UNK N   1      34.179  18.157   6.454  0.00  0.00    -0.392 OA
HETATM   30  H   UNK N   1      34.246  17.997   5.499  0.00  0.00     0.210 HD
ENDBRANCH  12  29
BRANCH  11  31
HETATM   31  O   UNK N   1      32.490  12.332   9.443  0.00  0.00    -0.392 OA
HETATM   32  H   UNK N   1      32.786  11.741  10.152  0.00  0.00     0.210 HD
ENDBRANCH  11  31
TORSDOF 5
ENDMDL
MODEL 7
REMARK VINA RESULT:      -6.9      4.412      8.724
REMARK  5 active torsions:
REMARK  status: ('A' for Active; 'I' for Inactive)
REMARK    1  A    between atoms: C_15  and  O_3 
REMARK    2  A    between atoms: C_16  and  O_4 
REMARK    3  A    between atoms: O_6  and  C_26 
REMARK    4  A    between atoms: C_12  and  C_22 
REMARK    5  A    between atoms: C_22  and  C_26 
ROOT
HETATM    1  F   UNK N   1      33.814  11.609  14.347  0.00  0.00    -0.238 F 
HETATM    2  O   UNK N   1      34.011  13.794  10.255  0.00  0.00    -0.378 OA
HETATM    3  O   UNK N   1      34.787   9.427  19.168  0.00  0.00    -0.289 OA
HETATM    4  C   UNK N   1      35.781  12.771  11.515  0.00  0.00     0.003 C 
HETATM    5  C   UNK N   1      35.323  13.598  12.721  0.00  0.00     0.007 C 
HETATM    6  C   UNK N   1      35.790  12.948  14.035  0.00  0.00     0.035 C 
HETATM    7  C   UNK N   1      35.189  11.501  14.172  0.00  0.00     0.147 C 
HETATM    8  C   UNK N   1      35.406  13.709  10.354  0.00  0.00     0.153 C 
HETATM    9  C   UNK N   1      35.068  11.419  11.571  0.00  0.00     0.048 C 
HETATM   10  C   UNK N   1      35.835  15.004  12.411  0.00  0.00     0.041 C 
HETATM   11  C   UNK N   1      35.449  10.678  12.866  0.00  0.00     0.160 C 
HETATM   12  C   UNK N   1      35.926  15.083  10.871  0.00  0.00     0.161 C 
HETATM   13  C   UNK N   1      35.836  10.810  15.428  0.00  0.00     0.036 C 
HETATM   14  C   UNK N   1      35.409  13.781  15.265  0.00  0.00     0.013 C 
HETATM   15  C   UNK N   1      37.308  12.525  11.505  0.00  0.00     0.019 C 
HETATM   16  C   UNK N   1      36.067  13.182  16.509  0.00  0.00     0.036 C 
HETATM   17  C   UNK N   1      35.695  11.735  16.646  0.00  0.00    -0.061 C 
HETATM   18  C   UNK N   1      37.330  10.615  15.181  0.00  0.00     0.028 C 
HETATM   19  C   UNK N   1      35.276   9.416  15.672  0.00  0.00    -0.006 C 
HETATM   20  C   UNK N   1      35.313  11.282  17.850  0.00  0.00     0.058 C 
HETATM   21  C   UNK N   1      34.893   8.979  16.880  0.00  0.00     0.052 C 
HETATM   22  C   UNK N   1      34.980   9.866  18.045  0.00  0.00     0.172 C 
HETATM   23  H   UNK N   1      33.069  13.999  10.142  0.00  0.00     0.211 HD
ENDROOT
BRANCH   8  24
HETATM   24  C   UNK N   1      35.936  13.266   8.995  0.00  0.00     0.187 C 
HETATM   25  O   UNK N   1      36.737  13.953   8.379  0.00  0.00    -0.292 OA
BRANCH  24  26
HETATM   26  C   UNK N   1      35.483  11.970   8.400  0.00  0.00     0.245 C 
BRANCH  26  27
HETATM   27  O   UNK N   1      34.157  12.072   7.982  0.00  0.00    -0.393 OA
HETATM   28  H   UNK N   1      33.833  12.092   7.068  0.00  0.00     0.209 HD
ENDBRANCH  26  27
ENDBRANCH  24  26
ENDBRANCH   8  24
BRANCH  12  29
HETATM   29  O   UNK N   1      37.273  15.286  10.555  0.00  0.00    -0.392 OA
HETATM   30  H   UNK N   1      38.184  15.074  10.297  0.00  0.00     0.210 HD
ENDBRANCH  12  29
BRANCH  11  31
HETATM   31  O   UNK N   1      34.782   9.452  12.895  0.00  0.00    -0.392 OA
HETATM   32  H   UNK N   1      34.467   8.997  12.099  0.00  0.00     0.210 HD
ENDBRANCH  11  31
TORSDOF 5
ENDMDL
MODEL 8
REMARK VINA RESULT:      -6.8      2.330      7.655
REMARK  5 active torsions:
REMARK  status: ('A' for Active; 'I' for Inactive)
REMARK    1  A    between atoms: C_15  and  O_3 
REMARK    2  A    between atoms: C_16  and  O_4 
REMARK    3  A    between atoms: O_6  and  C_26 
REMARK    4  A    between atoms: C_12  and  C_22 
REMARK    5  A    between atoms: C_22  and  C_26 
ROOT
HETATM    1  F   UNK N   1      31.584  15.101   8.413  0.00  0.00    -0.238 F 
HETATM    2  O   UNK N   1      27.707  15.216   5.862  0.00  0.00    -0.378 OA
HETATM    3  O   UNK N   1      36.464  15.839  10.557  0.00  0.00    -0.289 OA
HETATM    4  C   UNK N   1      29.957  15.770   5.229  0.00  0.00     0.003 C 
HETATM    5  C   UNK N   1      30.010  16.695   6.449  0.00  0.00     0.007 C 
HETATM    6  C   UNK N   1      31.467  16.949   6.876  0.00  0.00     0.035 C 
HETATM    7  C   UNK N   1      32.169  15.593   7.252  0.00  0.00     0.147 C 
HETATM    8  C   UNK N   1      28.463  15.848   4.866  0.00  0.00     0.153 C 
HETATM    9  C   UNK N   1      30.497  14.402   5.648  0.00  0.00     0.048 C 
HETATM   10  C   UNK N   1      29.181  17.906   6.023  0.00  0.00     0.041 C 
HETATM   11  C   UNK N   1      31.958  14.537   6.116  0.00  0.00     0.160 C 
HETATM   12  C   UNK N   1      28.188  17.378   4.965  0.00  0.00     0.161 C 
HETATM   13  C   UNK N   1      33.697  15.875   7.500  0.00  0.00     0.036 C 
HETATM   14  C   UNK N   1      31.568  17.925   8.054  0.00  0.00     0.013 C 
HETATM   15  C   UNK N   1      30.801  16.295   4.045  0.00  0.00     0.019 C 
HETATM   16  C   UNK N   1      33.036  18.278   8.297  0.00  0.00     0.036 C 
HETATM   17  C   UNK N   1      33.844  17.031   8.502  0.00  0.00    -0.061 C 
HETATM   18  C   UNK N   1      34.344  16.326   6.193  0.00  0.00     0.028 C 
HETATM   19  C   UNK N   1      34.454  14.624   7.922  0.00  0.00    -0.006 C 
HETATM   20  C   UNK N   1      34.719  16.992   9.518  0.00  0.00     0.058 C 
HETATM   21  C   UNK N   1      35.321  14.599   8.944  0.00  0.00     0.052 C 
HETATM   22  C   UNK N   1      35.562  15.810   9.733  0.00  0.00     0.172 C 
HETATM   23  H   UNK N   1      27.076  14.885   6.521  0.00  0.00     0.211 HD
ENDROOT
BRANCH   8  24
HETATM   24  C   UNK N   1      28.107  15.195   3.535  0.00  0.00     0.187 C 
HETATM   25  O   UNK N   1      27.771  15.869   2.574  0.00  0.00    -0.292 OA
BRANCH  24  26
HETATM   26  C   UNK N   1      28.176  13.706   3.389  0.00  0.00     0.245 C 
BRANCH  26  27
HETATM   27  O   UNK N   1      27.020  13.122   3.906  0.00  0.00    -0.393 OA
HETATM   28  H   UNK N   1      26.294  13.571   4.365  0.00  0.00     0.209 HD
ENDBRANCH  26  27
ENDBRANCH  24  26
ENDBRANCH   8  24
BRANCH  12  29
HETATM   29  O   UNK N   1      28.478  18.042   3.769  0.00  0.00    -0.392 OA
HETATM   30  H   UNK N   1      28.941  18.260   2.944  0.00  0.00     0.210 HD
ENDBRANCH  12  29
BRANCH  11  31
HETATM   31  O   UNK N   1      32.424  13.277   6.498  0.00  0.00    -0.392 OA
HETATM   32  H   UNK N   1      32.884  13.110   7.335  0.00  0.00     0.210 HD
ENDBRANCH  11  31
TORSDOF 5
ENDMDL
MODEL 9
REMARK VINA RESULT:      -6.7      2.141      3.381
REMARK  5 active torsions:
REMARK  status: ('A' for Active; 'I' for Inactive)
REMARK    1  A    between atoms: C_15  and  O_3 
REMARK    2  A    between atoms: C_16  and  O_4 
REMARK    3  A    between atoms: O_6  and  C_26 
REMARK    4  A    between atoms: C_12  and  C_22 
REMARK    5  A    between atoms: C_22  and  C_26 
ROOT
HETATM    1  F   UNK N   1      29.788  15.680   7.236  0.00  0.00    -0.238 F 
HETATM    2  O   UNK N   1      33.118  14.946  10.386  0.00  0.00    -0.378 OA
HETATM    3  O   UNK N   1      26.897  16.601   2.792  0.00  0.00    -0.289 OA
HETATM    4  C   UNK N   1      33.245  16.105   8.287  0.00  0.00     0.003 C 
HETATM    5  C   UNK N   1      32.626  14.866   7.632  0.00  0.00     0.007 C 
HETATM    6  C   UNK N   1      31.957  15.234   6.295  0.00  0.00     0.035 C 
HETATM    7  C   UNK N   1      30.817  16.291   6.529  0.00  0.00     0.147 C 
HETATM    8  C   UNK N   1      34.022  15.465   9.451  0.00  0.00     0.153 C 
HETATM    9  C   UNK N   1      32.110  17.062   8.655  0.00  0.00     0.048 C 
HETATM   10  C   UNK N   1      33.779  13.865   7.589  0.00  0.00     0.041 C 
HETATM   11  C   UNK N   1      31.351  17.488   7.385  0.00  0.00     0.160 C 
HETATM   12  C   UNK N   1      34.718  14.261   8.749  0.00  0.00     0.161 C 
HETATM   13  C   UNK N   1      30.290  16.774   5.127  0.00  0.00     0.036 C 
HETATM   14  C   UNK N   1      31.383  14.009   5.573  0.00  0.00     0.013 C 
HETATM   15  C   UNK N   1      34.232  16.843   7.354  0.00  0.00     0.019 C 
HETATM   16  C   UNK N   1      30.911  14.416   4.177  0.00  0.00     0.036 C 
HETATM   17  C   UNK N   1      29.934  15.551   4.269  0.00  0.00    -0.061 C 
HETATM   18  C   UNK N   1      31.406  17.523   4.402  0.00  0.00     0.028 C 
HETATM   19  C   UNK N   1      29.144  17.767   5.252  0.00  0.00    -0.006 C 
HETATM   20  C   UNK N   1      28.806  15.487   3.545  0.00  0.00     0.058 C 
HETATM   21  C   UNK N   1      28.020  17.687   4.526  0.00  0.00     0.052 C 
HETATM   22  C   UNK N   1      27.839  16.591   3.569  0.00  0.00     0.172 C 
HETATM   23  H   UNK N   1      32.597  14.476  11.057  0.00  0.00     0.211 HD
ENDROOT
BRANCH   8  24
HETATM   24  C   UNK N   1      34.946  16.427  10.190  0.00  0.00     0.187 C 
HETATM   25  O   UNK N   1      34.958  17.618   9.922  0.00  0.00    -0.292 OA
BRANCH  24  26
HETATM   26  C   UNK N   1      35.851  15.917  11.268  0.00  0.00     0.245 C 
BRANCH  26  27
HETATM   27  O   UNK N   1      37.167  15.882  10.811  0.00  0.00    -0.393 OA
HETATM   28  H   UNK N   1      37.958  15.647  11.323  0.00  0.00     0.209 HD
ENDBRANCH  26  27
ENDBRANCH  24  26
ENDBRANCH   8  24
BRANCH  12  29
HETATM   29  O   UNK N   1      35.941  14.623   8.176  0.00  0.00    -0.392 OA
HETATM   30  H   UNK N   1      36.563  15.052   7.567  0.00  0.00     0.210 HD
ENDBRANCH  12  29
BRANCH  11  31
HETATM   31  O   UNK N   1      30.319  18.355   7.749  0.00  0.00    -0.392 OA
HETATM   32  H   UNK N   1      30.234  18.743   8.633  0.00  0.00     0.210 HD
ENDBRANCH  11  31
TORSDOF 5
ENDMDL
