MODEL 1
REMARK VINA RESULT:      -7.6      0.000      0.000
REMARK  1 active torsions:
REMARK  status: ('A' for Active; 'I' for Inactive)
REMARK    1  A    between atoms: C_9  and  O_1 
ROOT
HETATM    1  O   UNK N   1      31.895  21.936  -2.296  0.00  0.00    -0.321 OA
HETATM    2  O   UNK N   1      33.859  21.105  -2.954  0.00  0.00    -0.265 OA
HETATM    3  C   UNK N   1      27.487  23.889  -6.232  0.00  0.00     0.001 C 
HETATM    4  C   UNK N   1      27.278  25.244  -5.557  0.00  0.00    -0.009 C 
HETATM    5  C   UNK N   1      28.887  23.319  -5.932  0.00  0.00    -0.005 C 
HETATM    6  C   UNK N   1      29.064  23.199  -4.394  0.00  0.00     0.001 C 
HETATM    7  C   UNK N   1      30.530  22.787  -4.063  0.00  0.00    -0.014 C 
HETATM    8  C   UNK N   1      25.919  25.652  -6.136  0.00  0.00     0.062 C 
HETATM    9  C   UNK N   1      27.320  25.065  -4.039  0.00  0.00     0.013 C 
HETATM   10  C   UNK N   1      28.677  24.488  -3.623  0.00  0.00     0.007 C 
HETATM   11  C   UNK N   1      27.133  24.173  -7.688  0.00  0.00     0.009 C 
HETATM   12  C   UNK N   1      31.101  21.720  -5.076  0.00  0.00     0.005 C 
HETATM   13  C   UNK N   1      29.057  21.926  -6.583  0.00  0.00     0.006 C 
HETATM   14  C   UNK N   1      26.065  25.287  -7.620  0.00  0.00     0.038 C 
HETATM   15  C   UNK N   1      29.984  20.970  -5.800  0.00  0.00     0.006 C 
HETATM   16  C   UNK N   1      28.361  26.263  -5.982  0.00  0.00     0.018 C 
HETATM   17  C   UNK N   1      30.587  22.247  -2.620  0.00  0.00     0.188 C 
HETATM   18  C   UNK N   1      31.453  24.015  -4.134  0.00  0.00     0.018 C 
HETATM   19  C   UNK N   1      32.046  20.694  -4.420  0.00  0.00     0.116 C 
HETATM   20  C   UNK N   1      25.576  27.123  -5.936  0.00  0.00     0.046 C 
HETATM   21  C   UNK N   1      32.665  21.240  -3.166  0.00  0.00     0.259 C 
ENDROOT
BRANCH   8  22
HETATM   22  O   UNK N   1      24.893  24.878  -5.584  0.00  0.00    -0.389 OA
HETATM   23  H   UNK N   1      24.270  24.378  -5.033  0.00  0.00     0.210 HD
ENDBRANCH   8  22
TORSDOF 1
ENDMDL
MODEL 2
REMARK VINA RESULT:      -7.1      1.454      6.592
REMARK  1 active torsions:
REMARK  status: ('A' for Active; 'I' for Inactive)
REMARK    1  A    between atoms: C_9  and  O_1 
ROOT
HETATM    1  O   UNK N   1      25.703  24.574  -6.629  0.00  0.00    -0.321 OA
HETATM    2  O   UNK N   1      24.932  26.607  -6.125  0.00  0.00    -0.265 OA
HETATM    3  C   UNK N   1      30.623  21.967  -3.848  0.00  0.00     0.001 C 
HETATM    4  C   UNK N   1      31.338  21.585  -5.143  0.00  0.00    -0.009 C 
HETATM    5  C   UNK N   1      29.647  23.139  -4.066  0.00  0.00    -0.005 C 
HETATM    6  C   UNK N   1      28.621  22.745  -5.163  0.00  0.00     0.001 C 
HETATM    7  C   UNK N   1      27.734  23.974  -5.521  0.00  0.00    -0.014 C 
HETATM    8  C   UNK N   1      32.338  20.544  -4.628  0.00  0.00     0.062 C 
HETATM    9  C   UNK N   1      30.313  21.068  -6.153  0.00  0.00     0.013 C 
HETATM   10  C   UNK N   1      29.276  22.159  -6.442  0.00  0.00     0.007 C 
HETATM   11  C   UNK N   1      31.774  22.173  -2.868  0.00  0.00     0.009 C 
HETATM   12  C   UNK N   1      27.344  24.827  -4.253  0.00  0.00     0.005 C 
HETATM   13  C   UNK N   1      28.898  23.475  -2.755  0.00  0.00     0.006 C 
HETATM   14  C   UNK N   1      32.873  21.199  -3.348  0.00  0.00     0.038 C 
HETATM   15  C   UNK N   1      27.468  24.017  -2.963  0.00  0.00     0.006 C 
HETATM   16  C   UNK N   1      32.093  22.789  -5.751  0.00  0.00     0.018 C 
HETATM   17  C   UNK N   1      26.468  23.484  -6.253  0.00  0.00     0.188 C 
HETATM   18  C   UNK N   1      28.489  24.911  -6.480  0.00  0.00     0.018 C 
HETATM   19  C   UNK N   1      25.926  25.429  -4.328  0.00  0.00     0.116 C 
HETATM   20  C   UNK N   1      33.451  20.213  -5.614  0.00  0.00     0.046 C 
HETATM   21  C   UNK N   1      25.467  25.576  -5.750  0.00  0.00     0.259 C 
ENDROOT
BRANCH   8  22
HETATM   22  O   UNK N   1      31.683  19.357  -4.282  0.00  0.00    -0.389 OA
HETATM   23  H   UNK N   1      31.125  18.648  -3.928  0.00  0.00     0.210 HD
ENDBRANCH   8  22
TORSDOF 1
ENDMDL
MODEL 3
REMARK VINA RESULT:      -7.0      1.220      6.331
REMARK  1 active torsions:
REMARK  status: ('A' for Active; 'I' for Inactive)
REMARK    1  A    between atoms: C_9  and  O_1 
ROOT
HETATM    1  O   UNK N   1      26.582  27.273  -5.179  0.00  0.00    -0.321 OA
HETATM    2  O   UNK N   1      24.390  27.208  -5.598  0.00  0.00    -0.265 OA
HETATM    3  C   UNK N   1      30.287  22.278  -5.422  0.00  0.00     0.001 C 
HETATM    4  C   UNK N   1      30.921  22.499  -4.049  0.00  0.00    -0.009 C 
HETATM    5  C   UNK N   1      28.904  22.952  -5.520  0.00  0.00    -0.005 C 
HETATM    6  C   UNK N   1      29.061  24.468  -5.227  0.00  0.00     0.001 C 
HETATM    7  C   UNK N   1      27.656  25.138  -5.152  0.00  0.00    -0.014 C 
HETATM    8  C   UNK N   1      32.168  21.614  -4.158  0.00  0.00     0.062 C 
HETATM    9  C   UNK N   1      31.190  23.992  -3.852  0.00  0.00     0.013 C 
HETATM   10  C   UNK N   1      29.873  24.771  -3.940  0.00  0.00     0.007 C 
HETATM   11  C   UNK N   1      30.352  20.763  -5.590  0.00  0.00     0.009 C 
HETATM   12  C   UNK N   1      26.660  24.576  -6.238  0.00  0.00     0.005 C 
HETATM   13  C   UNK N   1      28.304  22.758  -6.933  0.00  0.00     0.006 C 
HETATM   14  C   UNK N   1      31.616  20.338  -4.809  0.00  0.00     0.038 C 
HETATM   15  C   UNK N   1      27.401  23.919  -7.403  0.00  0.00     0.006 C 
HETATM   16  C   UNK N   1      30.007  21.989  -2.912  0.00  0.00     0.018 C 
HETATM   17  C   UNK N   1      27.817  26.664  -5.305  0.00  0.00     0.188 C 
HETATM   18  C   UNK N   1      27.017  24.877  -3.777  0.00  0.00     0.018 C 
HETATM   19  C   UNK N   1      25.696  25.640  -6.799  0.00  0.00     0.116 C 
HETATM   20  C   UNK N   1      32.846  21.333  -2.824  0.00  0.00     0.046 C 
HETATM   21  C   UNK N   1      25.507  26.773  -5.833  0.00  0.00     0.259 C 
ENDROOT
BRANCH   8  22
HETATM   22  O   UNK N   1      33.108  22.186  -5.022  0.00  0.00    -0.389 OA
HETATM   23  H   UNK N   1      33.708  22.441  -5.740  0.00  0.00     0.210 HD
ENDBRANCH   8  22
TORSDOF 1
ENDMDL
MODEL 4
REMARK VINA RESULT:      -6.9     23.541     27.012
REMARK  1 active torsions:
REMARK  status: ('A' for Active; 'I' for Inactive)
REMARK    1  A    between atoms: C_9  and  O_1 
ROOT
HETATM    1  O   UNK N   1      35.548   8.075  20.740  0.00  0.00    -0.321 OA
HETATM    2  O   UNK N   1      34.005   8.177  22.350  0.00  0.00    -0.265 OA
HETATM    3  C   UNK N   1      35.983  12.221  16.119  0.00  0.00     0.001 C 
HETATM    4  C   UNK N   1      36.028  11.185  14.996  0.00  0.00    -0.009 C 
HETATM    5  C   UNK N   1      35.301  11.657  17.381  0.00  0.00    -0.005 C 
HETATM    6  C   UNK N   1      36.062  10.385  17.840  0.00  0.00     0.001 C 
HETATM    7  C   UNK N   1      35.292   9.702  19.009  0.00  0.00    -0.014 C 
HETATM    8  C   UNK N   1      36.583  12.028  13.843  0.00  0.00     0.062 C 
HETATM    9  C   UNK N   1      36.902  10.007  15.430  0.00  0.00     0.013 C 
HETATM   10  C   UNK N   1      36.318   9.369  16.695  0.00  0.00     0.007 C 
HETATM   11  C   UNK N   1      35.342  13.430  15.444  0.00  0.00     0.009 C 
HETATM   12  C   UNK N   1      34.684  10.748  20.023  0.00  0.00     0.005 C 
HETATM   13  C   UNK N   1      35.312  12.705  18.519  0.00  0.00     0.006 C 
HETATM   14  C   UNK N   1      35.783  13.332  13.967  0.00  0.00     0.038 C 
HETATM   15  C   UNK N   1      35.391  12.100  19.937  0.00  0.00     0.006 C 
HETATM   16  C   UNK N   1      34.614  10.670  14.642  0.00  0.00     0.018 C 
HETATM   17  C   UNK N   1      36.241   8.731  19.739  0.00  0.00     0.188 C 
HETATM   18  C   UNK N   1      34.118   8.875  18.458  0.00  0.00     0.018 C 
HETATM   19  C   UNK N   1      34.705  10.268  21.487  0.00  0.00     0.116 C 
HETATM   20  C   UNK N   1      36.425  11.383  12.472  0.00  0.00     0.046 C 
HETATM   21  C   UNK N   1      34.738   8.769  21.574  0.00  0.00     0.259 C 
ENDROOT
BRANCH   8  22
HETATM   22  O   UNK N   1      37.937  12.313  14.046  0.00  0.00    -0.389 OA
HETATM   23  H   UNK N   1      38.894  12.471  13.999  0.00  0.00     0.210 HD
ENDBRANCH   8  22
TORSDOF 1
ENDMDL
MODEL 5
REMARK VINA RESULT:      -6.8      1.519      2.697
REMARK  1 active torsions:
REMARK  status: ('A' for Active; 'I' for Inactive)
REMARK    1  A    between atoms: C_9  and  O_1 
ROOT
HETATM    1  O   UNK N   1      33.437  21.398  -5.062  0.00  0.00    -0.321 OA
HETATM    2  O   UNK N   1      34.013  19.705  -3.725  0.00  0.00    -0.265 OA
HETATM    3  C   UNK N   1      27.933  24.290  -4.783  0.00  0.00     0.001 C 
HETATM    4  C   UNK N   1      27.633  24.178  -6.277  0.00  0.00    -0.009 C 
HETATM    5  C   UNK N   1      28.923  23.202  -4.322  0.00  0.00    -0.005 C 
HETATM    6  C   UNK N   1      30.228  23.322  -5.155  0.00  0.00     0.001 C 
HETATM    7  C   UNK N   1      31.174  22.129  -4.827  0.00  0.00    -0.014 C 
HETATM    8  C   UNK N   1      26.532  25.233  -6.434  0.00  0.00     0.062 C 
HETATM    9  C   UNK N   1      28.913  24.441  -7.071  0.00  0.00     0.013 C 
HETATM   10  C   UNK N   1      29.982  23.413  -6.684  0.00  0.00     0.007 C 
HETATM   11  C   UNK N   1      26.544  24.299  -4.154  0.00  0.00     0.009 C 
HETATM   12  C   UNK N   1      31.168  21.758  -3.293  0.00  0.00     0.005 C 
HETATM   13  C   UNK N   1      29.251  23.366  -2.820  0.00  0.00     0.006 C 
HETATM   14  C   UNK N   1      25.640  24.968  -5.213  0.00  0.00     0.038 C 
HETATM   15  C   UNK N   1      30.676  22.918  -2.429  0.00  0.00     0.006 C 
HETATM   16  C   UNK N   1      27.082  22.780  -6.642  0.00  0.00     0.018 C 
HETATM   17  C   UNK N   1      32.602  22.476  -5.293  0.00  0.00     0.188 C 
HETATM   18  C   UNK N   1      30.728  20.873  -5.596  0.00  0.00     0.018 C 
HETATM   19  C   UNK N   1      32.541  21.294  -2.768  0.00  0.00     0.116 C 
HETATM   20  C   UNK N   1      25.760  25.134  -7.743  0.00  0.00     0.046 C 
HETATM   21  C   UNK N   1      33.398  20.749  -3.874  0.00  0.00     0.259 C 
ENDROOT
BRANCH   8  22
HETATM   22  O   UNK N   1      27.063  26.522  -6.328  0.00  0.00    -0.389 OA
HETATM   23  H   UNK N   1      27.248  27.472  -6.260  0.00  0.00     0.210 HD
ENDBRANCH   8  22
TORSDOF 1
ENDMDL
MODEL 6
REMARK VINA RESULT:      -6.8     20.367     24.035
REMARK  1 active torsions:
REMARK  status: ('A' for Active; 'I' for Inactive)
REMARK    1  A    between atoms: C_9  and  O_1 
ROOT
HETATM    1  O   UNK N   1      36.003   9.431  17.710  0.00  0.00    -0.321 OA
HETATM    2  O   UNK N   1      34.436   9.611  19.290  0.00  0.00    -0.265 OA
HETATM    3  C   UNK N   1      36.618  13.449  12.997  0.00  0.00     0.001 C 
HETATM    4  C   UNK N   1      36.655  12.385  11.901  0.00  0.00    -0.009 C 
HETATM    5  C   UNK N   1      35.902  12.934  14.261  0.00  0.00    -0.005 C 
HETATM    6  C   UNK N   1      36.623  11.655  14.763  0.00  0.00     0.001 C 
HETATM    7  C   UNK N   1      35.816  11.021  15.935  0.00  0.00    -0.014 C 
HETATM    8  C   UNK N   1      37.251  13.185  10.737  0.00  0.00     0.062 C 
HETATM    9  C   UNK N   1      37.492  11.197  12.378  0.00  0.00     0.013 C 
HETATM   10  C   UNK N   1      36.872  10.604  13.649  0.00  0.00     0.007 C 
HETATM   11  C   UNK N   1      36.020  14.657  12.283  0.00  0.00     0.009 C 
HETATM   12  C   UNK N   1      35.218  12.106  16.913  0.00  0.00     0.005 C 
HETATM   13  C   UNK N   1      35.921  14.009  15.373  0.00  0.00     0.006 C 
HETATM   14  C   UNK N   1      36.482  14.511  10.816  0.00  0.00     0.038 C 
HETATM   15  C   UNK N   1      35.961  13.437  16.806  0.00  0.00     0.006 C 
HETATM   16  C   UNK N   1      35.235  11.897  11.536  0.00  0.00     0.018 C 
HETATM   17  C   UNK N   1      36.728  10.045  16.705  0.00  0.00     0.188 C 
HETATM   18  C   UNK N   1      34.630  10.210  15.385  0.00  0.00     0.018 C 
HETATM   19  C   UNK N   1      35.203  11.662  18.389  0.00  0.00     0.116 C 
HETATM   20  C   UNK N   1      37.099  12.511   9.380  0.00  0.00     0.046 C 
HETATM   21  C   UNK N   1      35.196  10.166  18.513  0.00  0.00     0.259 C 
ENDROOT
BRANCH   8  22
HETATM   22  O   UNK N   1      38.608  13.441  10.956  0.00  0.00    -0.389 OA
HETATM   23  H   UNK N   1      39.520  13.531  11.277  0.00  0.00     0.210 HD
ENDBRANCH   8  22
TORSDOF 1
ENDMDL
MODEL 7
REMARK VINA RESULT:      -6.8     22.692     26.454
REMARK  1 active torsions:
REMARK  status: ('A' for Active; 'I' for Inactive)
REMARK    1  A    between atoms: C_9  and  O_1 
ROOT
HETATM    1  O   UNK N   1      36.284  11.438  12.473  0.00  0.00    -0.321 OA
HETATM    2  O   UNK N   1      37.562  13.062  11.631  0.00  0.00    -0.265 OA
HETATM    3  C   UNK N   1      34.980  10.872  18.533  0.00  0.00     0.001 C 
HETATM    4  C   UNK N   1      35.368   9.397  18.629  0.00  0.00    -0.009 C 
HETATM    5  C   UNK N   1      35.688  11.567  17.352  0.00  0.00    -0.005 C 
HETATM    6  C   UNK N   1      35.331  10.819  16.040  0.00  0.00     0.001 C 
HETATM    7  C   UNK N   1      36.169  11.396  14.860  0.00  0.00    -0.014 C 
HETATM    8  C   UNK N   1      34.682   9.000  19.941  0.00  0.00     0.062 C 
HETATM    9  C   UNK N   1      34.877   8.663  17.380  0.00  0.00     0.013 C 
HETATM   10  C   UNK N   1      35.515   9.281  16.132  0.00  0.00     0.007 C 
HETATM   11  C   UNK N   1      35.263  11.394  19.937  0.00  0.00     0.009 C 
HETATM   12  C   UNK N   1      36.319  12.965  14.937  0.00  0.00     0.005 C 
HETATM   13  C   UNK N   1      35.241  13.044  17.244  0.00  0.00     0.006 C 
HETATM   14  C   UNK N   1      35.012  10.182  20.862  0.00  0.00     0.038 C 
HETATM   15  C   UNK N   1      35.230  13.598  15.803  0.00  0.00     0.006 C 
HETATM   16  C   UNK N   1      36.899   9.221  18.758  0.00  0.00     0.018 C 
HETATM   17  C   UNK N   1      35.514  10.981  13.527  0.00  0.00     0.188 C 
HETATM   18  C   UNK N   1      37.589  10.807  14.880  0.00  0.00     0.018 C 
HETATM   19  C   UNK N   1      36.318  13.652  13.557  0.00  0.00     0.116 C 
HETATM   20  C   UNK N   1      35.160   7.672  20.513  0.00  0.00     0.046 C 
HETATM   21  C   UNK N   1      36.754  12.708  12.473  0.00  0.00     0.259 C 
ENDROOT
BRANCH   8  22
HETATM   22  O   UNK N   1      33.294   8.938  19.773  0.00  0.00    -0.389 OA
HETATM   23  H   UNK N   1      32.365   8.710  19.610  0.00  0.00     0.210 HD
ENDBRANCH   8  22
TORSDOF 1
ENDMDL
MODEL 8
REMARK VINA RESULT:      -6.8      1.481      2.281
REMARK  1 active torsions:
REMARK  status: ('A' for Active; 'I' for Inactive)
REMARK    1  A    between atoms: C_9  and  O_1 
ROOT
HETATM    1  O   UNK N   1      30.947  21.120  -3.300  0.00  0.00    -0.321 OA
HETATM    2  O   UNK N   1      32.898  21.166  -2.215  0.00  0.00    -0.265 OA
HETATM    3  C   UNK N   1      28.374  26.115  -5.975  0.00  0.00     0.001 C 
HETATM    4  C   UNK N   1      27.001  25.938  -5.327  0.00  0.00    -0.009 C 
HETATM    5  C   UNK N   1      29.482  25.434  -5.148  0.00  0.00    -0.005 C 
HETATM    6  C   UNK N   1      29.140  23.928  -4.991  0.00  0.00     0.001 C 
HETATM    7  C   UNK N   1      30.154  23.257  -4.016  0.00  0.00    -0.014 C 
HETATM    8  C   UNK N   1      26.135  26.823  -6.230  0.00  0.00     0.062 C 
HETATM    9  C   UNK N   1      26.636  24.453  -5.315  0.00  0.00     0.013 C 
HETATM   10  C   UNK N   1      27.685  23.668  -4.520  0.00  0.00     0.007 C 
HETATM   11  C   UNK N   1      28.465  27.624  -6.179  0.00  0.00     0.009 C 
HETATM   12  C   UNK N   1      31.627  23.783  -4.221  0.00  0.00     0.005 C 
HETATM   13  C   UNK N   1      30.852  25.583  -5.849  0.00  0.00     0.006 C 
HETATM   14  C   UNK N   1      27.004  28.076  -6.402  0.00  0.00     0.038 C 
HETATM   15  C   UNK N   1      31.821  24.406  -5.604  0.00  0.00     0.006 C 
HETATM   16  C   UNK N   1      26.983  26.481  -3.879  0.00  0.00     0.018 C 
HETATM   17  C   UNK N   1      30.095  21.728  -4.204  0.00  0.00     0.188 C 
HETATM   18  C   UNK N   1      29.766  23.559  -2.558  0.00  0.00     0.018 C 
HETATM   19  C   UNK N   1      32.702  22.699  -4.009  0.00  0.00     0.116 C 
HETATM   20  C   UNK N   1      24.765  27.147  -5.650  0.00  0.00     0.046 C 
HETATM   21  C   UNK N   1      32.203  21.596  -3.122  0.00  0.00     0.259 C 
ENDROOT
BRANCH   8  22
HETATM   22  O   UNK N   1      25.957  26.227  -7.483  0.00  0.00    -0.389 OA
HETATM   23  H   UNK N   1      25.867  25.649  -8.257  0.00  0.00     0.210 HD
ENDBRANCH   8  22
TORSDOF 1
ENDMDL
MODEL 9
REMARK VINA RESULT:      -6.5      1.605      2.225
REMARK  1 active torsions:
REMARK  status: ('A' for Active; 'I' for Inactive)
REMARK    1  A    between atoms: C_9  and  O_1 
ROOT
HETATM    1  O   UNK N   1      33.232  20.271  -4.722  0.00  0.00    -0.321 OA
HETATM    2  O   UNK N   1      34.556  19.717  -6.432  0.00  0.00    -0.265 OA
HETATM    3  C   UNK N   1      27.835  23.300  -5.383  0.00  0.00     0.001 C 
HETATM    4  C   UNK N   1      28.139  24.370  -4.336  0.00  0.00    -0.009 C 
HETATM    5  C   UNK N   1      29.128  22.684  -5.953  0.00  0.00    -0.005 C 
HETATM    6  C   UNK N   1      29.960  22.089  -4.786  0.00  0.00     0.001 C 
HETATM    7  C   UNK N   1      31.347  21.615  -5.315  0.00  0.00    -0.014 C 
HETATM    8  C   UNK N   1      26.734  24.920  -4.065  0.00  0.00     0.062 C 
HETATM    9  C   UNK N   1      28.835  23.723  -3.138  0.00  0.00     0.013 C 
HETATM   10  C   UNK N   1      30.141  23.064  -3.593  0.00  0.00     0.007 C 
HETATM   11  C   UNK N   1      26.904  24.021  -6.353  0.00  0.00     0.009 C 
HETATM   12  C   UNK N   1      31.250  20.929  -6.732  0.00  0.00     0.005 C 
HETATM   13  C   UNK N   1      28.796  21.568  -6.972  0.00  0.00     0.006 C 
HETATM   14  C   UNK N   1      26.145  25.042  -5.476  0.00  0.00     0.038 C 
HETATM   15  C   UNK N   1      29.835  20.429  -7.026  0.00  0.00     0.006 C 
HETATM   16  C   UNK N   1      29.041  25.486  -4.911  0.00  0.00     0.018 C 
HETATM   17  C   UNK N   1      31.974  20.649  -4.289  0.00  0.00     0.188 C 
HETATM   18  C   UNK N   1      32.297  22.816  -5.460  0.00  0.00     0.018 C 
HETATM   19  C   UNK N   1      32.239  19.762  -6.920  0.00  0.00     0.116 C 
HETATM   20  C   UNK N   1      26.721  26.248  -3.318  0.00  0.00     0.046 C 
HETATM   21  C   UNK N   1      33.425  19.895  -6.009  0.00  0.00     0.259 C 
ENDROOT
BRANCH   8  22
HETATM   22  O   UNK N   1      25.972  23.997  -3.341  0.00  0.00    -0.389 OA
HETATM   23  H   UNK N   1      25.409  23.279  -3.011  0.00  0.00     0.210 HD
ENDBRANCH   8  22
TORSDOF 1
ENDMDL
