MODEL 1
REMARK VINA RESULT:      -6.6      0.000      0.000
REMARK  11 active torsions:
REMARK  status: ('A' for Active; 'I' for Inactive)
REMARK    1  A    between atoms: O_1  and  C_16 
REMARK    2  A    between atoms: O_1  and  C_23 
REMARK    3  A    between atoms: O_2  and  C_20 
REMARK    4  A    between atoms: N_8  and  C_22 
REMARK    5  A    between atoms: N_8  and  C_26 
REMARK    6  A    between atoms: N_9  and  C_24 
REMARK    7  A    between atoms: C_10  and  C_13 
REMARK    8  A    between atoms: C_11  and  C_16 
REMARK    9  A    between atoms: C_12  and  C_20 
REMARK   10  A    between atoms: C_22  and  C_23 
REMARK   11  A    between atoms: C_26  and  C_28 
ROOT
HETATM    1  N   UNK N   1      28.088  25.443  -9.283  0.00  0.00    -0.362 N 
HETATM    2  C   UNK N   1      28.378  24.644  -6.555  0.00  0.00     0.101 A 
HETATM    3  C   UNK N   1      29.466  25.428  -7.316  0.00  0.00     0.052 A 
HETATM    4  C   UNK N   1      27.136  24.275  -7.402  0.00  0.00     0.052 A 
HETATM    5  C   UNK N   1      29.276  25.785  -8.612  0.00  0.00     0.018 A 
HETATM    6  C   UNK N   1      27.045  24.706  -8.691  0.00  0.00     0.018 A 
HETATM    7  C   UNK N   1      30.242  26.628  -9.371  0.00  0.00     0.069 C 
HETATM    8  C   UNK N   1      25.803  24.544  -9.510  0.00  0.00     0.069 C 
HETATM    9  H   UNK N   1      27.980  25.736 -10.216  0.00  0.00     0.165 HD
ENDROOT
BRANCH   3  10
HETATM   10  C   UNK N   1      30.710  25.792  -6.576  0.00  0.00     0.292 C 
HETATM   11  O   UNK N   1      31.697  25.084  -6.705  0.00  0.00    -0.259 OA
BRANCH  10  12
HETATM   12  O   UNK N   1      30.871  27.050  -6.091  0.00  0.00    -0.316 OA
BRANCH  12  13
HETATM   13  C   UNK N   1      31.384  27.324  -4.850  0.00  0.00     0.209 C 
BRANCH  13  14
HETATM   14  C   UNK N   1      30.409  26.890  -3.787  0.00  0.00     0.299 C 
BRANCH  14  15
HETATM   15  N   UNK N   1      29.918  28.069  -3.088  0.00  0.00     0.090 N 
HETATM   16  C   UNK N   1      31.045  28.741  -2.449  0.00  0.00     0.310 C 
BRANCH  15  17
HETATM   17  C   UNK N   1      29.230  28.955  -4.030  0.00  0.00     0.310 C 
BRANCH  17  18
HETATM   18  C   UNK N   1      27.859  28.472  -4.389  0.00  0.00    -0.030 A 
HETATM   19  C   UNK N   1      26.902  28.286  -3.388  0.00  0.00     0.009 A 
HETATM   20  C   UNK N   1      25.637  27.794  -3.718  0.00  0.00     0.001 A 
HETATM   21  C   UNK N   1      25.330  27.489  -5.048  0.00  0.00     0.000 A 
HETATM   22  C   UNK N   1      26.285  27.681  -6.050  0.00  0.00     0.001 A 
HETATM   23  C   UNK N   1      27.549  28.171  -5.721  0.00  0.00     0.009 A 
ENDBRANCH  17  18
ENDBRANCH  15  17
ENDBRANCH  14  15
ENDBRANCH  13  14
ENDBRANCH  12  13
ENDBRANCH  10  12
ENDBRANCH   3  10
BRANCH   2  24
HETATM   24  C   UNK N   1      28.932  23.502  -5.669  0.00  0.00    -0.042 A 
HETATM   25  C   UNK N   1      28.927  23.662  -4.280  0.00  0.00     0.044 A 
HETATM   26  C   UNK N   1      29.546  22.743  -3.423  0.00  0.00     0.103 A 
HETATM   27  C   UNK N   1      30.220  21.645  -3.971  0.00  0.00     0.036 A 
HETATM   28  C   UNK N   1      30.235  21.456  -5.356  0.00  0.00     0.003 A 
HETATM   29  C   UNK N   1      29.592  22.373  -6.199  0.00  0.00     0.008 A 
BRANCH  26  30
HETATM   30  N   UNK N   1      29.496  22.935  -2.015  0.00  0.00    -0.116 N 
HETATM   31  O   UNK N   1      28.339  23.022  -1.395  0.00  0.00    -0.532 OA
HETATM   32  O   UNK N   1      30.508  23.033  -1.385  0.00  0.00    -0.532 OA
ENDBRANCH  26  30
ENDBRANCH   2  24
BRANCH   4  33
HETATM   33  C   UNK N   1      25.983  23.550  -6.758  0.00  0.00     0.291 C 
HETATM   34  O   UNK N   1      25.166  24.193  -6.120  0.00  0.00    -0.260 OA
BRANCH  33  35
HETATM   35  O   UNK N   1      25.810  22.203  -6.843  0.00  0.00    -0.323 OA
HETATM   36  C   UNK N   1      24.706  21.603  -7.411  0.00  0.00     0.213 C 
ENDBRANCH  33  35
ENDBRANCH   4  33
TORSDOF 11
ENDMDL
MODEL 2
REMARK VINA RESULT:      -6.5      2.160      3.735
REMARK  11 active torsions:
REMARK  status: ('A' for Active; 'I' for Inactive)
REMARK    1  A    between atoms: O_1  and  C_16 
REMARK    2  A    between atoms: O_1  and  C_23 
REMARK    3  A    between atoms: O_2  and  C_20 
REMARK    4  A    between atoms: N_8  and  C_22 
REMARK    5  A    between atoms: N_8  and  C_26 
REMARK    6  A    between atoms: N_9  and  C_24 
REMARK    7  A    between atoms: C_10  and  C_13 
REMARK    8  A    between atoms: C_11  and  C_16 
REMARK    9  A    between atoms: C_12  and  C_20 
REMARK   10  A    between atoms: C_22  and  C_23 
REMARK   11  A    between atoms: C_26  and  C_28 
ROOT
HETATM    1  N   UNK N   1      25.678  25.399  -7.542  0.00  0.00    -0.362 N 
HETATM    2  C   UNK N   1      27.562  24.041  -5.877  0.00  0.00     0.101 A 
HETATM    3  C   UNK N   1      26.610  25.131  -5.345  0.00  0.00     0.052 A 
HETATM    4  C   UNK N   1      27.456  23.778  -7.399  0.00  0.00     0.052 A 
HETATM    5  C   UNK N   1      25.731  25.743  -6.180  0.00  0.00     0.018 A 
HETATM    6  C   UNK N   1      26.521  24.440  -8.136  0.00  0.00     0.018 A 
HETATM    7  C   UNK N   1      24.718  26.729  -5.710  0.00  0.00     0.069 C 
HETATM    8  C   UNK N   1      26.240  24.108  -9.568  0.00  0.00     0.069 C 
HETATM    9  H   UNK N   1      25.015  25.852  -8.111  0.00  0.00     0.165 HD
ENDROOT
BRANCH   3  10
HETATM   10  C   UNK N   1      26.674  25.466  -3.892  0.00  0.00     0.292 C 
HETATM   11  O   UNK N   1      26.277  24.641  -3.083  0.00  0.00    -0.259 OA
BRANCH  10  12
HETATM   12  O   UNK N   1      27.484  26.465  -3.457  0.00  0.00    -0.316 OA
BRANCH  12  13
HETATM   13  C   UNK N   1      27.061  27.755  -3.267  0.00  0.00     0.209 C 
BRANCH  13  14
HETATM   14  C   UNK N   1      28.066  28.713  -3.851  0.00  0.00     0.299 C 
BRANCH  14  15
HETATM   15  N   UNK N   1      27.403  29.539  -4.850  0.00  0.00     0.090 N 
HETATM   16  C   UNK N   1      26.533  30.493  -4.171  0.00  0.00     0.310 C 
BRANCH  15  17
HETATM   17  C   UNK N   1      28.404  30.220  -5.675  0.00  0.00     0.310 C 
BRANCH  17  18
HETATM   18  C   UNK N   1      28.699  29.495  -6.952  0.00  0.00    -0.030 A 
HETATM   19  C   UNK N   1      29.622  30.026  -7.856  0.00  0.00     0.009 A 
HETATM   20  C   UNK N   1      29.865  29.372  -9.067  0.00  0.00     0.001 A 
HETATM   21  C   UNK N   1      29.186  28.188  -9.371  0.00  0.00     0.000 A 
HETATM   22  C   UNK N   1      28.267  27.654  -8.463  0.00  0.00     0.001 A 
HETATM   23  C   UNK N   1      28.024  28.307  -7.255  0.00  0.00     0.009 A 
ENDBRANCH  17  18
ENDBRANCH  15  17
ENDBRANCH  14  15
ENDBRANCH  13  14
ENDBRANCH  12  13
ENDBRANCH  10  12
ENDBRANCH   3  10
BRANCH   2  24
HETATM   24  C   UNK N   1      29.004  24.147  -5.328  0.00  0.00    -0.042 A 
HETATM   25  C   UNK N   1      29.336  23.453  -4.160  0.00  0.00     0.044 A 
HETATM   26  C   UNK N   1      30.571  23.618  -3.521  0.00  0.00     0.103 A 
HETATM   27  C   UNK N   1      31.495  24.531  -4.045  0.00  0.00     0.036 A 
HETATM   28  C   UNK N   1      31.193  25.234  -5.214  0.00  0.00     0.003 A 
HETATM   29  C   UNK N   1      29.961  25.041  -5.854  0.00  0.00     0.008 A 
BRANCH  26  30
HETATM   30  N   UNK N   1      30.873  22.872  -2.348  0.00  0.00    -0.116 N 
HETATM   31  O   UNK N   1      31.819  21.959  -2.365  0.00  0.00    -0.532 OA
HETATM   32  O   UNK N   1      30.256  23.060  -1.341  0.00  0.00    -0.532 OA
ENDBRANCH  26  30
ENDBRANCH   2  24
BRANCH   4  33
HETATM   33  C   UNK N   1      28.302  22.703  -8.031  0.00  0.00     0.291 C 
HETATM   34  O   UNK N   1      29.289  23.029  -8.668  0.00  0.00    -0.260 OA
BRANCH  33  35
HETATM   35  O   UNK N   1      28.012  21.377  -7.937  0.00  0.00    -0.323 OA
HETATM   36  C   UNK N   1      28.894  20.428  -7.468  0.00  0.00     0.213 C 
ENDBRANCH  33  35
ENDBRANCH   4  33
TORSDOF 11
ENDMDL
MODEL 3
REMARK VINA RESULT:      -6.5      1.896      2.443
REMARK  11 active torsions:
REMARK  status: ('A' for Active; 'I' for Inactive)
REMARK    1  A    between atoms: O_1  and  C_16 
REMARK    2  A    between atoms: O_1  and  C_23 
REMARK    3  A    between atoms: O_2  and  C_20 
REMARK    4  A    between atoms: N_8  and  C_22 
REMARK    5  A    between atoms: N_8  and  C_26 
REMARK    6  A    between atoms: N_9  and  C_24 
REMARK    7  A    between atoms: C_10  and  C_13 
REMARK    8  A    between atoms: C_11  and  C_16 
REMARK    9  A    between atoms: C_12  and  C_20 
REMARK   10  A    between atoms: C_22  and  C_23 
REMARK   11  A    between atoms: C_26  and  C_28 
ROOT
HETATM    1  N   UNK N   1      27.171  27.789  -6.793  0.00  0.00    -0.362 N 
HETATM    2  C   UNK N   1      28.544  25.994  -5.044  0.00  0.00     0.101 A 
HETATM    3  C   UNK N   1      29.271  27.069  -5.877  0.00  0.00     0.052 A 
HETATM    4  C   UNK N   1      27.014  25.927  -5.272  0.00  0.00     0.052 A 
HETATM    5  C   UNK N   1      28.570  27.898  -6.691  0.00  0.00     0.018 A 
HETATM    6  C   UNK N   1      26.414  26.826  -6.100  0.00  0.00     0.018 A 
HETATM    7  C   UNK N   1      29.199  29.020  -7.443  0.00  0.00     0.069 C 
HETATM    8  C   UNK N   1      24.927  26.936  -6.228  0.00  0.00     0.069 C 
HETATM    9  H   UNK N   1      26.697  28.421  -7.380  0.00  0.00     0.165 HD
ENDROOT
BRANCH   3  10
HETATM   10  C   UNK N   1      30.753  27.176  -5.738  0.00  0.00     0.292 C 
HETATM   11  O   UNK N   1      31.456  26.817  -6.670  0.00  0.00    -0.259 OA
BRANCH  10  12
HETATM   12  O   UNK N   1      31.293  27.984  -4.790  0.00  0.00    -0.316 OA
BRANCH  12  13
HETATM   13  C   UNK N   1      32.054  29.087  -5.077  0.00  0.00     0.209 C 
BRANCH  13  14
HETATM   14  C   UNK N   1      32.331  29.860  -3.814  0.00  0.00     0.299 C 
BRANCH  14  15
HETATM   15  N   UNK N   1      31.285  29.568  -2.845  0.00  0.00     0.090 N 
HETATM   16  C   UNK N   1      31.904  29.301  -1.551  0.00  0.00     0.310 C 
BRANCH  15  17
HETATM   17  C   UNK N   1      30.349  30.692  -2.769  0.00  0.00     0.310 C 
BRANCH  17  18
HETATM   18  C   UNK N   1      28.949  30.312  -3.143  0.00  0.00    -0.030 A 
HETATM   19  C   UNK N   1      28.358  29.184  -2.567  0.00  0.00     0.009 A 
HETATM   20  C   UNK N   1      27.068  28.805  -2.947  0.00  0.00     0.001 A 
HETATM   21  C   UNK N   1      26.372  29.552  -3.902  0.00  0.00     0.000 A 
HETATM   22  C   UNK N   1      26.962  30.683  -4.474  0.00  0.00     0.001 A 
HETATM   23  C   UNK N   1      28.250  31.062  -4.094  0.00  0.00     0.009 A 
ENDBRANCH  17  18
ENDBRANCH  15  17
ENDBRANCH  14  15
ENDBRANCH  13  14
ENDBRANCH  12  13
ENDBRANCH  10  12
ENDBRANCH   3  10
BRANCH   2  24
HETATM   24  C   UNK N   1      29.265  24.626  -5.020  0.00  0.00    -0.042 A 
HETATM   25  C   UNK N   1      29.791  24.160  -3.811  0.00  0.00     0.044 A 
HETATM   26  C   UNK N   1      30.585  23.009  -3.739  0.00  0.00     0.103 A 
HETATM   27  C   UNK N   1      30.892  22.316  -4.916  0.00  0.00     0.036 A 
HETATM   28  C   UNK N   1      30.376  22.755  -6.138  0.00  0.00     0.003 A 
HETATM   29  C   UNK N   1      29.565  23.897  -6.191  0.00  0.00     0.008 A 
BRANCH  26  30
HETATM   30  N   UNK N   1      31.078  22.559  -2.482  0.00  0.00    -0.116 N 
HETATM   31  O   UNK N   1      30.493  22.933  -1.365  0.00  0.00    -0.532 OA
HETATM   32  O   UNK N   1      32.039  21.849  -2.433  0.00  0.00    -0.532 OA
ENDBRANCH  26  30
ENDBRANCH   2  24
BRANCH   4  33
HETATM   33  C   UNK N   1      26.185  24.949  -4.481  0.00  0.00     0.291 C 
HETATM   34  O   UNK N   1      26.166  25.042  -3.265  0.00  0.00    -0.260 OA
BRANCH  33  35
HETATM   35  O   UNK N   1      25.460  23.951  -5.056  0.00  0.00    -0.323 OA
HETATM   36  C   UNK N   1      25.900  23.196  -6.122  0.00  0.00     0.213 C 
ENDBRANCH  33  35
ENDBRANCH   4  33
TORSDOF 11
ENDMDL
MODEL 4
REMARK VINA RESULT:      -6.4     13.773     16.963
REMARK  11 active torsions:
REMARK  status: ('A' for Active; 'I' for Inactive)
REMARK    1  A    between atoms: O_1  and  C_16 
REMARK    2  A    between atoms: O_1  and  C_23 
REMARK    3  A    between atoms: O_2  and  C_20 
REMARK    4  A    between atoms: N_8  and  C_22 
REMARK    5  A    between atoms: N_8  and  C_26 
REMARK    6  A    between atoms: N_9  and  C_24 
REMARK    7  A    between atoms: C_10  and  C_13 
REMARK    8  A    between atoms: C_11  and  C_16 
REMARK    9  A    between atoms: C_12  and  C_20 
REMARK   10  A    between atoms: C_22  and  C_23 
REMARK   11  A    between atoms: C_26  and  C_28 
ROOT
HETATM    1  N   UNK N   1      25.171  18.864   4.112  0.00  0.00    -0.362 N 
HETATM    2  C   UNK N   1      22.666  17.569   4.569  0.00  0.00     0.101 A 
HETATM    3  C   UNK N   1      24.012  16.969   5.024  0.00  0.00     0.052 A 
HETATM    4  C   UNK N   1      22.783  18.904   3.795  0.00  0.00     0.052 A 
HETATM    5  C   UNK N   1      25.174  17.628   4.783  0.00  0.00     0.018 A 
HETATM    6  C   UNK N   1      24.003  19.486   3.631  0.00  0.00     0.018 A 
HETATM    7  C   UNK N   1      26.494  17.154   5.284  0.00  0.00     0.069 C 
HETATM    8  C   UNK N   1      24.173  20.857   3.055  0.00  0.00     0.069 C 
HETATM    9  H   UNK N   1      26.033  19.320   3.973  0.00  0.00     0.165 HD
ENDROOT
BRANCH   3  10
HETATM   10  C   UNK N   1      23.986  15.665   5.748  0.00  0.00     0.292 C 
HETATM   11  O   UNK N   1      23.335  15.581   6.780  0.00  0.00    -0.259 OA
BRANCH  10  12
HETATM   12  O   UNK N   1      24.340  14.521   5.108  0.00  0.00    -0.316 OA
BRANCH  12  13
HETATM   13  C   UNK N   1      24.995  13.482   5.718  0.00  0.00     0.209 C 
BRANCH  13  14
HETATM   14  C   UNK N   1      24.277  12.189   5.433  0.00  0.00     0.299 C 
BRANCH  14  15
HETATM   15  N   UNK N   1      23.437  11.855   6.574  0.00  0.00     0.090 N 
HETATM   16  C   UNK N   1      23.170  10.421   6.558  0.00  0.00     0.310 C 
BRANCH  15  17
HETATM   17  C   UNK N   1      24.099  12.263   7.815  0.00  0.00     0.310 C 
BRANCH  17  18
HETATM   18  C   UNK N   1      23.155  12.368   8.973  0.00  0.00    -0.030 A 
HETATM   19  C   UNK N   1      23.482  11.771  10.193  0.00  0.00     0.009 A 
HETATM   20  C   UNK N   1      22.582  11.832  11.260  0.00  0.00     0.001 A 
HETATM   21  C   UNK N   1      21.358  12.489  11.106  0.00  0.00     0.000 A 
HETATM   22  C   UNK N   1      21.033  13.091   9.887  0.00  0.00     0.001 A 
HETATM   23  C   UNK N   1      21.931  13.030   8.821  0.00  0.00     0.009 A 
ENDBRANCH  17  18
ENDBRANCH  15  17
ENDBRANCH  14  15
ENDBRANCH  13  14
ENDBRANCH  12  13
ENDBRANCH  10  12
ENDBRANCH   3  10
BRANCH   2  24
HETATM   24  C   UNK N   1      21.696  16.534   3.951  0.00  0.00    -0.042 A 
HETATM   25  C   UNK N   1      20.520  16.215   4.637  0.00  0.00     0.044 A 
HETATM   26  C   UNK N   1      19.671  15.183   4.219  0.00  0.00     0.103 A 
HETATM   27  C   UNK N   1      20.021  14.422   3.098  0.00  0.00     0.036 A 
HETATM   28  C   UNK N   1      21.187  14.722   2.388  0.00  0.00     0.003 A 
HETATM   29  C   UNK N   1      22.016  15.772   2.807  0.00  0.00     0.008 A 
BRANCH  26  30
HETATM   30  N   UNK N   1      18.472  14.911   4.936  0.00  0.00    -0.116 N 
HETATM   31  O   UNK N   1      17.879  13.744   4.822  0.00  0.00    -0.532 OA
HETATM   32  O   UNK N   1      17.989  15.750   5.638  0.00  0.00    -0.532 OA
ENDBRANCH  26  30
ENDBRANCH   2  24
BRANCH   4  33
HETATM   33  C   UNK N   1      21.534  19.614   3.339  0.00  0.00     0.291 C 
HETATM   34  O   UNK N   1      20.816  20.136   4.174  0.00  0.00    -0.260 OA
BRANCH  33  35
HETATM   35  O   UNK N   1      21.157  19.693   2.034  0.00  0.00    -0.323 OA
HETATM   36  C   UNK N   1      20.419  18.726   1.386  0.00  0.00     0.213 C 
ENDBRANCH  33  35
ENDBRANCH   4  33
TORSDOF 11
ENDMDL
MODEL 5
REMARK VINA RESULT:      -6.4      2.044      5.651
REMARK  11 active torsions:
REMARK  status: ('A' for Active; 'I' for Inactive)
REMARK    1  A    between atoms: O_1  and  C_16 
REMARK    2  A    between atoms: O_1  and  C_23 
REMARK    3  A    between atoms: O_2  and  C_20 
REMARK    4  A    between atoms: N_8  and  C_22 
REMARK    5  A    between atoms: N_8  and  C_26 
REMARK    6  A    between atoms: N_9  and  C_24 
REMARK    7  A    between atoms: C_10  and  C_13 
REMARK    8  A    between atoms: C_11  and  C_16 
REMARK    9  A    between atoms: C_12  and  C_20 
REMARK   10  A    between atoms: C_22  and  C_23 
REMARK   11  A    between atoms: C_26  and  C_28 
ROOT
HETATM    1  N   UNK N   1      28.448  27.912  -3.561  0.00  0.00    -0.362 N 
HETATM    2  C   UNK N   1      29.140  25.382  -4.694  0.00  0.00     0.101 A 
HETATM    3  C   UNK N   1      27.759  25.668  -4.068  0.00  0.00     0.052 A 
HETATM    4  C   UNK N   1      30.143  26.558  -4.610  0.00  0.00     0.052 A 
HETATM    5  C   UNK N   1      27.482  26.890  -3.546  0.00  0.00     0.018 A 
HETATM    6  C   UNK N   1      29.746  27.748  -4.081  0.00  0.00     0.018 A 
HETATM    7  C   UNK N   1      26.138  27.261  -3.020  0.00  0.00     0.069 C 
HETATM    8  C   UNK N   1      30.598  28.978  -4.131  0.00  0.00     0.069 C 
HETATM    9  H   UNK N   1      28.202  28.790  -3.189  0.00  0.00     0.165 HD
ENDROOT
BRANCH   3  10
HETATM   10  C   UNK N   1      26.747  24.572  -4.080  0.00  0.00     0.292 C 
HETATM   11  O   UNK N   1      26.439  24.048  -3.020  0.00  0.00    -0.259 OA
BRANCH  10  12
HETATM   12  O   UNK N   1      25.920  24.418  -5.146  0.00  0.00    -0.316 OA
BRANCH  12  13
HETATM   13  C   UNK N   1      25.983  23.353  -6.007  0.00  0.00     0.209 C 
BRANCH  13  14
HETATM   14  C   UNK N   1      25.863  23.838  -7.428  0.00  0.00     0.299 C 
BRANCH  14  15
HETATM   15  N   UNK N   1      27.071  24.572  -7.779  0.00  0.00     0.090 N 
HETATM   16  C   UNK N   1      27.989  23.667  -8.461  0.00  0.00     0.310 C 
BRANCH  15  17
HETATM   17  C   UNK N   1      26.728  25.721  -8.619  0.00  0.00     0.310 C 
BRANCH  17  18
HETATM   18  C   UNK N   1      27.479  26.962  -8.244  0.00  0.00    -0.030 A 
HETATM   19  C   UNK N   1      28.585  27.360  -8.998  0.00  0.00     0.009 A 
HETATM   20  C   UNK N   1      29.311  28.493  -8.623  0.00  0.00     0.001 A 
HETATM   21  C   UNK N   1      28.930  29.227  -7.495  0.00  0.00     0.000 A 
HETATM   22  C   UNK N   1      27.819  28.832  -6.744  0.00  0.00     0.001 A 
HETATM   23  C   UNK N   1      27.094  27.700  -7.118  0.00  0.00     0.009 A 
ENDBRANCH  17  18
ENDBRANCH  15  17
ENDBRANCH  14  15
ENDBRANCH  13  14
ENDBRANCH  12  13
ENDBRANCH  10  12
ENDBRANCH   3  10
BRANCH   2  24
HETATM   24  C   UNK N   1      29.720  23.996  -4.323  0.00  0.00    -0.042 A 
HETATM   25  C   UNK N   1      29.781  23.004  -5.307  0.00  0.00     0.044 A 
HETATM   26  C   UNK N   1      30.151  21.686  -5.013  0.00  0.00     0.103 A 
HETATM   27  C   UNK N   1      30.438  21.336  -3.688  0.00  0.00     0.036 A 
HETATM   28  C   UNK N   1      30.392  22.308  -2.685  0.00  0.00     0.003 A 
HETATM   29  C   UNK N   1      30.041  23.629  -2.999  0.00  0.00     0.008 A 
BRANCH  26  30
HETATM   30  N   UNK N   1      30.222  20.716  -6.051  0.00  0.00    -0.116 N 
HETATM   31  O   UNK N   1      31.280  19.944  -6.170  0.00  0.00    -0.532 OA
HETATM   32  O   UNK N   1      29.324  20.607  -6.833  0.00  0.00    -0.532 OA
ENDBRANCH  26  30
ENDBRANCH   2  24
BRANCH   4  33
HETATM   33  C   UNK N   1      31.509  26.418  -5.229  0.00  0.00     0.291 C 
HETATM   34  O   UNK N   1      32.444  26.081  -4.521  0.00  0.00    -0.260 OA
BRANCH  33  35
HETATM   35  O   UNK N   1      31.760  26.661  -6.544  0.00  0.00    -0.323 OA
HETATM   36  C   UNK N   1      32.676  27.587  -6.994  0.00  0.00     0.213 C 
ENDBRANCH  33  35
ENDBRANCH   4  33
TORSDOF 11
ENDMDL
MODEL 6
REMARK VINA RESULT:      -6.3      2.447      5.954
REMARK  11 active torsions:
REMARK  status: ('A' for Active; 'I' for Inactive)
REMARK    1  A    between atoms: O_1  and  C_16 
REMARK    2  A    between atoms: O_1  and  C_23 
REMARK    3  A    between atoms: O_2  and  C_20 
REMARK    4  A    between atoms: N_8  and  C_22 
REMARK    5  A    between atoms: N_8  and  C_26 
REMARK    6  A    between atoms: N_9  and  C_24 
REMARK    7  A    between atoms: C_10  and  C_13 
REMARK    8  A    between atoms: C_11  and  C_16 
REMARK    9  A    between atoms: C_12  and  C_20 
REMARK   10  A    between atoms: C_22  and  C_23 
REMARK   11  A    between atoms: C_26  and  C_28 
ROOT
HETATM    1  N   UNK N   1      25.212  24.700  -6.790  0.00  0.00    -0.362 N 
HETATM    2  C   UNK N   1      28.032  25.014  -6.453  0.00  0.00     0.101 A 
HETATM    3  C   UNK N   1      27.402  23.760  -7.091  0.00  0.00     0.052 A 
HETATM    4  C   UNK N   1      27.013  26.068  -5.958  0.00  0.00     0.052 A 
HETATM    5  C   UNK N   1      26.055  23.663  -7.229  0.00  0.00     0.018 A 
HETATM    6  C   UNK N   1      25.682  25.873  -6.169  0.00  0.00     0.018 A 
HETATM    7  C   UNK N   1      25.391  22.526  -7.927  0.00  0.00     0.069 C 
HETATM    8  C   UNK N   1      24.656  26.925  -5.882  0.00  0.00     0.069 C 
HETATM    9  H   UNK N   1      24.242  24.600  -6.924  0.00  0.00     0.165 HD
ENDROOT
BRANCH   3  10
HETATM   10  C   UNK N   1      28.318  22.682  -7.565  0.00  0.00     0.292 C 
HETATM   11  O   UNK N   1      28.353  21.629  -6.945  0.00  0.00    -0.259 OA
BRANCH  10  12
HETATM   12  O   UNK N   1      28.804  22.707  -8.832  0.00  0.00    -0.316 OA
BRANCH  12  13
HETATM   13  C   UNK N   1      29.371  21.622  -9.449  0.00  0.00     0.209 C 
BRANCH  13  14
HETATM   14  C   UNK N   1      30.857  21.829  -9.581  0.00  0.00     0.299 C 
BRANCH  14  15
HETATM   15  N   UNK N   1      31.522  21.219  -8.439  0.00  0.00     0.090 N 
HETATM   16  C   UNK N   1      32.552  20.307  -8.925  0.00  0.00     0.310 C 
BRANCH  15  17
HETATM   17  C   UNK N   1      32.090  22.260  -7.580  0.00  0.00     0.310 C 
BRANCH  17  18
HETATM   18  C   UNK N   1      32.240  21.823  -6.155  0.00  0.00    -0.030 A 
HETATM   19  C   UNK N   1      33.445  22.044  -5.483  0.00  0.00     0.009 A 
HETATM   20  C   UNK N   1      33.600  21.598  -4.168  0.00  0.00     0.001 A 
HETATM   21  C   UNK N   1      32.550  20.933  -3.527  0.00  0.00     0.000 A 
HETATM   22  C   UNK N   1      31.343  20.718  -4.197  0.00  0.00     0.001 A 
HETATM   23  C   UNK N   1      31.188  21.163  -5.511  0.00  0.00     0.009 A 
ENDBRANCH  17  18
ENDBRANCH  15  17
ENDBRANCH  14  15
ENDBRANCH  13  14
ENDBRANCH  12  13
ENDBRANCH  10  12
ENDBRANCH   3  10
BRANCH   2  24
HETATM   24  C   UNK N   1      29.186  24.704  -5.470  0.00  0.00    -0.042 A 
HETATM   25  C   UNK N   1      28.891  24.070  -4.259  0.00  0.00     0.044 A 
HETATM   26  C   UNK N   1      29.854  23.893  -3.258  0.00  0.00     0.103 A 
HETATM   27  C   UNK N   1      31.146  24.393  -3.456  0.00  0.00     0.036 A 
HETATM   28  C   UNK N   1      31.472  25.026  -4.659  0.00  0.00     0.003 A 
HETATM   29  C   UNK N   1      30.502  25.176  -5.661  0.00  0.00     0.008 A 
BRANCH  26  30
HETATM   30  N   UNK N   1      29.513  23.220  -2.051  0.00  0.00    -0.116 N 
HETATM   31  O   UNK N   1      28.254  22.991  -1.749  0.00  0.00    -0.532 OA
HETATM   32  O   UNK N   1      30.372  22.871  -1.296  0.00  0.00    -0.532 OA
ENDBRANCH  26  30
ENDBRANCH   2  24
BRANCH   4  33
HETATM   33  C   UNK N   1      27.507  27.360  -5.358  0.00  0.00     0.291 C 
HETATM   34  O   UNK N   1      27.806  28.278  -6.103  0.00  0.00    -0.260 OA
BRANCH  33  35
HETATM   35  O   UNK N   1      27.648  27.552  -4.018  0.00  0.00    -0.323 OA
HETATM   36  C   UNK N   1      26.838  28.379  -3.270  0.00  0.00     0.213 C 
ENDBRANCH  33  35
ENDBRANCH   4  33
TORSDOF 11
ENDMDL
MODEL 7
REMARK VINA RESULT:      -6.3      2.427      4.000
REMARK  11 active torsions:
REMARK  status: ('A' for Active; 'I' for Inactive)
REMARK    1  A    between atoms: O_1  and  C_16 
REMARK    2  A    between atoms: O_1  and  C_23 
REMARK    3  A    between atoms: O_2  and  C_20 
REMARK    4  A    between atoms: N_8  and  C_22 
REMARK    5  A    between atoms: N_8  and  C_26 
REMARK    6  A    between atoms: N_9  and  C_24 
REMARK    7  A    between atoms: C_10  and  C_13 
REMARK    8  A    between atoms: C_11  and  C_16 
REMARK    9  A    between atoms: C_12  and  C_20 
REMARK   10  A    between atoms: C_22  and  C_23 
REMARK   11  A    between atoms: C_26  and  C_28 
ROOT
HETATM    1  N   UNK N   1      27.036  22.487  -9.070  0.00  0.00    -0.362 N 
HETATM    2  C   UNK N   1      28.527  22.190  -6.651  0.00  0.00     0.101 A 
HETATM    3  C   UNK N   1      27.398  23.228  -6.815  0.00  0.00     0.052 A 
HETATM    4  C   UNK N   1      28.827  21.357  -7.920  0.00  0.00     0.052 A 
HETATM    5  C   UNK N   1      26.720  23.326  -7.986  0.00  0.00     0.018 A 
HETATM    6  C   UNK N   1      28.065  21.527  -9.036  0.00  0.00     0.018 A 
HETATM    7  C   UNK N   1      25.555  24.235  -8.176  0.00  0.00     0.069 C 
HETATM    8  C   UNK N   1      28.178  20.636 -10.234  0.00  0.00     0.069 C 
HETATM    9  H   UNK N   1      26.508  22.575  -9.897  0.00  0.00     0.165 HD
ENDROOT
BRANCH   3  10
HETATM   10  C   UNK N   1      27.071  24.094  -5.645  0.00  0.00     0.292 C 
HETATM   11  O   UNK N   1      26.371  23.635  -4.755  0.00  0.00    -0.259 OA
BRANCH  10  12
HETATM   12  O   UNK N   1      27.818  25.197  -5.381  0.00  0.00    -0.316 OA
BRANCH  12  13
HETATM   13  C   UNK N   1      28.131  25.616  -4.114  0.00  0.00     0.209 C 
BRANCH  13  14
HETATM   14  C   UNK N   1      28.003  27.114  -4.026  0.00  0.00     0.299 C 
BRANCH  14  15
HETATM   15  N   UNK N   1      26.765  27.521  -4.675  0.00  0.00     0.090 N 
HETATM   16  C   UNK N   1      25.733  27.685  -3.657  0.00  0.00     0.310 C 
BRANCH  15  17
HETATM   17  C   UNK N   1      26.980  28.760  -5.425  0.00  0.00     0.310 C 
BRANCH  17  18
HETATM   18  C   UNK N   1      27.740  28.546  -6.698  0.00  0.00    -0.030 A 
HETATM   19  C   UNK N   1      28.761  29.430  -7.055  0.00  0.00     0.009 A 
HETATM   20  C   UNK N   1      29.442  29.256  -8.263  0.00  0.00     0.001 A 
HETATM   21  C   UNK N   1      29.100  28.199  -9.112  0.00  0.00     0.000 A 
HETATM   22  C   UNK N   1      28.082  27.311  -8.752  0.00  0.00     0.001 A 
HETATM   23  C   UNK N   1      27.403  27.485  -7.546  0.00  0.00     0.009 A 
ENDBRANCH  17  18
ENDBRANCH  15  17
ENDBRANCH  14  15
ENDBRANCH  13  14
ENDBRANCH  12  13
ENDBRANCH  10  12
ENDBRANCH   3  10
BRANCH   2  24
HETATM   24  C   UNK N   1      29.773  22.732  -5.911  0.00  0.00    -0.042 A 
HETATM   25  C   UNK N   1      29.973  22.375  -4.574  0.00  0.00     0.044 A 
HETATM   26  C   UNK N   1      30.990  22.942  -3.796  0.00  0.00     0.103 A 
HETATM   27  C   UNK N   1      31.816  23.922  -4.360  0.00  0.00     0.036 A 
HETATM   28  C   UNK N   1      31.643  24.294  -5.696  0.00  0.00     0.003 A 
HETATM   29  C   UNK N   1      30.634  23.701  -6.468  0.00  0.00     0.008 A 
BRANCH  26  30
HETATM   30  N   UNK N   1      31.170  22.531  -2.446  0.00  0.00    -0.116 N 
HETATM   31  O   UNK N   1      30.399  23.010  -1.495  0.00  0.00    -0.532 OA
HETATM   32  O   UNK N   1      32.036  21.755  -2.165  0.00  0.00    -0.532 OA
ENDBRANCH  26  30
ENDBRANCH   2  24
BRANCH   4  33
HETATM   33  C   UNK N   1      29.877  20.277  -7.873  0.00  0.00     0.291 C 
HETATM   34  O   UNK N   1      29.583  19.191  -7.403  0.00  0.00    -0.260 OA
BRANCH  33  35
HETATM   35  O   UNK N   1      31.150  20.456  -8.320  0.00  0.00    -0.323 OA
HETATM   36  C   UNK N   1      32.251  19.833  -7.773  0.00  0.00     0.213 C 
ENDBRANCH  33  35
ENDBRANCH   4  33
TORSDOF 11
ENDMDL
MODEL 8
REMARK VINA RESULT:      -6.3     12.293     15.668
REMARK  11 active torsions:
REMARK  status: ('A' for Active; 'I' for Inactive)
REMARK    1  A    between atoms: O_1  and  C_16 
REMARK    2  A    between atoms: O_1  and  C_23 
REMARK    3  A    between atoms: O_2  and  C_20 
REMARK    4  A    between atoms: N_8  and  C_22 
REMARK    5  A    between atoms: N_8  and  C_26 
REMARK    6  A    between atoms: N_9  and  C_24 
REMARK    7  A    between atoms: C_10  and  C_13 
REMARK    8  A    between atoms: C_11  and  C_16 
REMARK    9  A    between atoms: C_12  and  C_20 
REMARK   10  A    between atoms: C_22  and  C_23 
REMARK   11  A    between atoms: C_26  and  C_28 
ROOT
HETATM    1  N   UNK N   1      22.848  13.775   7.854  0.00  0.00    -0.362 N 
HETATM    2  C   UNK N   1      21.952  15.483   5.746  0.00  0.00     0.101 A 
HETATM    3  C   UNK N   1      23.124  14.494   5.580  0.00  0.00     0.052 A 
HETATM    4  C   UNK N   1      21.333  15.517   7.164  0.00  0.00     0.052 A 
HETATM    5  C   UNK N   1      23.508  13.704   6.614  0.00  0.00     0.018 A 
HETATM    6  C   UNK N   1      21.786  14.661   8.121  0.00  0.00     0.018 A 
HETATM    7  C   UNK N   1      24.563  12.659   6.489  0.00  0.00     0.069 C 
HETATM    8  C   UNK N   1      21.119  14.512   9.452  0.00  0.00     0.069 C 
HETATM    9  H   UNK N   1      23.143  13.172   8.574  0.00  0.00     0.165 HD
ENDROOT
BRANCH   3  10
HETATM   10  C   UNK N   1      23.796  14.426   4.249  0.00  0.00     0.292 C 
HETATM   11  O   UNK N   1      23.135  14.098   3.275  0.00  0.00    -0.259 OA
BRANCH  10  12
HETATM   12  O   UNK N   1      24.978  15.064   4.048  0.00  0.00    -0.316 OA
BRANCH  12  13
HETATM   13  C   UNK N   1      25.305  15.704   2.880  0.00  0.00     0.209 C 
BRANCH  13  14
HETATM   14  C   UNK N   1      26.797  15.670   2.681  0.00  0.00     0.299 C 
BRANCH  14  15
HETATM   15  N   UNK N   1      27.448  16.087   3.915  0.00  0.00     0.090 N 
HETATM   16  C   UNK N   1      28.266  14.986   4.411  0.00  0.00     0.310 C 
BRANCH  15  17
HETATM   17  C   UNK N   1      28.252  17.286   3.673  0.00  0.00     0.310 C 
BRANCH  17  18
HETATM   18  C   UNK N   1      27.803  18.464   4.483  0.00  0.00    -0.030 A 
HETATM   19  C   UNK N   1      27.169  19.539   3.854  0.00  0.00     0.009 A 
HETATM   20  C   UNK N   1      26.789  20.656   4.602  0.00  0.00     0.001 A 
HETATM   21  C   UNK N   1      27.041  20.696   5.977  0.00  0.00     0.000 A 
HETATM   22  C   UNK N   1      27.669  19.617   6.607  0.00  0.00     0.001 A 
HETATM   23  C   UNK N   1      28.050  18.502   5.860  0.00  0.00     0.009 A 
ENDBRANCH  17  18
ENDBRANCH  15  17
ENDBRANCH  14  15
ENDBRANCH  13  14
ENDBRANCH  12  13
ENDBRANCH  10  12
ENDBRANCH   3  10
BRANCH   2  24
HETATM   24  C   UNK N   1      22.206  16.868   5.106  0.00  0.00    -0.042 A 
HETATM   25  C   UNK N   1      21.377  17.293   4.062  0.00  0.00     0.044 A 
HETATM   26  C   UNK N   1      21.636  18.461   3.335  0.00  0.00     0.103 A 
HETATM   27  C   UNK N   1      22.776  19.216   3.637  0.00  0.00     0.036 A 
HETATM   28  C   UNK N   1      23.618  18.820   4.680  0.00  0.00     0.003 A 
HETATM   29  C   UNK N   1      23.334  17.659   5.412  0.00  0.00     0.008 A 
BRANCH  26  30
HETATM   30  N   UNK N   1      20.751  18.866   2.297  0.00  0.00    -0.116 N 
HETATM   31  O   UNK N   1      20.967  19.982   1.635  0.00  0.00    -0.532 OA
HETATM   32  O   UNK N   1      19.795  18.200   2.029  0.00  0.00    -0.532 OA
ENDBRANCH  26  30
ENDBRANCH   2  24
BRANCH   4  33
HETATM   33  C   UNK N   1      20.150  16.409   7.440  0.00  0.00     0.291 C 
HETATM   34  O   UNK N   1      19.038  16.030   7.112  0.00  0.00    -0.260 OA
BRANCH  33  35
HETATM   35  O   UNK N   1      20.259  17.630   8.030  0.00  0.00    -0.323 OA
HETATM   36  C   UNK N   1      19.465  18.054   9.074  0.00  0.00     0.213 C 
ENDBRANCH  33  35
ENDBRANCH   4  33
TORSDOF 11
ENDMDL
MODEL 9
REMARK VINA RESULT:      -6.2     12.251     16.041
REMARK  11 active torsions:
REMARK  status: ('A' for Active; 'I' for Inactive)
REMARK    1  A    between atoms: O_1  and  C_16 
REMARK    2  A    between atoms: O_1  and  C_23 
REMARK    3  A    between atoms: O_2  and  C_20 
REMARK    4  A    between atoms: N_8  and  C_22 
REMARK    5  A    between atoms: N_8  and  C_26 
REMARK    6  A    between atoms: N_9  and  C_24 
REMARK    7  A    between atoms: C_10  and  C_13 
REMARK    8  A    between atoms: C_11  and  C_16 
REMARK    9  A    between atoms: C_12  and  C_20 
REMARK   10  A    between atoms: C_22  and  C_23 
REMARK   11  A    between atoms: C_26  and  C_28 
ROOT
HETATM    1  N   UNK N   1      35.034  12.915   4.696  0.00  0.00    -0.362 N 
HETATM    2  C   UNK N   1      32.951  14.347   6.028  0.00  0.00     0.101 A 
HETATM    3  C   UNK N   1      33.319  14.590   4.550  0.00  0.00     0.052 A 
HETATM    4  C   UNK N   1      33.837  13.304   6.751  0.00  0.00     0.052 A 
HETATM    5  C   UNK N   1      34.317  13.879   3.965  0.00  0.00     0.018 A 
HETATM    6  C   UNK N   1      34.798  12.636   6.056  0.00  0.00     0.018 A 
HETATM    7  C   UNK N   1      34.654  13.993   2.518  0.00  0.00     0.069 C 
HETATM    8  C   UNK N   1      35.567  11.492   6.639  0.00  0.00     0.069 C 
HETATM    9  H   UNK N   1      35.738  12.408   4.232  0.00  0.00     0.165 HD
ENDROOT
BRANCH   3  10
HETATM   10  C   UNK N   1      32.532  15.606   3.792  0.00  0.00     0.292 C 
HETATM   11  O   UNK N   1      33.063  16.670   3.514  0.00  0.00    -0.259 OA
BRANCH  10  12
HETATM   12  O   UNK N   1      31.421  15.235   3.105  0.00  0.00    -0.316 OA
BRANCH  12  13
HETATM   13  C   UNK N   1      30.156  15.266   3.634  0.00  0.00     0.209 C 
BRANCH  13  14
HETATM   14  C   UNK N   1      29.243  16.047   2.726  0.00  0.00     0.299 C 
BRANCH  14  15
HETATM   15  N   UNK N   1      28.368  16.879   3.540  0.00  0.00     0.090 N 
HETATM   16  C   UNK N   1      27.360  16.031   4.166  0.00  0.00     0.310 C 
BRANCH  15  17
HETATM   17  C   UNK N   1      29.158  17.602   4.539  0.00  0.00     0.310 C 
BRANCH  17  18
HETATM   18  C   UNK N   1      28.394  18.708   5.198  0.00  0.00    -0.030 A 
HETATM   19  C   UNK N   1      27.848  19.734   4.423  0.00  0.00     0.009 A 
HETATM   20  C   UNK N   1      27.172  20.789   5.041  0.00  0.00     0.001 A 
HETATM   21  C   UNK N   1      27.043  20.817   6.433  0.00  0.00     0.000 A 
HETATM   22  C   UNK N   1      27.583  19.787   7.208  0.00  0.00     0.001 A 
HETATM   23  C   UNK N   1      28.259  18.733   6.591  0.00  0.00     0.009 A 
ENDBRANCH  17  18
ENDBRANCH  15  17
ENDBRANCH  14  15
ENDBRANCH  13  14
ENDBRANCH  12  13
ENDBRANCH  10  12
ENDBRANCH   3  10
BRANCH   2  24
HETATM   24  C   UNK N   1      32.678  15.644   6.826  0.00  0.00    -0.042 A 
HETATM   25  C   UNK N   1      33.761  16.342   7.370  0.00  0.00     0.044 A 
HETATM   26  C   UNK N   1      33.585  17.435   8.229  0.00  0.00     0.103 A 
HETATM   27  C   UNK N   1      32.288  17.825   8.582  0.00  0.00     0.036 A 
HETATM   28  C   UNK N   1      31.187  17.149   8.049  0.00  0.00     0.003 A 
HETATM   29  C   UNK N   1      31.379  16.071   7.173  0.00  0.00     0.008 A 
BRANCH  26  30
HETATM   30  N   UNK N   1      34.717  18.130   8.739  0.00  0.00    -0.116 N 
HETATM   31  O   UNK N   1      35.385  17.652   9.766  0.00  0.00    -0.532 OA
HETATM   32  O   UNK N   1      35.059  19.165   8.246  0.00  0.00    -0.532 OA
ENDBRANCH  26  30
ENDBRANCH   2  24
BRANCH   4  33
HETATM   33  C   UNK N   1      33.546  12.945   8.185  0.00  0.00     0.291 C 
HETATM   34  O   UNK N   1      34.171  13.503   9.070  0.00  0.00    -0.260 OA
BRANCH  33  35
HETATM   35  O   UNK N   1      32.622  12.012   8.546  0.00  0.00    -0.323 OA
HETATM   36  C   UNK N   1      32.922  10.865   9.249  0.00  0.00     0.213 C 
ENDBRANCH  33  35
ENDBRANCH   4  33
TORSDOF 11
ENDMDL
