REMARK  8 active torsions:
REMARK  status: ('A' for Active; 'I' for Inactive)
REMARK    1  A    between atoms: O_5  and  C_17 
REMARK    2  A    between atoms: N_6  and  C_13 
REMARK    3  A    between atoms: N_7  and  C_15 
REMARK    4  A    between atoms: N_8  and  C_16 
REMARK    5  A    between atoms: C_13  and  C_14 
REMARK    6  A    between atoms: C_14  and  C_16 
REMARK    7  A    between atoms: C_15  and  C_17 
REMARK    8  A    between atoms: C_24  and  C_30 
ROOT
HETATM    1  S   UNK N   1       6.037  -5.523  -0.320  0.00  0.00    -0.086 SA
HETATM    2  N   UNK N   1       5.817  -2.335  -0.403  0.00  0.00    -0.345 N 
HETATM    3  C   UNK N   1       7.107  -2.913  -0.177  0.00  0.00     0.053 A 
HETATM    4  C   UNK N   1       4.599  -3.088  -0.420  0.00  0.00     0.052 A 
HETATM    5  C   UNK N   1       7.318  -4.304  -0.074  0.00  0.00     0.032 A 
HETATM    6  C   UNK N   1       4.573  -4.499  -0.346  0.00  0.00     0.032 A 
HETATM    7  C   UNK N   1       8.208  -2.058   0.001  0.00  0.00     0.047 A 
HETATM    8  C   UNK N   1       3.368  -2.400  -0.472  0.00  0.00     0.031 A 
HETATM    9  C   UNK N   1       9.476  -2.535   0.305  0.00  0.00     0.050 A 
HETATM   10  C   UNK N   1       8.602  -4.787   0.216  0.00  0.00     0.022 A 
HETATM   11  C   UNK N   1       3.342  -5.168  -0.316  0.00  0.00     0.021 A 
HETATM   12  C   UNK N   1       9.673  -3.913   0.418  0.00  0.00     0.017 A 
HETATM   13  C   UNK N   1       2.152  -3.078  -0.440  0.00  0.00     0.002 A 
HETATM   14  C   UNK N   1       2.139  -4.466  -0.355  0.00  0.00     0.002 A 
ENDROOT
BRANCH   2  15
HETATM   15  C   UNK N   1       5.721  -0.886  -0.471  0.00  0.00     0.131 C 
BRANCH  15  16
HETATM   16  C   UNK N   1       6.019  -0.271   0.895  0.00  0.00     0.050 C 
BRANCH  16  17
HETATM   17  C   UNK N   1       5.786   1.230   0.818  0.00  0.00     0.274 C 
BRANCH  17  18
HETATM   18  N   UNK N   1       4.410   1.641   1.117  0.00  0.00     0.091 N 
HETATM   19  C   UNK N   1       3.433   0.688   0.561  0.00  0.00     0.302 C 
HETATM   20  C   UNK N   1       2.018   1.232   0.655  0.00  0.00     0.302 C 
HETATM   21  N   UNK N   1       1.950   2.466  -0.114  0.00  0.00     0.093 N 
HETATM   22  C   UNK N   1       2.826   3.438   0.538  0.00  0.00     0.302 C 
HETATM   23  C   UNK N   1       4.267   2.943   0.460  0.00  0.00     0.302 C 
BRANCH  21  24
HETATM   24  C   UNK N   1       0.576   2.939  -0.051  0.00  0.00     0.298 C 
BRANCH  24  25
HETATM   25  C   UNK N   1       0.334   4.030  -1.081  0.00  0.00     0.194 C 
BRANCH  25  26
HETATM   26  O   UNK N   1       0.737   5.261  -0.563  0.00  0.00    -0.399 OA
HETATM   27  H   UNK N   1       1.619   5.446  -0.204  0.00  0.00     0.209 HD
ENDBRANCH  25  26
ENDBRANCH  24  25
ENDBRANCH  21  24
ENDBRANCH  17  18
ENDBRANCH  16  17
ENDBRANCH  15  16
ENDBRANCH   2  15
BRANCH   9  28
HETATM   28  C   UNK N   1      10.586  -1.553   0.538  0.00  0.00     0.417 C 
HETATM   29  F   UNK N   1      10.222  -0.686   1.555  0.00  0.00    -0.166 F 
HETATM   30  F   UNK N   1      11.757  -2.196   0.900  0.00  0.00    -0.166 F 
HETATM   31  F   UNK N   1      10.810  -0.823  -0.615  0.00  0.00    -0.166 F 
ENDBRANCH   9  28
TORSDOF 8
