MODEL 1
REMARK VINA RESULT:      -7.0      0.000      0.000
REMARK  8 active torsions:
REMARK  status: ('A' for Active; 'I' for Inactive)
REMARK    1  A    between atoms: O_5  and  C_17 
REMARK    2  A    between atoms: N_6  and  C_13 
REMARK    3  A    between atoms: N_7  and  C_15 
REMARK    4  A    between atoms: N_8  and  C_16 
REMARK    5  A    between atoms: C_13  and  C_14 
REMARK    6  A    between atoms: C_14  and  C_16 
REMARK    7  A    between atoms: C_15  and  C_17 
REMARK    8  A    between atoms: C_24  and  C_30 
ROOT
HETATM    1  S   UNK N   1      26.277  16.264   3.064  0.00  0.00    -0.086 SA
HETATM    2  N   UNK N   1      28.869  17.092   4.743  0.00  0.00    -0.345 N 
HETATM    3  C   UNK N   1      27.717  17.937   4.827  0.00  0.00     0.053 A 
HETATM    4  C   UNK N   1      28.991  16.001   3.823  0.00  0.00     0.052 A 
HETATM    5  C   UNK N   1      26.534  17.699   4.096  0.00  0.00     0.032 A 
HETATM    6  C   UNK N   1      27.924  15.574   3.000  0.00  0.00     0.032 A 
HETATM    7  C   UNK N   1      27.780  19.086   5.634  0.00  0.00     0.047 A 
HETATM    8  C   UNK N   1      30.234  15.345   3.698  0.00  0.00     0.031 A 
HETATM    9  C   UNK N   1      26.737  20.000   5.706  0.00  0.00     0.050 A 
HETATM   10  C   UNK N   1      25.474  18.613   4.182  0.00  0.00     0.022 A 
HETATM   11  C   UNK N   1      28.130  14.532   2.086  0.00  0.00     0.021 A 
HETATM   12  C   UNK N   1      25.575  19.762   4.969  0.00  0.00     0.017 A 
HETATM   13  C   UNK N   1      30.424  14.311   2.785  0.00  0.00     0.002 A 
HETATM   14  C   UNK N   1      29.370  13.908   1.971  0.00  0.00     0.002 A 
ENDROOT
BRANCH   2  15
HETATM   15  C   UNK N   1      30.037  17.451   5.530  0.00  0.00     0.131 C 
BRANCH  15  16
HETATM   16  C   UNK N   1      30.031  16.701   6.860  0.00  0.00     0.050 C 
BRANCH  16  17
HETATM   17  C   UNK N   1      30.361  17.679   7.976  0.00  0.00     0.274 C 
BRANCH  17  18
HETATM   18  N   UNK N   1      31.587  17.358   8.715  0.00  0.00     0.091 N 
HETATM   19  C   UNK N   1      32.773  17.942   8.066  0.00  0.00     0.302 C 
HETATM   20  C   UNK N   1      34.056  17.413   8.683  0.00  0.00     0.302 C 
HETATM   21  N   UNK N   1      34.091  15.970   8.498  0.00  0.00     0.093 N 
HETATM   22  C   UNK N   1      32.983  15.402   9.264  0.00  0.00     0.302 C 
HETATM   23  C   UNK N   1      31.665  15.895   8.674  0.00  0.00     0.302 C 
BRANCH  21  24
HETATM   24  C   UNK N   1      35.350  15.494   9.051  0.00  0.00     0.298 C 
BRANCH  24  25
HETATM   25  C   UNK N   1      35.448  15.825  10.531  0.00  0.00     0.194 C 
BRANCH  25  26
HETATM   26  O   UNK N   1      36.751  16.216  10.839  0.00  0.00    -0.399 OA
HETATM   27  H   UNK N   1      37.230  15.953  11.640  0.00  0.00     0.209 HD
ENDBRANCH  25  26
ENDBRANCH  24  25
ENDBRANCH  21  24
ENDBRANCH  17  18
ENDBRANCH  16  17
ENDBRANCH  15  16
ENDBRANCH   2  15
BRANCH   9  28
HETATM   28  C   UNK N   1      26.906  21.232   6.545  0.00  0.00     0.417 C 
HETATM   29  F   UNK N   1      26.616  20.928   7.865  0.00  0.00    -0.166 F 
HETATM   30  F   UNK N   1      28.202  21.713   6.475  0.00  0.00    -0.166 F 
HETATM   31  F   UNK N   1      26.035  22.214   6.110  0.00  0.00    -0.166 F 
ENDBRANCH   9  28
TORSDOF 8
ENDMDL
MODEL 2
REMARK VINA RESULT:      -6.8      4.773      8.558
REMARK  8 active torsions:
REMARK  status: ('A' for Active; 'I' for Inactive)
REMARK    1  A    between atoms: O_5  and  C_17 
REMARK    2  A    between atoms: N_6  and  C_13 
REMARK    3  A    between atoms: N_7  and  C_15 
REMARK    4  A    between atoms: N_8  and  C_16 
REMARK    5  A    between atoms: C_13  and  C_14 
REMARK    6  A    between atoms: C_14  and  C_16 
REMARK    7  A    between atoms: C_15  and  C_17 
REMARK    8  A    between atoms: C_24  and  C_30 
ROOT
HETATM    1  S   UNK N   1      31.088  15.430   4.425  0.00  0.00    -0.086 SA
HETATM    2  N   UNK N   1      28.151  16.546   5.016  0.00  0.00    -0.345 N 
HETATM    3  C   UNK N   1      29.149  16.712   6.029  0.00  0.00     0.053 A 
HETATM    4  C   UNK N   1      28.341  15.762   3.833  0.00  0.00     0.052 A 
HETATM    5  C   UNK N   1      30.464  16.219   5.900  0.00  0.00     0.032 A 
HETATM    6  C   UNK N   1      29.584  15.183   3.492  0.00  0.00     0.032 A 
HETATM    7  C   UNK N   1      28.792  17.350   7.230  0.00  0.00     0.047 A 
HETATM    8  C   UNK N   1      27.237  15.517   2.988  0.00  0.00     0.031 A 
HETATM    9  C   UNK N   1      29.676  17.477   8.293  0.00  0.00     0.050 A 
HETATM   10  C   UNK N   1      31.363  16.364   6.966  0.00  0.00     0.022 A 
HETATM   11  C   UNK N   1      29.684  14.384   2.345  0.00  0.00     0.021 A 
HETATM   12  C   UNK N   1      30.973  16.975   8.161  0.00  0.00     0.017 A 
HETATM   13  C   UNK N   1      27.351  14.720   1.852  0.00  0.00     0.002 A 
HETATM   14  C   UNK N   1      28.577  14.146   1.533  0.00  0.00     0.002 A 
ENDROOT
BRANCH   2  15
HETATM   15  C   UNK N   1      26.824  17.081   5.271  0.00  0.00     0.131 C 
BRANCH  15  16
HETATM   16  C   UNK N   1      26.623  18.388   4.507  0.00  0.00     0.050 C 
BRANCH  16  17
HETATM   17  C   UNK N   1      25.309  19.016   4.946  0.00  0.00     0.274 C 
BRANCH  17  18
HETATM   18  N   UNK N   1      24.283  19.059   3.899  0.00  0.00     0.091 N 
HETATM   19  C   UNK N   1      24.056  20.436   3.427  0.00  0.00     0.302 C 
HETATM   20  C   UNK N   1      22.835  20.516   2.527  0.00  0.00     0.302 C 
HETATM   21  N   UNK N   1      21.672  20.091   3.294  0.00  0.00     0.093 N 
HETATM   22  C   UNK N   1      21.862  18.682   3.634  0.00  0.00     0.302 C 
HETATM   23  C   UNK N   1      23.074  18.548   4.551  0.00  0.00     0.302 C 
BRANCH  21  24
HETATM   24  C   UNK N   1      20.511  20.225   2.429  0.00  0.00     0.298 C 
BRANCH  24  25
HETATM   25  C   UNK N   1      20.742  19.515   1.105  0.00  0.00     0.194 C 
BRANCH  25  26
HETATM   26  O   UNK N   1      20.658  20.434   0.059  0.00  0.00    -0.399 OA
HETATM   27  H   UNK N   1      19.967  21.110  -0.027  0.00  0.00     0.209 HD
ENDBRANCH  25  26
ENDBRANCH  24  25
ENDBRANCH  21  24
ENDBRANCH  17  18
ENDBRANCH  16  17
ENDBRANCH  15  16
ENDBRANCH   2  15
BRANCH   9  28
HETATM   28  C   UNK N   1      29.199  18.119   9.562  0.00  0.00     0.417 C 
HETATM   29  F   UNK N   1      27.894  18.550   9.393  0.00  0.00    -0.166 F 
HETATM   30  F   UNK N   1      29.239  17.228  10.620  0.00  0.00    -0.166 F 
HETATM   31  F   UNK N   1      29.997  19.209   9.860  0.00  0.00    -0.166 F 
ENDBRANCH   9  28
TORSDOF 8
ENDMDL
MODEL 3
REMARK VINA RESULT:      -6.8     12.599     14.387
REMARK  8 active torsions:
REMARK  status: ('A' for Active; 'I' for Inactive)
REMARK    1  A    between atoms: O_5  and  C_17 
REMARK    2  A    between atoms: N_6  and  C_13 
REMARK    3  A    between atoms: N_7  and  C_15 
REMARK    4  A    between atoms: N_8  and  C_16 
REMARK    5  A    between atoms: C_13  and  C_14 
REMARK    6  A    between atoms: C_14  and  C_16 
REMARK    7  A    between atoms: C_15  and  C_17 
REMARK    8  A    between atoms: C_24  and  C_30 
ROOT
HETATM    1  S   UNK N   1      27.372  25.706  -9.323  0.00  0.00    -0.086 SA
HETATM    2  N   UNK N   1      26.015  25.343  -6.452  0.00  0.00    -0.345 N 
HETATM    3  C   UNK N   1      26.722  26.560  -6.711  0.00  0.00     0.053 A 
HETATM    4  C   UNK N   1      26.027  24.213  -7.331  0.00  0.00     0.052 A 
HETATM    5  C   UNK N   1      27.399  26.813  -7.923  0.00  0.00     0.032 A 
HETATM    6  C   UNK N   1      26.634  24.245  -8.607  0.00  0.00     0.032 A 
HETATM    7  C   UNK N   1      26.790  27.530  -5.696  0.00  0.00     0.047 A 
HETATM    8  C   UNK N   1      25.446  23.001  -6.899  0.00  0.00     0.031 A 
HETATM    9  C   UNK N   1      27.523  28.701  -5.837  0.00  0.00     0.050 A 
HETATM   10  C   UNK N   1      28.125  28.003  -8.072  0.00  0.00     0.022 A 
HETATM   11  C   UNK N   1      26.652  23.086  -9.394  0.00  0.00     0.021 A 
HETATM   12  C   UNK N   1      28.200  28.937  -7.036  0.00  0.00     0.017 A 
HETATM   13  C   UNK N   1      25.473  21.857  -7.692  0.00  0.00     0.002 A 
HETATM   14  C   UNK N   1      26.084  21.897  -8.941  0.00  0.00     0.002 A 
ENDROOT
BRANCH   2  15
HETATM   15  C   UNK N   1      25.373  25.189  -5.157  0.00  0.00     0.131 C 
BRANCH  15  16
HETATM   16  C   UNK N   1      26.112  24.148  -4.319  0.00  0.00     0.050 C 
BRANCH  16  17
HETATM   17  C   UNK N   1      27.125  24.859  -3.435  0.00  0.00     0.274 C 
BRANCH  17  18
HETATM   18  N   UNK N   1      28.480  24.304  -3.507  0.00  0.00     0.091 N 
HETATM   19  C   UNK N   1      28.678  23.529  -4.745  0.00  0.00     0.302 C 
HETATM   20  C   UNK N   1      29.984  22.756  -4.709  0.00  0.00     0.302 C 
HETATM   21  N   UNK N   1      29.938  21.830  -3.586  0.00  0.00     0.093 N 
HETATM   22  C   UNK N   1      29.879  22.628  -2.362  0.00  0.00     0.302 C 
HETATM   23  C   UNK N   1      28.574  23.418  -2.343  0.00  0.00     0.302 C 
BRANCH  21  24
HETATM   24  C   UNK N   1      31.176  21.068  -3.603  0.00  0.00     0.298 C 
BRANCH  24  25
HETATM   25  C   UNK N   1      32.295  21.842  -2.927  0.00  0.00     0.194 C 
BRANCH  25  26
HETATM   26  O   UNK N   1      32.956  21.013  -2.020  0.00  0.00    -0.399 OA
HETATM   27  H   UNK N   1      33.233  20.102  -2.206  0.00  0.00     0.209 HD
ENDBRANCH  25  26
ENDBRANCH  24  25
ENDBRANCH  21  24
ENDBRANCH  17  18
ENDBRANCH  16  17
ENDBRANCH  15  16
ENDBRANCH   2  15
BRANCH   9  28
HETATM   28  C   UNK N   1      27.593  29.659  -4.685  0.00  0.00     0.417 C 
HETATM   29  F   UNK N   1      26.350  30.242  -4.500  0.00  0.00    -0.166 F 
HETATM   30  F   UNK N   1      27.958  29.013  -3.517  0.00  0.00    -0.166 F 
HETATM   31  F   UNK N   1      28.517  30.650  -4.960  0.00  0.00    -0.166 F 
ENDBRANCH   9  28
TORSDOF 8
ENDMDL
MODEL 4
REMARK VINA RESULT:      -6.8      4.188      6.208
REMARK  8 active torsions:
REMARK  status: ('A' for Active; 'I' for Inactive)
REMARK    1  A    between atoms: O_5  and  C_17 
REMARK    2  A    between atoms: N_6  and  C_13 
REMARK    3  A    between atoms: N_7  and  C_15 
REMARK    4  A    between atoms: N_8  and  C_16 
REMARK    5  A    between atoms: C_13  and  C_14 
REMARK    6  A    between atoms: C_14  and  C_16 
REMARK    7  A    between atoms: C_15  and  C_17 
REMARK    8  A    between atoms: C_24  and  C_30 
ROOT
HETATM    1  S   UNK N   1      28.522  16.420   5.700  0.00  0.00    -0.086 SA
HETATM    2  N   UNK N   1      31.482  17.181   6.637  0.00  0.00    -0.345 N 
HETATM    3  C   UNK N   1      31.334  16.415   5.437  0.00  0.00     0.053 A 
HETATM    4  C   UNK N   1      30.403  17.477   7.531  0.00  0.00     0.052 A 
HETATM    5  C   UNK N   1      30.082  15.982   4.952  0.00  0.00     0.032 A 
HETATM    6  C   UNK N   1      29.060  17.148   7.241  0.00  0.00     0.032 A 
HETATM    7  C   UNK N   1      32.489  16.032   4.733  0.00  0.00     0.047 A 
HETATM    8  C   UNK N   1      30.688  18.084   8.773  0.00  0.00     0.031 A 
HETATM    9  C   UNK N   1      32.437  15.222   3.608  0.00  0.00     0.050 A 
HETATM   10  C   UNK N   1      30.028  15.177   3.805  0.00  0.00     0.022 A 
HETATM   11  C   UNK N   1      28.061  17.421   8.185  0.00  0.00     0.021 A 
HETATM   12  C   UNK N   1      31.194  14.786   3.142  0.00  0.00     0.017 A 
HETATM   13  C   UNK N   1      29.685  18.347   9.703  0.00  0.00     0.002 A 
HETATM   14  C   UNK N   1      28.369  18.009   9.410  0.00  0.00     0.002 A 
ENDROOT
BRANCH   2  15
HETATM   15  C   UNK N   1      32.826  17.554   7.047  0.00  0.00     0.131 C 
BRANCH  15  16
HETATM   16  C   UNK N   1      33.520  16.372   7.722  0.00  0.00     0.050 C 
BRANCH  16  17
HETATM   17  C   UNK N   1      34.364  16.893   8.875  0.00  0.00     0.274 C 
BRANCH  17  18
HETATM   18  N   UNK N   1      35.071  15.847   9.623  0.00  0.00     0.091 N 
HETATM   19  C   UNK N   1      34.248  14.632   9.754  0.00  0.00     0.302 C 
HETATM   20  C   UNK N   1      34.871  13.647  10.726  0.00  0.00     0.302 C 
HETATM   21  N   UNK N   1      34.963  14.286  12.031  0.00  0.00     0.093 N 
HETATM   22  C   UNK N   1      35.891  15.408  11.905  0.00  0.00     0.302 C 
HETATM   23  C   UNK N   1      35.304  16.437  10.944  0.00  0.00     0.302 C 
BRANCH  21  24
HETATM   24  C   UNK N   1      35.515  13.307  12.954  0.00  0.00     0.298 C 
BRANCH  24  25
HETATM   25  C   UNK N   1      36.138  13.994  14.158  0.00  0.00     0.194 C 
BRANCH  25  26
HETATM   26  O   UNK N   1      37.356  13.387  14.465  0.00  0.00    -0.399 OA
HETATM   27  H   UNK N   1      38.150  13.432  13.910  0.00  0.00     0.209 HD
ENDBRANCH  25  26
ENDBRANCH  24  25
ENDBRANCH  21  24
ENDBRANCH  17  18
ENDBRANCH  16  17
ENDBRANCH  15  16
ENDBRANCH   2  15
BRANCH   9  28
HETATM   28  C   UNK N   1      33.720  14.809   2.948  0.00  0.00     0.417 C 
HETATM   29  F   UNK N   1      34.134  15.813   2.088  0.00  0.00    -0.166 F 
HETATM   30  F   UNK N   1      34.716  14.587   3.884  0.00  0.00    -0.166 F 
HETATM   31  F   UNK N   1      33.518  13.651   2.221  0.00  0.00    -0.166 F 
ENDBRANCH   9  28
TORSDOF 8
ENDMDL
MODEL 5
REMARK VINA RESULT:      -6.7      6.100      8.689
REMARK  8 active torsions:
REMARK  status: ('A' for Active; 'I' for Inactive)
REMARK    1  A    between atoms: O_5  and  C_17 
REMARK    2  A    between atoms: N_6  and  C_13 
REMARK    3  A    between atoms: N_7  and  C_15 
REMARK    4  A    between atoms: N_8  and  C_16 
REMARK    5  A    between atoms: C_13  and  C_14 
REMARK    6  A    between atoms: C_14  and  C_16 
REMARK    7  A    between atoms: C_15  and  C_17 
REMARK    8  A    between atoms: C_24  and  C_30 
ROOT
HETATM    1  S   UNK N   1      24.243  20.567   3.146  0.00  0.00    -0.086 SA
HETATM    2  N   UNK N   1      23.254  17.763   4.322  0.00  0.00    -0.345 N 
HETATM    3  C   UNK N   1      24.658  18.042   4.341  0.00  0.00     0.053 A 
HETATM    4  C   UNK N   1      22.289  18.584   3.653  0.00  0.00     0.052 A 
HETATM    5  C   UNK N   1      25.214  19.223   3.808  0.00  0.00     0.032 A 
HETATM    6  C   UNK N   1      22.621  19.822   3.059  0.00  0.00     0.032 A 
HETATM    7  C   UNK N   1      25.530  17.074   4.869  0.00  0.00     0.047 A 
HETATM    8  C   UNK N   1      20.958  18.126   3.543  0.00  0.00     0.031 A 
HETATM    9  C   UNK N   1      26.910  17.231   4.851  0.00  0.00     0.050 A 
HETATM   10  C   UNK N   1      26.606  19.390   3.806  0.00  0.00     0.022 A 
HETATM   11  C   UNK N   1      21.635  20.549   2.377  0.00  0.00     0.021 A 
HETATM   12  C   UNK N   1      27.452  18.399   4.309  0.00  0.00     0.017 A 
HETATM   13  C   UNK N   1      19.990  18.858   2.860  0.00  0.00     0.002 A 
HETATM   14  C   UNK N   1      20.331  20.070   2.270  0.00  0.00     0.002 A 
ENDROOT
BRANCH   2  15
HETATM   15  C   UNK N   1      22.800  16.502   4.884  0.00  0.00     0.131 C 
BRANCH  15  16
HETATM   16  C   UNK N   1      22.179  16.729   6.260  0.00  0.00     0.050 C 
BRANCH  16  17
HETATM   17  C   UNK N   1      21.491  15.447   6.705  0.00  0.00     0.274 C 
BRANCH  17  18
HETATM   18  N   UNK N   1      21.942  14.942   8.006  0.00  0.00     0.091 N 
HETATM   19  C   UNK N   1      22.898  13.831   7.848  0.00  0.00     0.302 C 
HETATM   20  C   UNK N   1      23.177  13.151   9.177  0.00  0.00     0.302 C 
HETATM   21  N   UNK N   1      21.924  12.615   9.689  0.00  0.00     0.093 N 
HETATM   22  C   UNK N   1      21.042  13.748   9.965  0.00  0.00     0.302 C 
HETATM   23  C   UNK N   1      20.720  14.461   8.655  0.00  0.00     0.302 C 
BRANCH  21  24
HETATM   24  C   UNK N   1      22.225  11.926  10.934  0.00  0.00     0.298 C 
BRANCH  24  25
HETATM   25  C   UNK N   1      23.710  12.008  11.249  0.00  0.00     0.194 C 
BRANCH  25  26
HETATM   26  O   UNK N   1      23.887  12.335  12.593  0.00  0.00    -0.399 OA
HETATM   27  H   UNK N   1      24.541  11.924  13.180  0.00  0.00     0.209 HD
ENDBRANCH  25  26
ENDBRANCH  24  25
ENDBRANCH  21  24
ENDBRANCH  17  18
ENDBRANCH  16  17
ENDBRANCH  15  16
ENDBRANCH   2  15
BRANCH   9  28
HETATM   28  C   UNK N   1      27.774  16.125   5.380  0.00  0.00     0.417 C 
HETATM   29  F   UNK N   1      27.110  14.919   5.238  0.00  0.00    -0.166 F 
HETATM   30  F   UNK N   1      28.975  16.055   4.695  0.00  0.00    -0.166 F 
HETATM   31  F   UNK N   1      28.033  16.340   6.722  0.00  0.00    -0.166 F 
ENDBRANCH   9  28
TORSDOF 8
ENDMDL
MODEL 6
REMARK VINA RESULT:      -6.7      3.329      4.844
REMARK  8 active torsions:
REMARK  status: ('A' for Active; 'I' for Inactive)
REMARK    1  A    between atoms: O_5  and  C_17 
REMARK    2  A    between atoms: N_6  and  C_13 
REMARK    3  A    between atoms: N_7  and  C_15 
REMARK    4  A    between atoms: N_8  and  C_16 
REMARK    5  A    between atoms: C_13  and  C_14 
REMARK    6  A    between atoms: C_14  and  C_16 
REMARK    7  A    between atoms: C_15  and  C_17 
REMARK    8  A    between atoms: C_24  and  C_30 
ROOT
HETATM    1  S   UNK N   1      28.119  16.977   6.674  0.00  0.00    -0.086 SA
HETATM    2  N   UNK N   1      30.716  16.041   5.061  0.00  0.00    -0.345 N 
HETATM    3  C   UNK N   1      30.908  16.721   6.307  0.00  0.00     0.053 A 
HETATM    4  C   UNK N   1      29.445  15.910   4.414  0.00  0.00     0.052 A 
HETATM    5  C   UNK N   1      29.840  17.220   7.082  0.00  0.00     0.032 A 
HETATM    6  C   UNK N   1      28.236  16.328   5.014  0.00  0.00     0.032 A 
HETATM    7  C   UNK N   1      32.220  16.948   6.757  0.00  0.00     0.047 A 
HETATM    8  C   UNK N   1      29.393  15.381   3.107  0.00  0.00     0.031 A 
HETATM    9  C   UNK N   1      32.494  17.669   7.911  0.00  0.00     0.050 A 
HETATM   10  C   UNK N   1      30.116  17.934   8.257  0.00  0.00     0.022 A 
HETATM   11  C   UNK N   1      27.035  16.217   4.300  0.00  0.00     0.021 A 
HETATM   12  C   UNK N   1      31.431  18.171   8.665  0.00  0.00     0.017 A 
HETATM   13  C   UNK N   1      28.192  15.277   2.409  0.00  0.00     0.002 A 
HETATM   14  C   UNK N   1      27.010  15.703   3.006  0.00  0.00     0.002 A 
ENDROOT
BRANCH   2  15
HETATM   15  C   UNK N   1      31.895  15.589   4.342  0.00  0.00     0.131 C 
BRANCH  15  16
HETATM   16  C   UNK N   1      32.286  14.184   4.797  0.00  0.00     0.050 C 
BRANCH  16  17
HETATM   17  C   UNK N   1      33.803  14.083   4.824  0.00  0.00     0.274 C 
BRANCH  17  18
HETATM   18  N   UNK N   1      34.349  13.574   6.087  0.00  0.00     0.091 N 
HETATM   19  C   UNK N   1      33.380  13.720   7.188  0.00  0.00     0.302 C 
HETATM   20  C   UNK N   1      34.023  13.424   8.531  0.00  0.00     0.302 C 
HETATM   21  N   UNK N   1      35.106  14.374   8.740  0.00  0.00     0.093 N 
HETATM   22  C   UNK N   1      36.117  14.118   7.716  0.00  0.00     0.302 C 
HETATM   23  C   UNK N   1      35.523  14.413   6.342  0.00  0.00     0.302 C 
BRANCH  21  24
HETATM   24  C   UNK N   1      35.671  14.103  10.052  0.00  0.00     0.298 C 
BRANCH  24  25
HETATM   25  C   UNK N   1      37.035  14.758  10.197  0.00  0.00     0.194 C 
BRANCH  25  26
HETATM   26  O   UNK N   1      36.889  16.022  10.769  0.00  0.00    -0.399 OA
HETATM   27  H   UNK N   1      37.558  16.458  11.320  0.00  0.00     0.209 HD
ENDBRANCH  25  26
ENDBRANCH  24  25
ENDBRANCH  21  24
ENDBRANCH  17  18
ENDBRANCH  16  17
ENDBRANCH  15  16
ENDBRANCH   2  15
BRANCH   9  28
HETATM   28  C   UNK N   1      33.924  17.917   8.291  0.00  0.00     0.417 C 
HETATM   29  F   UNK N   1      34.754  17.322   7.356  0.00  0.00    -0.166 F 
HETATM   30  F   UNK N   1      34.203  19.272   8.335  0.00  0.00    -0.166 F 
HETATM   31  F   UNK N   1      34.177  17.364   9.533  0.00  0.00    -0.166 F 
ENDBRANCH   9  28
TORSDOF 8
ENDMDL
MODEL 7
REMARK VINA RESULT:      -6.6      6.111      8.234
REMARK  8 active torsions:
REMARK  status: ('A' for Active; 'I' for Inactive)
REMARK    1  A    between atoms: O_5  and  C_17 
REMARK    2  A    between atoms: N_6  and  C_13 
REMARK    3  A    between atoms: N_7  and  C_15 
REMARK    4  A    between atoms: N_8  and  C_16 
REMARK    5  A    between atoms: C_13  and  C_14 
REMARK    6  A    between atoms: C_14  and  C_16 
REMARK    7  A    between atoms: C_15  and  C_17 
REMARK    8  A    between atoms: C_24  and  C_30 
ROOT
HETATM    1  S   UNK N   1      25.570  20.109   3.817  0.00  0.00    -0.086 SA
HETATM    2  N   UNK N   1      24.466  17.195   4.530  0.00  0.00    -0.345 N 
HETATM    3  C   UNK N   1      23.564  18.124   3.918  0.00  0.00     0.053 A 
HETATM    4  C   UNK N   1      25.773  17.546   4.998  0.00  0.00     0.052 A 
HETATM    5  C   UNK N   1      23.925  19.450   3.602  0.00  0.00     0.032 A 
HETATM    6  C   UNK N   1      26.347  18.818   4.778  0.00  0.00     0.032 A 
HETATM    7  C   UNK N   1      22.243  17.715   3.665  0.00  0.00     0.047 A 
HETATM    8  C   UNK N   1      26.510  16.602   5.746  0.00  0.00     0.031 A 
HETATM    9  C   UNK N   1      21.286  18.579   3.151  0.00  0.00     0.050 A 
HETATM   10  C   UNK N   1      22.963  20.317   3.066  0.00  0.00     0.022 A 
HETATM   11  C   UNK N   1      27.610  19.109   5.310  0.00  0.00     0.021 A 
HETATM   12  C   UNK N   1      21.649  19.894   2.853  0.00  0.00     0.017 A 
HETATM   13  C   UNK N   1      27.764  16.906   6.269  0.00  0.00     0.002 A 
HETATM   14  C   UNK N   1      28.313  18.166   6.056  0.00  0.00     0.002 A 
ENDROOT
BRANCH   2  15
HETATM   15  C   UNK N   1      23.973  15.860   4.827  0.00  0.00     0.131 C 
BRANCH  15  16
HETATM   16  C   UNK N   1      23.490  15.784   6.274  0.00  0.00     0.050 C 
BRANCH  16  17
HETATM   17  C   UNK N   1      22.159  15.048   6.309  0.00  0.00     0.274 C 
BRANCH  17  18
HETATM   18  N   UNK N   1      22.187  13.791   7.064  0.00  0.00     0.091 N 
HETATM   19  C   UNK N   1      21.281  13.844   8.225  0.00  0.00     0.302 C 
HETATM   20  C   UNK N   1      21.487  12.649   9.139  0.00  0.00     0.302 C 
HETATM   21  N   UNK N   1      22.860  12.674   9.622  0.00  0.00     0.093 N 
HETATM   22  C   UNK N   1      23.735  12.484   8.466  0.00  0.00     0.302 C 
HETATM   23  C   UNK N   1      23.574  13.669   7.519  0.00  0.00     0.302 C 
BRANCH  21  24
HETATM   24  C   UNK N   1      23.018  11.551  10.534  0.00  0.00     0.298 C 
BRANCH  24  25
HETATM   25  C   UNK N   1      23.552  12.019  11.877  0.00  0.00     0.194 C 
BRANCH  25  26
HETATM   26  O   UNK N   1      24.917  12.287  11.771  0.00  0.00    -0.399 OA
HETATM   27  H   UNK N   1      25.604  11.869  12.313  0.00  0.00     0.209 HD
ENDBRANCH  25  26
ENDBRANCH  24  25
ENDBRANCH  21  24
ENDBRANCH  17  18
ENDBRANCH  16  17
ENDBRANCH  15  16
ENDBRANCH   2  15
BRANCH   9  28
HETATM   28  C   UNK N   1      19.883  18.081   2.965  0.00  0.00     0.417 C 
HETATM   29  F   UNK N   1      19.807  17.358   1.786  0.00  0.00    -0.166 F 
HETATM   30  F   UNK N   1      19.497  17.263   4.013  0.00  0.00    -0.166 F 
HETATM   31  F   UNK N   1      19.015  19.155   2.889  0.00  0.00    -0.166 F 
ENDBRANCH   9  28
TORSDOF 8
ENDMDL
MODEL 8
REMARK VINA RESULT:      -6.6     12.035     13.981
REMARK  8 active torsions:
REMARK  status: ('A' for Active; 'I' for Inactive)
REMARK    1  A    between atoms: O_5  and  C_17 
REMARK    2  A    between atoms: N_6  and  C_13 
REMARK    3  A    between atoms: N_7  and  C_15 
REMARK    4  A    between atoms: N_8  and  C_16 
REMARK    5  A    between atoms: C_13  and  C_14 
REMARK    6  A    between atoms: C_14  and  C_16 
REMARK    7  A    between atoms: C_15  and  C_17 
REMARK    8  A    between atoms: C_24  and  C_30 
ROOT
HETATM    1  S   UNK N   1      26.139  24.936  -8.085  0.00  0.00    -0.086 SA
HETATM    2  N   UNK N   1      27.842  24.021  -5.539  0.00  0.00    -0.345 N 
HETATM    3  C   UNK N   1      27.858  23.177  -6.696  0.00  0.00     0.053 A 
HETATM    4  C   UNK N   1      26.978  25.153  -5.391  0.00  0.00     0.052 A 
HETATM    5  C   UNK N   1      27.109  23.455  -7.859  0.00  0.00     0.032 A 
HETATM    6  C   UNK N   1      26.149  25.622  -6.435  0.00  0.00     0.032 A 
HETATM    7  C   UNK N   1      28.613  21.992  -6.657  0.00  0.00     0.047 A 
HETATM    8  C   UNK N   1      26.914  25.808  -4.143  0.00  0.00     0.031 A 
HETATM    9  C   UNK N   1      28.616  21.081  -7.704  0.00  0.00     0.050 A 
HETATM   10  C   UNK N   1      27.126  22.543  -8.924  0.00  0.00     0.022 A 
HETATM   11  C   UNK N   1      25.289  26.704  -6.203  0.00  0.00     0.021 A 
HETATM   12  C   UNK N   1      27.862  21.357  -8.847  0.00  0.00     0.017 A 
HETATM   13  C   UNK N   1      26.054  26.882  -3.926  0.00  0.00     0.002 A 
HETATM   14  C   UNK N   1      25.234  27.327  -4.958  0.00  0.00     0.002 A 
ENDROOT
BRANCH   2  15
HETATM   15  C   UNK N   1      28.641  23.620  -4.392  0.00  0.00     0.131 C 
BRANCH  15  16
HETATM   16  C   UNK N   1      30.076  24.120  -4.546  0.00  0.00     0.050 C 
BRANCH  16  17
HETATM   17  C   UNK N   1      30.922  23.531  -3.428  0.00  0.00     0.274 C 
BRANCH  17  18
HETATM   18  N   UNK N   1      32.134  22.844  -3.888  0.00  0.00     0.091 N 
HETATM   19  C   UNK N   1      31.981  22.356  -5.270  0.00  0.00     0.302 C 
HETATM   20  C   UNK N   1      33.128  21.440  -5.661  0.00  0.00     0.302 C 
HETATM   21  N   UNK N   1      33.126  20.295  -4.763  0.00  0.00     0.093 N 
HETATM   22  C   UNK N   1      33.414  20.791  -3.419  0.00  0.00     0.302 C 
HETATM   23  C   UNK N   1      32.281  21.710  -2.972  0.00  0.00     0.302 C 
BRANCH  21  24
HETATM   24  C   UNK N   1      34.199  19.410  -5.189  0.00  0.00     0.298 C 
BRANCH  24  25
HETATM   25  C   UNK N   1      34.322  18.222  -4.250  0.00  0.00     0.194 C 
BRANCH  25  26
HETATM   26  O   UNK N   1      35.642  17.770  -4.237  0.00  0.00    -0.399 OA
HETATM   27  H   UNK N   1      36.366  18.194  -3.750  0.00  0.00     0.209 HD
ENDBRANCH  25  26
ENDBRANCH  24  25
ENDBRANCH  21  24
ENDBRANCH  17  18
ENDBRANCH  16  17
ENDBRANCH  15  16
ENDBRANCH   2  15
BRANCH   9  28
HETATM   28  C   UNK N   1      29.402  19.811  -7.561  0.00  0.00     0.417 C 
HETATM   29  F   UNK N   1      30.141  19.862  -6.390  0.00  0.00    -0.166 F 
HETATM   30  F   UNK N   1      28.568  18.708  -7.512  0.00  0.00    -0.166 F 
HETATM   31  F   UNK N   1      30.266  19.676  -8.632  0.00  0.00    -0.166 F 
ENDBRANCH   9  28
TORSDOF 8
ENDMDL
MODEL 9
REMARK VINA RESULT:      -6.5      8.040     12.196
REMARK  8 active torsions:
REMARK  status: ('A' for Active; 'I' for Inactive)
REMARK    1  A    between atoms: O_5  and  C_17 
REMARK    2  A    between atoms: N_6  and  C_13 
REMARK    3  A    between atoms: N_7  and  C_15 
REMARK    4  A    between atoms: N_8  and  C_16 
REMARK    5  A    between atoms: C_13  and  C_14 
REMARK    6  A    between atoms: C_14  and  C_16 
REMARK    7  A    between atoms: C_15  and  C_17 
REMARK    8  A    between atoms: C_24  and  C_30 
ROOT
HETATM    1  S   UNK N   1      37.353   8.397  14.205  0.00  0.00    -0.086 SA
HETATM    2  N   UNK N   1      36.204  11.076  12.893  0.00  0.00    -0.345 N 
HETATM    3  C   UNK N   1      36.240  10.990  14.322  0.00  0.00     0.053 A 
HETATM    4  C   UNK N   1      36.487   9.975  12.022  0.00  0.00     0.052 A 
HETATM    5  C   UNK N   1      36.681   9.841  15.011  0.00  0.00     0.032 A 
HETATM    6  C   UNK N   1      36.958   8.730  12.494  0.00  0.00     0.032 A 
HETATM    7  C   UNK N   1      35.767  12.078  15.075  0.00  0.00     0.047 A 
HETATM    8  C   UNK N   1      36.249  10.117  10.638  0.00  0.00     0.031 A 
HETATM    9  C   UNK N   1      35.692  12.043  16.461  0.00  0.00     0.050 A 
HETATM   10  C   UNK N   1      36.621   9.812  16.412  0.00  0.00     0.022 A 
HETATM   11  C   UNK N   1      37.165   7.679  11.590  0.00  0.00     0.021 A 
HETATM   12  C   UNK N   1      36.119  10.897  17.135  0.00  0.00     0.017 A 
HETATM   13  C   UNK N   1      36.458   9.064   9.751  0.00  0.00     0.002 A 
HETATM   14  C   UNK N   1      36.911   7.840  10.229  0.00  0.00     0.002 A 
ENDROOT
BRANCH   2  15
HETATM   15  C   UNK N   1      35.710  12.306  12.296  0.00  0.00     0.131 C 
BRANCH  15  16
HETATM   16  C   UNK N   1      36.803  13.373  12.301  0.00  0.00     0.050 C 
BRANCH  16  17
HETATM   17  C   UNK N   1      37.337  13.535  10.886  0.00  0.00     0.274 C 
BRANCH  17  18
HETATM   18  N   UNK N   1      36.797  14.695  10.169  0.00  0.00     0.091 N 
HETATM   19  C   UNK N   1      36.092  15.611  11.084  0.00  0.00     0.302 C 
HETATM   20  C   UNK N   1      35.329  16.677  10.317  0.00  0.00     0.302 C 
HETATM   21  N   UNK N   1      34.344  16.017   9.473  0.00  0.00     0.093 N 
HETATM   22  C   UNK N   1      35.073  15.220   8.488  0.00  0.00     0.302 C 
HETATM   23  C   UNK N   1      35.850  14.122   9.208  0.00  0.00     0.302 C 
BRANCH  21  24
HETATM   24  C   UNK N   1      33.594  17.058   8.789  0.00  0.00     0.298 C 
BRANCH  24  25
HETATM   25  C   UNK N   1      34.520  18.162   8.307  0.00  0.00     0.194 C 
BRANCH  25  26
HETATM   26  O   UNK N   1      34.482  18.231   6.915  0.00  0.00    -0.399 OA
HETATM   27  H   UNK N   1      34.871  17.571   6.319  0.00  0.00     0.209 HD
ENDBRANCH  25  26
ENDBRANCH  24  25
ENDBRANCH  21  24
ENDBRANCH  17  18
ENDBRANCH  16  17
ENDBRANCH  15  16
ENDBRANCH   2  15
BRANCH   9  28
HETATM   28  C   UNK N   1      35.120  13.224  17.188  0.00  0.00     0.417 C 
HETATM   29  F   UNK N   1      34.953  12.900  18.525  0.00  0.00    -0.166 F 
HETATM   30  F   UNK N   1      35.958  14.322  17.099  0.00  0.00    -0.166 F 
HETATM   31  F   UNK N   1      33.889  13.551  16.649  0.00  0.00    -0.166 F 
ENDBRANCH   9  28
TORSDOF 8
ENDMDL
