REMARK  1 active torsions:
REMARK  status: ('A' for Active; 'I' for Inactive)
REMARK    1  A    between atoms: C_10  and  O_1 
ROOT
HETATM    1  O   UNK N   1      -0.005  -3.547   0.473  0.00  0.00    -0.293 OA
HETATM    2  C   UNK N   1       6.931  -0.071  -0.307  0.00  0.00     0.001 C 
HETATM    3  C   UNK N   1       6.825   1.270   0.408  0.00  0.00    -0.014 C 
HETATM    4  C   UNK N   1       5.730  -0.975   0.010  0.00  0.00    -0.004 C 
HETATM    5  C   UNK N   1       4.409  -0.258  -0.384  0.00  0.00     0.002 C 
HETATM    6  C   UNK N   1       3.203  -1.092   0.129  0.00  0.00    -0.016 C 
HETATM    7  C   UNK N   1       5.601   2.018  -0.123  0.00  0.00     0.012 C 
HETATM    8  C   UNK N   1       4.335   1.192   0.164  0.00  0.00     0.007 C 
HETATM    9  C   UNK N   1       8.185   1.892   0.111  0.00  0.00     0.126 C 
HETATM   10  C   UNK N   1       8.300  -0.578   0.118  0.00  0.00     0.008 C 
HETATM   11  C   UNK N   1       5.824  -2.274  -0.790  0.00  0.00     0.010 C 
HETATM   12  C   UNK N   1       9.145   0.700   0.264  0.00  0.00     0.033 C 
HETATM   13  C   UNK N   1       3.316  -2.565  -0.255  0.00  0.00    -0.068 C 
HETATM   14  C   UNK N   1       4.637  -3.219  -0.586  0.00  0.00     0.035 C 
HETATM   15  C   UNK N   1       6.704   1.133   1.936  0.00  0.00     0.018 C 
HETATM   16  C   UNK N   1       1.883  -0.536  -0.431  0.00  0.00     0.022 C 
HETATM   17  C   UNK N   1       3.145  -1.019   1.662  0.00  0.00     0.020 C 
HETATM   18  C   UNK N   1       0.663  -1.311   0.101  0.00  0.00     0.084 C 
HETATM   19  C   UNK N   1       2.239  -3.360  -0.149  0.00  0.00     0.053 C 
HETATM   20  C   UNK N   1       0.908  -2.798   0.166  0.00  0.00     0.149 C 
ENDROOT
BRANCH   9  21
HETATM   21  O   UNK N   1       8.251   2.344  -1.211  0.00  0.00    -0.395 OA
HETATM   22  H   UNK N   1       8.546   2.460  -2.128  0.00  0.00     0.210 HD
ENDBRANCH   9  21
TORSDOF 1
