MODEL 1
REMARK VINA RESULT:      -7.4      0.000      0.000
REMARK  1 active torsions:
REMARK  status: ('A' for Active; 'I' for Inactive)
REMARK    1  A    between atoms: C_10  and  O_1 
ROOT
HETATM    1  O   UNK N   1      26.199  20.866 -10.434  0.00  0.00    -0.293 OA
HETATM    2  C   UNK N   1      26.317  26.974  -5.589  0.00  0.00     0.001 C 
HETATM    3  C   UNK N   1      26.952  26.485  -4.293  0.00  0.00    -0.014 C 
HETATM    4  C   UNK N   1      26.489  25.951  -6.721  0.00  0.00    -0.004 C 
HETATM    5  C   UNK N   1      25.873  24.587  -6.301  0.00  0.00     0.002 C 
HETATM    6  C   UNK N   1      26.235  23.514  -7.365  0.00  0.00    -0.016 C 
HETATM    7  C   UNK N   1      26.214  25.231  -3.823  0.00  0.00     0.012 C 
HETATM    8  C   UNK N   1      26.343  24.133  -4.894  0.00  0.00     0.007 C 
HETATM    9  C   UNK N   1      26.835  27.718  -3.403  0.00  0.00     0.126 C 
HETATM   10  C   UNK N   1      26.962  28.336  -5.793  0.00  0.00     0.008 C 
HETATM   11  C   UNK N   1      25.767  26.432  -7.979  0.00  0.00     0.010 C 
HETATM   12  C   UNK N   1      27.179  28.867  -4.365  0.00  0.00     0.033 C 
HETATM   13  C   UNK N   1      25.933  23.986  -8.785  0.00  0.00    -0.068 C 
HETATM   14  C   UNK N   1      25.831  25.448  -9.150  0.00  0.00     0.035 C 
HETATM   15  C   UNK N   1      28.449  26.161  -4.438  0.00  0.00     0.018 C 
HETATM   16  C   UNK N   1      25.462  22.211  -7.103  0.00  0.00     0.022 C 
HETATM   17  C   UNK N   1      27.738  23.206  -7.291  0.00  0.00     0.020 C 
HETATM   18  C   UNK N   1      25.838  21.109  -8.112  0.00  0.00     0.084 C 
HETATM   19  C   UNK N   1      25.911  23.092  -9.787  0.00  0.00     0.053 C 
HETATM   20  C   UNK N   1      26.000  21.642  -9.513  0.00  0.00     0.149 C 
ENDROOT
BRANCH   9  21
HETATM   21  O   UNK N   1      25.520  27.893  -2.960  0.00  0.00    -0.395 OA
HETATM   22  H   UNK N   1      24.579  28.129  -2.947  0.00  0.00     0.210 HD
ENDBRANCH   9  21
TORSDOF 1
ENDMDL
MODEL 2
REMARK VINA RESULT:      -7.2     25.872     27.974
REMARK  1 active torsions:
REMARK  status: ('A' for Active; 'I' for Inactive)
REMARK    1  A    between atoms: C_10  and  O_1 
ROOT
HETATM    1  O   UNK N   1      34.651   9.615  20.497  0.00  0.00    -0.293 OA
HETATM    2  C   UNK N   1      36.472  13.114  13.771  0.00  0.00     0.001 C 
HETATM    3  C   UNK N   1      36.530  12.017  12.715  0.00  0.00    -0.014 C 
HETATM    4  C   UNK N   1      35.849  12.604  15.080  0.00  0.00    -0.004 C 
HETATM    5  C   UNK N   1      36.656  11.387  15.611  0.00  0.00     0.002 C 
HETATM    6  C   UNK N   1      35.900  10.759  16.814  0.00  0.00    -0.016 C 
HETATM    7  C   UNK N   1      37.462  10.908  13.205  0.00  0.00     0.012 C 
HETATM    8  C   UNK N   1      36.910  10.319  14.515  0.00  0.00     0.007 C 
HETATM    9  C   UNK N   1      36.982  12.792  11.483  0.00  0.00     0.126 C 
HETATM   10  C   UNK N   1      35.738  14.238  13.057  0.00  0.00     0.008 C 
HETATM   11  C   UNK N   1      35.887  13.702  16.143  0.00  0.00     0.010 C 
HETATM   12  C   UNK N   1      36.177  14.098  11.588  0.00  0.00     0.033 C 
HETATM   13  C   UNK N   1      35.490  11.805  17.847  0.00  0.00    -0.068 C 
HETATM   14  C   UNK N   1      35.340  13.269  17.506  0.00  0.00     0.035 C 
HETATM   15  C   UNK N   1      35.152  11.409  12.399  0.00  0.00     0.018 C 
HETATM   16  C   UNK N   1      36.770   9.696  17.506  0.00  0.00     0.022 C 
HETATM   17  C   UNK N   1      34.617  10.079  16.313  0.00  0.00     0.020 C 
HETATM   18  C   UNK N   1      36.028   9.018  18.672  0.00  0.00     0.084 C 
HETATM   19  C   UNK N   1      35.094  11.409  19.067  0.00  0.00     0.053 C 
HETATM   20  C   UNK N   1      35.212   9.994  19.482  0.00  0.00     0.149 C 
ENDROOT
BRANCH   9  21
HETATM   21  O   UNK N   1      38.342  13.105  11.559  0.00  0.00    -0.395 OA
HETATM   22  H   UNK N   1      39.308  13.011  11.551  0.00  0.00     0.210 HD
ENDBRANCH   9  21
TORSDOF 1
ENDMDL
MODEL 3
REMARK VINA RESULT:      -7.0     17.536     19.152
REMARK  1 active torsions:
REMARK  status: ('A' for Active; 'I' for Inactive)
REMARK    1  A    between atoms: C_10  and  O_1 
ROOT
HETATM    1  O   UNK N   1      32.677  16.867   2.542  0.00  0.00    -0.293 OA
HETATM    2  C   UNK N   1      34.599  15.595   9.991  0.00  0.00     0.001 C 
HETATM    3  C   UNK N   1      35.234  14.212  10.043  0.00  0.00    -0.014 C 
HETATM    4  C   UNK N   1      34.432  16.085   8.544  0.00  0.00    -0.004 C 
HETATM    5  C   UNK N   1      33.576  15.069   7.737  0.00  0.00     0.002 C 
HETATM    6  C   UNK N   1      33.590  15.469   6.237  0.00  0.00    -0.016 C 
HETATM    7  C   UNK N   1      34.288  13.208   9.381  0.00  0.00     0.012 C 
HETATM    8  C   UNK N   1      34.070  13.608   7.911  0.00  0.00     0.007 C 
HETATM    9  C   UNK N   1      35.477  14.034  11.538  0.00  0.00     0.126 C 
HETATM   10  C   UNK N   1      35.503  16.421  10.892  0.00  0.00     0.008 C 
HETATM   11  C   UNK N   1      33.714  17.434   8.525  0.00  0.00     0.010 C 
HETATM   12  C   UNK N   1      35.968  15.426  11.970  0.00  0.00     0.033 C 
HETATM   13  C   UNK N   1      33.262  16.946   6.031  0.00  0.00    -0.068 C 
HETATM   14  C   UNK N   1      33.447  17.978   7.119  0.00  0.00     0.035 C 
HETATM   15  C   UNK N   1      36.603  14.148   9.343  0.00  0.00     0.018 C 
HETATM   16  C   UNK N   1      32.579  14.625   5.442  0.00  0.00     0.022 C 
HETATM   17  C   UNK N   1      34.989  15.222   5.653  0.00  0.00     0.020 C 
HETATM   18  C   UNK N   1      32.605  14.963   3.940  0.00  0.00     0.084 C 
HETATM   19  C   UNK N   1      32.948  17.389   4.803  0.00  0.00     0.053 C 
HETATM   20  C   UNK N   1      32.744  16.443   3.684  0.00  0.00     0.149 C 
ENDROOT
BRANCH   9  21
HETATM   21  O   UNK N   1      34.281  13.761  12.210  0.00  0.00    -0.395 OA
HETATM   22  H   UNK N   1      33.570  13.795  12.870  0.00  0.00     0.210 HD
ENDBRANCH   9  21
TORSDOF 1
ENDMDL
MODEL 4
REMARK VINA RESULT:      -6.9      4.181      6.559
REMARK  1 active torsions:
REMARK  status: ('A' for Active; 'I' for Inactive)
REMARK    1  A    between atoms: C_10  and  O_1 
ROOT
HETATM    1  O   UNK N   1      24.923  26.209  -5.614  0.00  0.00    -0.293 OA
HETATM    2  C   UNK N   1      30.926  21.629  -3.668  0.00  0.00     0.001 C 
HETATM    3  C   UNK N   1      31.717  21.388  -4.948  0.00  0.00    -0.014 C 
HETATM    4  C   UNK N   1      29.882  22.740  -3.853  0.00  0.00    -0.004 C 
HETATM    5  C   UNK N   1      28.921  22.376  -5.020  0.00  0.00     0.002 C 
HETATM    6  C   UNK N   1      28.007  23.594  -5.327  0.00  0.00    -0.016 C 
HETATM    7  C   UNK N   1      30.765  20.875  -6.029  0.00  0.00     0.012 C 
HETATM    8  C   UNK N   1      29.682  21.935  -6.298  0.00  0.00     0.007 C 
HETATM    9  C   UNK N   1      32.793  20.417  -4.472  0.00  0.00     0.126 C 
HETATM   10  C   UNK N   1      32.013  21.877  -2.635  0.00  0.00     0.008 C 
HETATM   11  C   UNK N   1      29.048  22.896  -2.581  0.00  0.00     0.010 C 
HETATM   12  C   UNK N   1      33.180  20.986  -3.096  0.00  0.00     0.033 C 
HETATM   13  C   UNK N   1      27.359  24.161  -4.067  0.00  0.00    -0.068 C 
HETATM   14  C   UNK N   1      27.937  23.943  -2.688  0.00  0.00     0.035 C 
HETATM   15  C   UNK N   1      32.430  22.649  -5.465  0.00  0.00     0.018 C 
HETATM   16  C   UNK N   1      26.899  23.201  -6.319  0.00  0.00     0.022 C 
HETATM   17  C   UNK N   1      28.844  24.715  -5.960  0.00  0.00     0.020 C 
HETATM   18  C   UNK N   1      26.005  24.401  -6.684  0.00  0.00     0.084 C 
HETATM   19  C   UNK N   1      26.329  25.014  -4.181  0.00  0.00     0.053 C 
HETATM   20  C   UNK N   1      25.702  25.278  -5.494  0.00  0.00     0.149 C 
ENDROOT
BRANCH   9  21
HETATM   21  O   UNK N   1      32.265  19.136  -4.286  0.00  0.00    -0.395 OA
HETATM   22  H   UNK N   1      31.811  18.296  -4.460  0.00  0.00     0.210 HD
ENDBRANCH   9  21
TORSDOF 1
ENDMDL
MODEL 5
REMARK VINA RESULT:      -6.9      5.169      6.634
REMARK  1 active torsions:
REMARK  status: ('A' for Active; 'I' for Inactive)
REMARK    1  A    between atoms: C_10  and  O_1 
ROOT
HETATM    1  O   UNK N   1      35.637  19.536  -5.470  0.00  0.00    -0.293 OA
HETATM    2  C   UNK N   1      28.675  22.971  -4.740  0.00  0.00     0.001 C 
HETATM    3  C   UNK N   1      28.865  24.130  -3.770  0.00  0.00    -0.014 C 
HETATM    4  C   UNK N   1      30.023  22.386  -5.189  0.00  0.00    -0.004 C 
HETATM    5  C   UNK N   1      30.838  21.922  -3.950  0.00  0.00     0.002 C 
HETATM    6  C   UNK N   1      32.271  21.527  -4.401  0.00  0.00    -0.016 C 
HETATM    7  C   UNK N   1      29.525  23.603  -2.495  0.00  0.00     0.012 C 
HETATM    8  C   UNK N   1      30.900  23.006  -2.842  0.00  0.00     0.007 C 
HETATM    9  C   UNK N   1      27.441  24.658  -3.631  0.00  0.00     0.126 C 
HETATM   10  C   UNK N   1      27.795  23.573  -5.825  0.00  0.00     0.008 C 
HETATM   11  C   UNK N   1      29.795  21.172  -6.091  0.00  0.00     0.010 C 
HETATM   12  C   UNK N   1      26.907  24.579  -5.072  0.00  0.00     0.033 C 
HETATM   13  C   UNK N   1      32.258  20.579  -5.598  0.00  0.00    -0.068 C 
HETATM   14  C   UNK N   1      31.084  20.482  -6.544  0.00  0.00     0.035 C 
HETATM   15  C   UNK N   1      29.726  25.267  -4.347  0.00  0.00     0.018 C 
HETATM   16  C   UNK N   1      33.035  20.855  -3.248  0.00  0.00     0.022 C 
HETATM   17  C   UNK N   1      33.042  22.787  -4.820  0.00  0.00     0.020 C 
HETATM   18  C   UNK N   1      34.479  20.497  -3.648  0.00  0.00     0.084 C 
HETATM   19  C   UNK N   1      33.378  19.917  -5.928  0.00  0.00     0.053 C 
HETATM   20  C   UNK N   1      34.570  19.956  -5.053  0.00  0.00     0.149 C 
ENDROOT
BRANCH   9  21
HETATM   21  O   UNK N   1      26.669  23.813  -2.828  0.00  0.00    -0.395 OA
HETATM   22  H   UNK N   1      26.172  23.470  -2.069  0.00  0.00     0.210 HD
ENDBRANCH   9  21
TORSDOF 1
ENDMDL
MODEL 6
REMARK VINA RESULT:      -6.8      2.008      2.953
REMARK  1 active torsions:
REMARK  status: ('A' for Active; 'I' for Inactive)
REMARK    1  A    between atoms: C_10  and  O_1 
ROOT
HETATM    1  O   UNK N   1      30.091  19.648  -8.490  0.00  0.00    -0.293 OA
HETATM    2  C   UNK N   1      26.194  25.506  -5.130  0.00  0.00     0.001 C 
HETATM    3  C   UNK N   1      27.242  26.498  -4.640  0.00  0.00    -0.014 C 
HETATM    4  C   UNK N   1      26.810  24.447  -6.056  0.00  0.00    -0.004 C 
HETATM    5  C   UNK N   1      27.955  23.699  -5.318  0.00  0.00     0.002 C 
HETATM    6  C   UNK N   1      28.699  22.782  -6.327  0.00  0.00    -0.016 C 
HETATM    7  C   UNK N   1      28.266  25.752  -3.782  0.00  0.00     0.012 C 
HETATM    8  C   UNK N   1      28.953  24.671  -4.634  0.00  0.00     0.007 C 
HETATM    9  C   UNK N   1      26.383  27.536  -3.927  0.00  0.00     0.126 C 
HETATM   10  C   UNK N   1      25.127  26.406  -5.733  0.00  0.00     0.008 C 
HETATM   11  C   UNK N   1      25.751  23.420  -6.458  0.00  0.00     0.010 C 
HETATM   12  C   UNK N   1      25.170  27.675  -4.863  0.00  0.00     0.033 C 
HETATM   13  C   UNK N   1      27.737  21.918  -7.138  0.00  0.00    -0.068 C 
HETATM   14  C   UNK N   1      26.285  22.286  -7.337  0.00  0.00     0.035 C 
HETATM   15  C   UNK N   1      27.977  27.216  -5.786  0.00  0.00     0.018 C 
HETATM   16  C   UNK N   1      29.689  21.862  -5.594  0.00  0.00     0.022 C 
HETATM   17  C   UNK N   1      29.489  23.647  -7.320  0.00  0.00     0.020 C 
HETATM   18  C   UNK N   1      30.481  20.975  -6.574  0.00  0.00     0.084 C 
HETATM   19  C   UNK N   1      28.213  20.875  -7.836  0.00  0.00     0.053 C 
HETATM   20  C   UNK N   1      29.622  20.446  -7.695  0.00  0.00     0.149 C 
ENDROOT
BRANCH   9  21
HETATM   21  O   UNK N   1      25.934  27.052  -2.693  0.00  0.00    -0.395 OA
HETATM   22  H   UNK N   1      25.920  26.605  -1.832  0.00  0.00     0.210 HD
ENDBRANCH   9  21
TORSDOF 1
ENDMDL
MODEL 7
REMARK VINA RESULT:      -6.7     16.965     18.633
REMARK  1 active torsions:
REMARK  status: ('A' for Active; 'I' for Inactive)
REMARK    1  A    between atoms: C_10  and  O_1 
ROOT
HETATM    1  O   UNK N   1      31.268  16.436   2.322  0.00  0.00    -0.293 OA
HETATM    2  C   UNK N   1      35.650  14.874   8.580  0.00  0.00     0.001 C 
HETATM    3  C   UNK N   1      34.976  15.561   9.761  0.00  0.00    -0.014 C 
HETATM    4  C   UNK N   1      34.742  14.865   7.341  0.00  0.00    -0.004 C 
HETATM    5  C   UNK N   1      34.347  16.320   6.963  0.00  0.00     0.002 C 
HETATM    6  C   UNK N   1      33.271  16.283   5.843  0.00  0.00    -0.016 C 
HETATM    7  C   UNK N   1      34.749  17.033   9.412  0.00  0.00     0.012 C 
HETATM    8  C   UNK N   1      33.830  17.129   8.182  0.00  0.00     0.007 C 
HETATM    9  C   UNK N   1      35.957  15.272  10.892  0.00  0.00     0.126 C 
HETATM   10  C   UNK N   1      36.042  13.520   9.150  0.00  0.00     0.008 C 
HETATM   11  C   UNK N   1      35.479  14.248   6.152  0.00  0.00     0.010 C 
HETATM   12  C   UNK N   1      36.363  13.813  10.626  0.00  0.00     0.033 C 
HETATM   13  C   UNK N   1      33.672  15.368   4.689  0.00  0.00    -0.068 C 
HETATM   14  C   UNK N   1      34.674  14.249   4.850  0.00  0.00     0.035 C 
HETATM   15  C   UNK N   1      33.629  14.924  10.144  0.00  0.00     0.018 C 
HETATM   16  C   UNK N   1      33.018  17.695   5.288  0.00  0.00     0.022 C 
HETATM   17  C   UNK N   1      31.951  15.748   6.419  0.00  0.00     0.020 C 
HETATM   18  C   UNK N   1      31.918  17.699   4.211  0.00  0.00     0.084 C 
HETATM   19  C   UNK N   1      33.007  15.443   3.525  0.00  0.00     0.053 C 
HETATM   20  C   UNK N   1      32.013  16.511   3.285  0.00  0.00     0.149 C 
ENDROOT
BRANCH   9  21
HETATM   21  O   UNK N   1      37.098  16.074  10.783  0.00  0.00    -0.395 OA
HETATM   22  H   UNK N   1      37.964  16.468  10.970  0.00  0.00     0.210 HD
ENDBRANCH   9  21
TORSDOF 1
ENDMDL
MODEL 8
REMARK VINA RESULT:      -6.5     14.554     16.379
REMARK  1 active torsions:
REMARK  status: ('A' for Active; 'I' for Inactive)
REMARK    1  A    between atoms: C_10  and  O_1 
ROOT
HETATM    1  O   UNK N   1      25.317  16.186   4.142  0.00  0.00    -0.293 OA
HETATM    2  C   UNK N   1      32.247  17.000   7.621  0.00  0.00     0.001 C 
HETATM    3  C   UNK N   1      33.291  16.509   6.625  0.00  0.00    -0.014 C 
HETATM    4  C   UNK N   1      30.869  17.158   6.961  0.00  0.00    -0.004 C 
HETATM    5  C   UNK N   1      30.423  15.807   6.336  0.00  0.00     0.002 C 
HETATM    6  C   UNK N   1      29.134  16.032   5.500  0.00  0.00    -0.016 C 
HETATM    7  C   UNK N   1      32.903  15.107   6.154  0.00  0.00     0.012 C 
HETATM    8  C   UNK N   1      31.531  15.165   5.459  0.00  0.00     0.007 C 
HETATM    9  C   UNK N   1      34.576  16.623   7.437  0.00  0.00     0.126 C 
HETATM   10  C   UNK N   1      32.882  18.260   8.189  0.00  0.00     0.008 C 
HETATM   11  C   UNK N   1      29.830  17.567   8.004  0.00  0.00     0.010 C 
HETATM   12  C   UNK N   1      34.391  17.955   8.184  0.00  0.00     0.033 C 
HETATM   13  C   UNK N   1      28.071  16.804   6.277  0.00  0.00    -0.068 C 
HETATM   14  C   UNK N   1      28.408  17.692   7.452  0.00  0.00     0.035 C 
HETATM   15  C   UNK N   1      33.437  17.428   5.399  0.00  0.00     0.018 C 
HETATM   16  C   UNK N   1      28.538  14.687   5.051  0.00  0.00     0.022 C 
HETATM   17  C   UNK N   1      29.473  16.851   4.246  0.00  0.00     0.020 C 
HETATM   18  C   UNK N   1      27.285  14.879   4.176  0.00  0.00     0.084 C 
HETATM   19  C   UNK N   1      26.808  16.831   5.820  0.00  0.00     0.053 C 
HETATM   20  C   UNK N   1      26.395  15.988   4.678  0.00  0.00     0.149 C 
ENDROOT
BRANCH   9  21
HETATM   21  O   UNK N   1      34.664  15.596   8.383  0.00  0.00    -0.395 OA
HETATM   22  H   UNK N   1      34.745  15.135   9.233  0.00  0.00     0.210 HD
ENDBRANCH   9  21
TORSDOF 1
ENDMDL
MODEL 9
REMARK VINA RESULT:      -6.4     11.662     13.839
REMARK  1 active torsions:
REMARK  status: ('A' for Active; 'I' for Inactive)
REMARK    1  A    between atoms: C_10  and  O_1 
ROOT
HETATM    1  O   UNK N   1      22.054  20.253   2.369  0.00  0.00    -0.293 OA
HETATM    2  C   UNK N   1      28.869  17.861   5.307  0.00  0.00     0.001 C 
HETATM    3  C   UNK N   1      28.702  16.383   5.638  0.00  0.00    -0.014 C 
HETATM    4  C   UNK N   1      27.697  18.385   4.464  0.00  0.00    -0.004 C 
HETATM    5  C   UNK N   1      26.357  18.150   5.214  0.00  0.00     0.002 C 
HETATM    6  C   UNK N   1      25.175  18.494   4.268  0.00  0.00    -0.016 C 
HETATM    7  C   UNK N   1      27.460  16.209   6.514  0.00  0.00     0.012 C 
HETATM    8  C   UNK N   1      26.221  16.697   5.743  0.00  0.00     0.007 C 
HETATM    9  C   UNK N   1      30.043  16.053   6.284  0.00  0.00     0.126 C 
HETATM   10  C   UNK N   1      30.249  17.915   4.671  0.00  0.00     0.008 C 
HETATM   11  C   UNK N   1      27.852  19.887   4.225  0.00  0.00     0.010 C 
HETATM   12  C   UNK N   1      31.044  16.819   5.403  0.00  0.00     0.033 C 
HETATM   13  C   UNK N   1      25.348  19.855   3.600  0.00  0.00    -0.068 C 
HETATM   14  C   UNK N   1      26.697  20.516   3.441  0.00  0.00     0.035 C 
HETATM   15  C   UNK N   1      28.562  15.496   4.388  0.00  0.00     0.018 C 
HETATM   16  C   UNK N   1      23.844  18.488   5.039  0.00  0.00     0.022 C 
HETATM   17  C   UNK N   1      25.089  17.442   3.152  0.00  0.00     0.020 C 
HETATM   18  C   UNK N   1      22.645  18.776   4.117  0.00  0.00     0.084 C 
HETATM   19  C   UNK N   1      24.299  20.430   2.989  0.00  0.00     0.053 C 
HETATM   20  C   UNK N   1      22.944  19.850   3.101  0.00  0.00     0.149 C 
ENDROOT
BRANCH   9  21
HETATM   21  O   UNK N   1      30.114  16.569   7.582  0.00  0.00    -0.395 OA
HETATM   22  H   UNK N   1      30.304  16.646   8.530  0.00  0.00     0.210 HD
ENDBRANCH   9  21
TORSDOF 1
ENDMDL
