MODEL 1
REMARK VINA RESULT:      -6.9      0.000      0.000
REMARK  3 active torsions:
REMARK  status: ('A' for Active; 'I' for Inactive)
REMARK    1  A    between atoms: C_8  and  C_12 
REMARK    2  A    between atoms: C_11  and  C_14 
REMARK    3  A    between atoms: C_11  and  C_16 
ROOT
HETATM    1 Cl   UNK N   1      28.435  16.154   6.171  0.00  0.00    -0.084 Cl
HETATM    2  O   UNK N   1      34.529  17.839   6.915  0.00  0.00    -0.265 OA
HETATM    3  O   UNK N   1      35.379  19.126   8.537  0.00  0.00    -0.238 OA
HETATM    4  N   UNK N   1      33.239  18.542   8.762  0.00  0.00    -0.302 N 
HETATM    5  C   UNK N   1      33.665  16.806   6.564  0.00  0.00     0.261 C 
HETATM    6  C   UNK N   1      32.260  17.066   7.094  0.00  0.00     0.027 A 
HETATM    7  C   UNK N   1      32.105  17.908   8.205  0.00  0.00     0.047 A 
HETATM    8  C   UNK N   1      31.120  16.504   6.491  0.00  0.00     0.037 A 
HETATM    9  C   UNK N   1      30.831  18.160   8.725  0.00  0.00     0.032 A 
HETATM   10  C   UNK N   1      34.421  18.513   8.097  0.00  0.00     0.367 C 
HETATM   11  C   UNK N   1      29.848  16.787   6.988  0.00  0.00     0.034 A 
HETATM   12  C   UNK N   1      29.703  17.604   8.113  0.00  0.00     0.026 A 
HETATM   13  H   UNK N   1      33.172  19.002   9.629  0.00  0.00     0.171 HD
ENDROOT
BRANCH   5  14
HETATM   14  C   UNK N   1      33.599  16.640   5.102  0.00  0.00    -0.053 C 
HETATM   15  C   UNK N   1      33.433  16.280   3.965  0.00  0.00    -0.098 C 
BRANCH  15  16
HETATM   16  C   UNK N   1      33.298  15.706   2.629  0.00  0.00     0.065 A 
HETATM   17  C   UNK N   1      32.744  14.300   2.776  0.00  0.00     0.018 A 
HETATM   18  C   UNK N   1      34.219  14.506   2.522  0.00  0.00     0.018 A 
ENDBRANCH  15  16
ENDBRANCH   5  14
BRANCH   5  19
HETATM   19  C   UNK N   1      34.243  15.496   7.141  0.00  0.00     0.435 C 
HETATM   20  F   UNK N   1      33.827  14.400   6.403  0.00  0.00    -0.166 F 
HETATM   21  F   UNK N   1      35.629  15.548   7.115  0.00  0.00    -0.166 F 
HETATM   22  F   UNK N   1      33.842  15.325   8.454  0.00  0.00    -0.166 F 
ENDBRANCH   5  19
TORSDOF 3
ENDMDL
MODEL 2
REMARK VINA RESULT:      -6.5     13.380     14.880
REMARK  3 active torsions:
REMARK  status: ('A' for Active; 'I' for Inactive)
REMARK    1  A    between atoms: C_8  and  C_12 
REMARK    2  A    between atoms: C_11  and  C_14 
REMARK    3  A    between atoms: C_11  and  C_16 
ROOT
HETATM    1 Cl   UNK N   1      28.141  21.336  -8.797  0.00  0.00    -0.084 Cl
HETATM    2  O   UNK N   1      28.998  23.799  -2.989  0.00  0.00    -0.265 OA
HETATM    3  O   UNK N   1      30.362  23.029  -1.390  0.00  0.00    -0.238 OA
HETATM    4  N   UNK N   1      30.532  22.051  -3.387  0.00  0.00    -0.302 N 
HETATM    5  C   UNK N   1      28.812  24.091  -4.337  0.00  0.00     0.261 C 
HETATM    6  C   UNK N   1      29.154  22.888  -5.209  0.00  0.00     0.027 A 
HETATM    7  C   UNK N   1      30.037  21.922  -4.705  0.00  0.00     0.047 A 
HETATM    8  C   UNK N   1      28.598  22.714  -6.488  0.00  0.00     0.037 A 
HETATM    9  C   UNK N   1      30.381  20.811  -5.481  0.00  0.00     0.032 A 
HETATM   10  C   UNK N   1      29.989  22.971  -2.550  0.00  0.00     0.367 C 
HETATM   11  C   UNK N   1      28.913  21.586  -7.246  0.00  0.00     0.034 A 
HETATM   12  C   UNK N   1      29.815  20.640  -6.749  0.00  0.00     0.026 A 
HETATM   13  H   UNK N   1      31.269  21.477  -3.077  0.00  0.00     0.171 HD
ENDROOT
BRANCH   5  14
HETATM   14  C   UNK N   1      27.422  24.496  -4.608  0.00  0.00    -0.053 C 
HETATM   15  C   UNK N   1      26.396  25.025  -4.952  0.00  0.00    -0.098 C 
BRANCH  15  16
HETATM   16  C   UNK N   1      25.211  25.800  -5.310  0.00  0.00     0.065 A 
HETATM   17  C   UNK N   1      25.546  26.628  -6.538  0.00  0.00     0.018 A 
HETATM   18  C   UNK N   1      25.539  27.275  -5.172  0.00  0.00     0.018 A 
ENDBRANCH  15  16
ENDBRANCH   5  14
BRANCH   5  19
HETATM   19  C   UNK N   1      29.709  25.300  -4.682  0.00  0.00     0.435 C 
HETATM   20  F   UNK N   1      31.007  24.898  -4.945  0.00  0.00    -0.166 F 
HETATM   21  F   UNK N   1      29.208  25.945  -5.804  0.00  0.00    -0.166 F 
HETATM   22  F   UNK N   1      29.727  26.206  -3.636  0.00  0.00    -0.166 F 
ENDBRANCH   5  19
TORSDOF 3
ENDMDL
MODEL 3
REMARK VINA RESULT:      -6.3      9.893     11.683
REMARK  3 active torsions:
REMARK  status: ('A' for Active; 'I' for Inactive)
REMARK    1  A    between atoms: C_8  and  C_12 
REMARK    2  A    between atoms: C_11  and  C_14 
REMARK    3  A    between atoms: C_11  and  C_16 
ROOT
HETATM    1 Cl   UNK N   1      37.562  15.702  16.063  0.00  0.00    -0.084 Cl
HETATM    2  O   UNK N   1      34.398  10.456  14.330  0.00  0.00    -0.265 OA
HETATM    3  O   UNK N   1      33.454  10.052  12.341  0.00  0.00    -0.238 OA
HETATM    4  N   UNK N   1      34.702  11.894  12.483  0.00  0.00    -0.302 N 
HETATM    5  C   UNK N   1      35.493  10.949  15.034  0.00  0.00     0.261 C 
HETATM    6  C   UNK N   1      35.843  12.362  14.580  0.00  0.00     0.027 A 
HETATM    7  C   UNK N   1      35.457  12.771  13.296  0.00  0.00     0.047 A 
HETATM    8  C   UNK N   1      36.521  13.266  15.417  0.00  0.00     0.037 A 
HETATM    9  C   UNK N   1      35.771  14.057  12.843  0.00  0.00     0.032 A 
HETATM   10  C   UNK N   1      34.171  10.768  13.021  0.00  0.00     0.367 C 
HETATM   11  C   UNK N   1      36.800  14.560  14.978  0.00  0.00     0.034 A 
HETATM   12  C   UNK N   1      36.437  14.952  13.686  0.00  0.00     0.026 A 
HETATM   13  H   UNK N   1      34.563  12.100  11.531  0.00  0.00     0.171 HD
ENDROOT
BRANCH   5  14
HETATM   14  C   UNK N   1      35.231  10.965  16.483  0.00  0.00    -0.053 C 
HETATM   15  C   UNK N   1      35.153  10.759  17.668  0.00  0.00    -0.098 C 
BRANCH  15  16
HETATM   16  C   UNK N   1      35.014  10.364  19.066  0.00  0.00     0.065 A 
HETATM   17  C   UNK N   1      35.299  11.581  19.928  0.00  0.00     0.018 A 
HETATM   18  C   UNK N   1      36.359  10.519  19.749  0.00  0.00     0.018 A 
ENDBRANCH  15  16
ENDBRANCH   5  14
BRANCH   5  19
HETATM   19  C   UNK N   1      36.674   9.982  14.800  0.00  0.00     0.435 C 
HETATM   20  F   UNK N   1      37.358  10.303  13.640  0.00  0.00    -0.166 F 
HETATM   21  F   UNK N   1      37.556  10.058  15.869  0.00  0.00    -0.166 F 
HETATM   22  F   UNK N   1      36.223   8.678  14.704  0.00  0.00    -0.166 F 
ENDBRANCH   5  19
TORSDOF 3
ENDMDL
MODEL 4
REMARK VINA RESULT:      -6.1     15.447     16.626
REMARK  3 active torsions:
REMARK  status: ('A' for Active; 'I' for Inactive)
REMARK    1  A    between atoms: C_8  and  C_12 
REMARK    2  A    between atoms: C_11  and  C_14 
REMARK    3  A    between atoms: C_11  and  C_16 
ROOT
HETATM    1 Cl   UNK N   1      30.372  27.139  -8.899  0.00  0.00    -0.084 Cl
HETATM    2  O   UNK N   1      26.634  26.245  -3.823  0.00  0.00    -0.265 OA
HETATM    3  O   UNK N   1      25.438  27.800  -2.744  0.00  0.00    -0.238 OA
HETATM    4  N   UNK N   1      26.417  28.449  -4.639  0.00  0.00    -0.302 N 
HETATM    5  C   UNK N   1      27.051  25.717  -5.041  0.00  0.00     0.261 C 
HETATM    6  C   UNK N   1      27.658  26.799  -5.926  0.00  0.00     0.027 A 
HETATM    7  C   UNK N   1      27.288  28.133  -5.708  0.00  0.00     0.047 A 
HETATM    8  C   UNK N   1      28.590  26.498  -6.937  0.00  0.00     0.037 A 
HETATM    9  C   UNK N   1      27.818  29.151  -6.508  0.00  0.00     0.032 A 
HETATM   10  C   UNK N   1      26.125  27.506  -3.708  0.00  0.00     0.367 C 
HETATM   11  C   UNK N   1      29.146  27.518  -7.708  0.00  0.00     0.034 A 
HETATM   12  C   UNK N   1      28.751  28.844  -7.504  0.00  0.00     0.026 A 
HETATM   13  H   UNK N   1      26.024  29.348  -4.571  0.00  0.00     0.171 HD
ENDROOT
BRANCH   5  14
HETATM   14  C   UNK N   1      28.043  24.647  -4.847  0.00  0.00    -0.053 C 
HETATM   15  C   UNK N   1      28.783  23.788  -4.440  0.00  0.00    -0.098 C 
BRANCH  15  16
HETATM   16  C   UNK N   1      29.725  22.849  -3.837  0.00  0.00     0.065 A 
HETATM   17  C   UNK N   1      29.553  22.916  -2.329  0.00  0.00     0.018 A 
HETATM   18  C   UNK N   1      30.710  23.631  -2.989  0.00  0.00     0.018 A 
ENDBRANCH  15  16
ENDBRANCH   5  14
BRANCH   5  19
HETATM   19  C   UNK N   1      25.820  25.073  -5.717  0.00  0.00     0.435 C 
HETATM   20  F   UNK N   1      25.047  26.027  -6.357  0.00  0.00    -0.166 F 
HETATM   21  F   UNK N   1      26.240  24.141  -6.656  0.00  0.00    -0.166 F 
HETATM   22  F   UNK N   1      25.037  24.421  -4.782  0.00  0.00    -0.166 F 
ENDBRANCH   5  19
TORSDOF 3
ENDMDL
MODEL 5
REMARK VINA RESULT:      -6.1     10.306     11.933
REMARK  3 active torsions:
REMARK  status: ('A' for Active; 'I' for Inactive)
REMARK    1  A    between atoms: C_8  and  C_12 
REMARK    2  A    between atoms: C_11  and  C_14 
REMARK    3  A    between atoms: C_11  and  C_16 
ROOT
HETATM    1 Cl   UNK N   1      22.154  13.851   1.043  0.00  0.00    -0.084 Cl
HETATM    2  O   UNK N   1      21.753  19.417   4.108  0.00  0.00    -0.265 OA
HETATM    3  O   UNK N   1      20.197  21.001   3.820  0.00  0.00    -0.238 OA
HETATM    4  N   UNK N   1      19.853  19.075   2.750  0.00  0.00    -0.302 N 
HETATM    5  C   UNK N   1      22.043  18.062   4.235  0.00  0.00     0.261 C 
HETATM    6  C   UNK N   1      21.444  17.265   3.082  0.00  0.00     0.027 A 
HETATM    7  C   UNK N   1      20.340  17.795   2.399  0.00  0.00     0.047 A 
HETATM    8  C   UNK N   1      21.979  16.029   2.675  0.00  0.00     0.037 A 
HETATM    9  C   UNK N   1      19.760  17.086   1.342  0.00  0.00     0.032 A 
HETATM   10  C   UNK N   1      20.578  19.868   3.579  0.00  0.00     0.367 C 
HETATM   11  C   UNK N   1      21.422  15.342   1.597  0.00  0.00     0.034 A 
HETATM   12  C   UNK N   1      20.304  15.862   0.938  0.00  0.00     0.026 A 
HETATM   13  H   UNK N   1      18.991  19.390   2.396  0.00  0.00     0.171 HD
ENDROOT
BRANCH   5  14
HETATM   14  C   UNK N   1      23.496  17.829   4.272  0.00  0.00    -0.053 C 
HETATM   15  C   UNK N   1      24.694  17.840   4.140  0.00  0.00    -0.098 C 
BRANCH  15  16
HETATM   16  C   UNK N   1      26.119  17.856   3.825  0.00  0.00     0.065 A 
HETATM   17  C   UNK N   1      26.867  18.324   5.061  0.00  0.00     0.018 A 
HETATM   18  C   UNK N   1      26.619  19.285   3.921  0.00  0.00     0.018 A 
ENDBRANCH  15  16
ENDBRANCH   5  14
BRANCH   5  19
HETATM   19  C   UNK N   1      21.475  17.588   5.591  0.00  0.00     0.435 C 
HETATM   20  F   UNK N   1      20.257  16.952   5.426  0.00  0.00    -0.166 F 
HETATM   21  F   UNK N   1      22.363  16.699   6.181  0.00  0.00    -0.166 F 
HETATM   22  F   UNK N   1      21.305  18.660   6.448  0.00  0.00    -0.166 F 
ENDBRANCH   5  19
TORSDOF 3
ENDMDL
MODEL 6
REMARK VINA RESULT:      -6.1     15.718     17.170
REMARK  3 active torsions:
REMARK  status: ('A' for Active; 'I' for Inactive)
REMARK    1  A    between atoms: C_8  and  C_12 
REMARK    2  A    between atoms: C_11  and  C_14 
REMARK    3  A    between atoms: C_11  and  C_16 
ROOT
HETATM    1 Cl   UNK N   1      31.324  24.516  -4.314  0.00  0.00    -0.084 Cl
HETATM    2  O   UNK N   1      25.845  25.166  -7.491  0.00  0.00    -0.265 OA
HETATM    3  O   UNK N   1      24.723  23.562  -8.577  0.00  0.00    -0.238 OA
HETATM    4  N   UNK N   1      26.468  22.894  -7.361  0.00  0.00    -0.302 N 
HETATM    5  C   UNK N   1      26.559  25.541  -6.356  0.00  0.00     0.261 C 
HETATM    6  C   UNK N   1      27.688  24.558  -6.072  0.00  0.00     0.027 A 
HETATM    7  C   UNK N   1      27.580  23.249  -6.564  0.00  0.00     0.047 A 
HETATM    8  C   UNK N   1      28.836  24.931  -5.350  0.00  0.00     0.037 A 
HETATM    9  C   UNK N   1      28.593  22.318  -6.312  0.00  0.00     0.032 A 
HETATM   10  C   UNK N   1      25.637  23.860  -7.826  0.00  0.00     0.367 C 
HETATM   11  C   UNK N   1      29.862  24.012  -5.133  0.00  0.00     0.034 A 
HETATM   12  C   UNK N   1      29.736  22.701  -5.602  0.00  0.00     0.026 A 
HETATM   13  H   UNK N   1      26.297  21.949  -7.577  0.00  0.00     0.171 HD
ENDROOT
BRANCH   5  14
HETATM   14  C   UNK N   1      27.128  26.890  -6.507  0.00  0.00    -0.053 C 
HETATM   15  C   UNK N   1      27.517  28.025  -6.385  0.00  0.00    -0.098 C 
BRANCH  15  16
HETATM   16  C   UNK N   1      27.845  29.433  -6.182  0.00  0.00     0.065 A 
HETATM   17  C   UNK N   1      28.786  29.528  -4.994  0.00  0.00     0.018 A 
HETATM   18  C   UNK N   1      27.321  29.860  -4.824  0.00  0.00     0.018 A 
ENDBRANCH  15  16
ENDBRANCH   5  14
BRANCH   5  19
HETATM   19  C   UNK N   1      25.563  25.600  -5.177  0.00  0.00     0.435 C 
HETATM   20  F   UNK N   1      24.427  26.313  -5.520  0.00  0.00    -0.166 F 
HETATM   21  F   UNK N   1      25.188  24.312  -4.821  0.00  0.00    -0.166 F 
HETATM   22  F   UNK N   1      26.149  26.199  -4.076  0.00  0.00    -0.166 F 
ENDBRANCH   5  19
TORSDOF 3
ENDMDL
MODEL 7
REMARK VINA RESULT:      -5.9      8.847     10.503
REMARK  3 active torsions:
REMARK  status: ('A' for Active; 'I' for Inactive)
REMARK    1  A    between atoms: C_8  and  C_12 
REMARK    2  A    between atoms: C_11  and  C_14 
REMARK    3  A    between atoms: C_11  and  C_16 
ROOT
HETATM    1 Cl   UNK N   1      34.411  10.486  10.923  0.00  0.00    -0.084 Cl
HETATM    2  O   UNK N   1      37.182  13.448  15.831  0.00  0.00    -0.265 OA
HETATM    3  O   UNK N   1      37.721  15.617  15.960  0.00  0.00    -0.238 OA
HETATM    4  N   UNK N   1      36.524  15.004  14.182  0.00  0.00    -0.302 N 
HETATM    5  C   UNK N   1      36.245  12.489  15.457  0.00  0.00     0.261 C 
HETATM    6  C   UNK N   1      35.812  12.684  14.009  0.00  0.00     0.027 A 
HETATM    7  C   UNK N   1      35.940  13.956  13.433  0.00  0.00     0.047 A 
HETATM    8  C   UNK N   1      35.308  11.624  13.233  0.00  0.00     0.037 A 
HETATM    9  C   UNK N   1      35.543  14.173  12.110  0.00  0.00     0.032 A 
HETATM   10  C   UNK N   1      37.150  14.726  15.353  0.00  0.00     0.367 C 
HETATM   11  C   UNK N   1      34.949  11.834  11.902  0.00  0.00     0.034 A 
HETATM   12  C   UNK N   1      35.053  13.111  11.343  0.00  0.00     0.026 A 
HETATM   13  H   UNK N   1      36.475  15.931  13.857  0.00  0.00     0.171 HD
ENDROOT
BRANCH   5  14
HETATM   14  C   UNK N   1      36.784  11.128  15.615  0.00  0.00    -0.053 C 
HETATM   15  C   UNK N   1      36.984   9.942  15.686  0.00  0.00    -0.098 C 
BRANCH  15  16
HETATM   16  C   UNK N   1      37.099   8.498  15.867  0.00  0.00     0.065 A 
HETATM   17  C   UNK N   1      36.115   7.827  14.924  0.00  0.00     0.018 A 
HETATM   18  C   UNK N   1      35.778   7.969  16.391  0.00  0.00     0.018 A 
ENDBRANCH  15  16
ENDBRANCH   5  14
BRANCH   5  19
HETATM   19  C   UNK N   1      35.041  12.612  16.418  0.00  0.00     0.435 C 
HETATM   20  F   UNK N   1      34.033  13.378  15.858  0.00  0.00    -0.166 F 
HETATM   21  F   UNK N   1      34.537  11.349  16.694  0.00  0.00    -0.166 F 
HETATM   22  F   UNK N   1      35.430  13.192  17.612  0.00  0.00    -0.166 F 
ENDBRANCH   5  19
TORSDOF 3
ENDMDL
MODEL 8
REMARK VINA RESULT:      -5.9      7.802      9.543
REMARK  3 active torsions:
REMARK  status: ('A' for Active; 'I' for Inactive)
REMARK    1  A    between atoms: C_8  and  C_12 
REMARK    2  A    between atoms: C_11  and  C_14 
REMARK    3  A    between atoms: C_11  and  C_16 
ROOT
HETATM    1 Cl   UNK N   1      26.326  14.780   2.203  0.00  0.00    -0.084 Cl
HETATM    2  O   UNK N   1      25.563  20.381   5.133  0.00  0.00    -0.265 OA
HETATM    3  O   UNK N   1      27.139  21.573   6.185  0.00  0.00    -0.238 OA
HETATM    4  N   UNK N   1      27.846  19.787   5.053  0.00  0.00    -0.302 N 
HETATM    5  C   UNK N   1      25.211  19.613   4.026  0.00  0.00     0.261 C 
HETATM    6  C   UNK N   1      26.214  18.488   3.801  0.00  0.00     0.027 A 
HETATM    7  C   UNK N   1      27.515  18.636   4.301  0.00  0.00     0.047 A 
HETATM    8  C   UNK N   1      25.865  17.304   3.126  0.00  0.00     0.037 A 
HETATM    9  C   UNK N   1      28.464  17.627   4.103  0.00  0.00     0.032 A 
HETATM   10  C   UNK N   1      26.863  20.623   5.471  0.00  0.00     0.367 C 
HETATM   11  C   UNK N   1      26.801  16.283   2.963  0.00  0.00     0.034 A 
HETATM   12  C   UNK N   1      28.105  16.449   3.440  0.00  0.00     0.026 A 
HETATM   13  H   UNK N   1      28.786  19.981   5.271  0.00  0.00     0.171 HD
ENDROOT
BRANCH   5  14
HETATM   14  C   UNK N   1      23.869  19.031   4.188  0.00  0.00    -0.053 C 
HETATM   15  C   UNK N   1      22.703  18.730   4.142  0.00  0.00    -0.098 C 
BRANCH  15  16
HETATM   16  C   UNK N   1      21.259  18.517   4.105  0.00  0.00     0.065 A 
HETATM   17  C   UNK N   1      20.835  18.429   2.650  0.00  0.00     0.018 A 
HETATM   18  C   UNK N   1      20.613  19.709   3.423  0.00  0.00     0.018 A 
ENDBRANCH  15  16
ENDBRANCH   5  14
BRANCH   5  19
HETATM   19  C   UNK N   1      25.150  20.556   2.804  0.00  0.00     0.435 C 
HETATM   20  F   UNK N   1      24.946  19.843   1.635  0.00  0.00    -0.166 F 
HETATM   21  F   UNK N   1      24.105  21.455   2.963  0.00  0.00    -0.166 F 
HETATM   22  F   UNK N   1      26.325  21.276   2.687  0.00  0.00    -0.166 F 
ENDBRANCH   5  19
TORSDOF 3
ENDMDL
MODEL 9
REMARK VINA RESULT:      -5.9      2.801      4.877
REMARK  3 active torsions:
REMARK  status: ('A' for Active; 'I' for Inactive)
REMARK    1  A    between atoms: C_8  and  C_12 
REMARK    2  A    between atoms: C_11  and  C_14 
REMARK    3  A    between atoms: C_11  and  C_16 
ROOT
HETATM    1 Cl   UNK N   1      32.138  12.224   5.381  0.00  0.00    -0.084 Cl
HETATM    2  O   UNK N   1      33.570  16.972   9.374  0.00  0.00    -0.265 OA
HETATM    3  O   UNK N   1      35.289  17.053  10.805  0.00  0.00    -0.238 OA
HETATM    4  N   UNK N   1      35.269  15.335   9.383  0.00  0.00    -0.302 N 
HETATM    5  C   UNK N   1      33.114  16.651   8.099  0.00  0.00     0.261 C 
HETATM    6  C   UNK N   1      33.489  15.220   7.730  0.00  0.00     0.027 A 
HETATM    7  C   UNK N   1      34.584  14.625   8.371  0.00  0.00     0.047 A 
HETATM    8  C   UNK N   1      32.757  14.480   6.783  0.00  0.00     0.037 A 
HETATM    9  C   UNK N   1      34.962  13.317   8.050  0.00  0.00     0.032 A 
HETATM   10  C   UNK N   1      34.739  16.481   9.878  0.00  0.00     0.367 C 
HETATM   11  C   UNK N   1      33.112  13.163   6.492  0.00  0.00     0.034 A 
HETATM   12  C   UNK N   1      34.222  12.585   7.115  0.00  0.00     0.026 A 
HETATM   13  H   UNK N   1      36.128  15.001   9.727  0.00  0.00     0.171 HD
ENDROOT
BRANCH   5  14
HETATM   14  C   UNK N   1      31.653  16.802   8.001  0.00  0.00    -0.053 C 
HETATM   15  C   UNK N   1      30.483  17.054   8.144  0.00  0.00    -0.098 C 
BRANCH  15  16
HETATM   16  C   UNK N   1      29.081  17.303   8.463  0.00  0.00     0.065 A 
HETATM   17  C   UNK N   1      28.729  18.697   7.973  0.00  0.00     0.018 A 
HETATM   18  C   UNK N   1      29.006  18.461   9.440  0.00  0.00     0.018 A 
ENDBRANCH  15  16
ENDBRANCH   5  14
BRANCH   5  19
HETATM   19  C   UNK N   1      33.739  17.661   7.111  0.00  0.00     0.435 C 
HETATM   20  F   UNK N   1      32.881  17.921   6.056  0.00  0.00    -0.166 F 
HETATM   21  F   UNK N   1      34.004  18.852   7.771  0.00  0.00    -0.166 F 
HETATM   22  F   UNK N   1      34.931  17.172   6.606  0.00  0.00    -0.166 F 
ENDBRANCH   5  19
TORSDOF 3
ENDMDL
