MODEL 1
REMARK VINA RESULT:      -4.6      0.000      0.000
REMARK  2 active torsions:
REMARK  status: ('A' for Active; 'I' for Inactive)
REMARK    1  A    between atoms: O_1  and  C_10 
REMARK    2  A    between atoms: C_5  and  C_10 
ROOT
HETATM    1  N   UNK N   1      21.820  11.681  11.777  0.00  0.00    -0.374 N 
ATOM      2  HN  UNK N   1      21.672  11.017  12.537  1.00  0.00     0.164 HD
HETATM    3  C   UNK N   1      23.315  12.826  10.296  0.00  0.00     0.053 A 
HETATM    4  C   UNK N   1      22.221  13.480   9.718  0.00  0.00     0.021 A 
HETATM    5  C   UNK N   1      23.087  11.919  11.338  0.00  0.00     0.105 A 
HETATM    6  C   UNK N   1      20.931  13.222  10.182  0.00  0.00     0.018 A 
HETATM    7  C   UNK N   1      20.749  12.310  11.223  0.00  0.00     0.087 A 
ENDROOT
BRANCH   3   8
HETATM    8  C   UNK N   1      24.685  13.090   9.814  0.00  0.00     0.177 C 
HETATM    9  O   UNK N   1      24.938  13.047   8.620  0.00  0.00    -0.646 OA
BRANCH   8  10
HETATM   10  O   UNK N   1      25.668  13.381  10.689  0.00  0.00    -0.773 OA
HETATM   11  H   UNK N   1      26.313  12.735  10.901  0.00  0.00     0.167 HD
ENDBRANCH   8  10
ENDBRANCH   3   8
TORSDOF 2
ENDMDL
MODEL 2
REMARK VINA RESULT:      -4.5     11.509     12.440
REMARK  2 active torsions:
REMARK  status: ('A' for Active; 'I' for Inactive)
REMARK    1  A    between atoms: O_1  and  C_10 
REMARK    2  A    between atoms: C_5  and  C_10 
ROOT
HETATM    1  N   UNK N   1      33.238  15.232   9.886  0.00  0.00    -0.374 N 
ATOM      2  HN  UNK N   1      32.443  14.607   9.753  1.00  0.00     0.164 HD
HETATM    3  C   UNK N   1      34.524  17.122   9.168  0.00  0.00     0.053 A 
HETATM    4  C   UNK N   1      35.393  16.923  10.246  0.00  0.00     0.021 A 
HETATM    5  C   UNK N   1      33.438  16.251   9.006  0.00  0.00     0.105 A 
HETATM    6  C   UNK N   1      35.171  15.873  11.137  0.00  0.00     0.018 A 
HETATM    7  C   UNK N   1      34.076  15.029  10.938  0.00  0.00     0.087 A 
ENDROOT
BRANCH   3   8
HETATM    8  C   UNK N   1      34.749  18.229   8.219  0.00  0.00     0.177 C 
HETATM    9  O   UNK N   1      35.288  19.260   8.590  0.00  0.00    -0.646 OA
BRANCH   8  10
HETATM   10  O   UNK N   1      34.360  18.111   6.934  0.00  0.00    -0.773 OA
HETATM   11  H   UNK N   1      33.458  17.955   6.729  0.00  0.00     0.167 HD
ENDBRANCH   8  10
ENDBRANCH   3   8
TORSDOF 2
ENDMDL
MODEL 3
REMARK VINA RESULT:      -4.5      2.832      3.609
REMARK  2 active torsions:
REMARK  status: ('A' for Active; 'I' for Inactive)
REMARK    1  A    between atoms: O_1  and  C_10 
REMARK    2  A    between atoms: C_5  and  C_10 
ROOT
HETATM    1  N   UNK N   1      24.439  12.121  11.429  0.00  0.00    -0.374 N 
ATOM      2  HN  UNK N   1      25.102  11.763  12.118  1.00  0.00     0.164 HD
HETATM    3  C   UNK N   1      22.176  12.531  10.757  0.00  0.00     0.053 A 
HETATM    4  C   UNK N   1      22.647  13.091   9.564  0.00  0.00     0.021 A 
HETATM    5  C   UNK N   1      23.105  12.046  11.687  0.00  0.00     0.105 A 
HETATM    6  C   UNK N   1      24.019  13.159   9.318  0.00  0.00     0.018 A 
HETATM    7  C   UNK N   1      24.909  12.663  10.273  0.00  0.00     0.087 A 
ENDROOT
BRANCH   3   8
HETATM    8  C   UNK N   1      20.728  12.455  11.028  0.00  0.00     0.177 C 
HETATM    9  O   UNK N   1      19.937  13.075  10.336  0.00  0.00    -0.646 OA
BRANCH   8  10
HETATM   10  O   UNK N   1      20.267  11.697  12.044  0.00  0.00    -0.773 OA
HETATM   11  H   UNK N   1      20.187  10.770  11.938  0.00  0.00     0.167 HD
ENDBRANCH   8  10
ENDBRANCH   3   8
TORSDOF 2
ENDMDL
MODEL 4
REMARK VINA RESULT:      -4.3     10.936     11.857
REMARK  2 active torsions:
REMARK  status: ('A' for Active; 'I' for Inactive)
REMARK    1  A    between atoms: O_1  and  C_10 
REMARK    2  A    between atoms: C_5  and  C_10 
ROOT
HETATM    1  N   UNK N   1      31.101  17.184   6.798  0.00  0.00    -0.374 N 
ATOM      2  HN  UNK N   1      30.125  17.029   7.051  1.00  0.00     0.164 HD
HETATM    3  C   UNK N   1      33.339  17.743   7.446  0.00  0.00     0.053 A 
HETATM    4  C   UNK N   1      33.745  17.602   6.114  0.00  0.00     0.021 A 
HETATM    5  C   UNK N   1      31.993  17.525   7.768  0.00  0.00     0.105 A 
HETATM    6  C   UNK N   1      32.815  17.251   5.135  0.00  0.00     0.018 A 
HETATM    7  C   UNK N   1      31.483  17.044   5.500  0.00  0.00     0.087 A 
ENDROOT
BRANCH   3   8
HETATM    8  C   UNK N   1      34.313  18.114   8.490  0.00  0.00     0.177 C 
HETATM    9  O   UNK N   1      35.058  19.068   8.329  0.00  0.00    -0.646 OA
BRANCH   8  10
HETATM   10  O   UNK N   1      34.389  17.400   9.631  0.00  0.00    -0.773 OA
HETATM   11  H   UNK N   1      33.766  16.721   9.801  0.00  0.00     0.167 HD
ENDBRANCH   8  10
ENDBRANCH   3   8
TORSDOF 2
ENDMDL
MODEL 5
REMARK VINA RESULT:      -4.3      9.530     10.365
REMARK  2 active torsions:
REMARK  status: ('A' for Active; 'I' for Inactive)
REMARK    1  A    between atoms: O_1  and  C_10 
REMARK    2  A    between atoms: C_5  and  C_10 
ROOT
HETATM    1  N   UNK N   1      19.222  17.652   3.124  0.00  0.00    -0.374 N 
ATOM      2  HN  UNK N   1      18.280  17.286   2.988  1.00  0.00     0.164 HD
HETATM    3  C   UNK N   1      20.883  19.314   2.652  0.00  0.00     0.053 A 
HETATM    4  C   UNK N   1      21.775  18.641   3.495  0.00  0.00     0.021 A 
HETATM    5  C   UNK N   1      19.593  18.792   2.481  0.00  0.00     0.105 A 
HETATM    6  C   UNK N   1      21.375  17.474   4.145  0.00  0.00     0.018 A 
HETATM    7  C   UNK N   1      20.081  16.990   3.946  0.00  0.00     0.087 A 
ENDROOT
BRANCH   3   8
HETATM    8  C   UNK N   1      21.294  20.549   1.959  0.00  0.00     0.177 C 
HETATM    9  O   UNK N   1      21.347  20.584   0.740  0.00  0.00    -0.646 OA
BRANCH   8  10
HETATM   10  O   UNK N   1      21.615  21.650   2.668  0.00  0.00    -0.773 OA
HETATM   11  H   UNK N   1      21.617  21.621   3.604  0.00  0.00     0.167 HD
ENDBRANCH   8  10
ENDBRANCH   3   8
TORSDOF 2
ENDMDL
MODEL 6
REMARK VINA RESULT:      -4.3      2.661      3.524
REMARK  2 active torsions:
REMARK  status: ('A' for Active; 'I' for Inactive)
REMARK    1  A    between atoms: O_1  and  C_10 
REMARK    2  A    between atoms: C_5  and  C_10 
ROOT
HETATM    1  N   UNK N   1      24.068  12.793  10.580  0.00  0.00    -0.374 N 
ATOM      2  HN  UNK N   1      25.031  12.996  10.311  1.00  0.00     0.164 HD
HETATM    3  C   UNK N   1      21.718  12.999  10.160  0.00  0.00     0.053 A 
HETATM    4  C   UNK N   1      21.460  12.243  11.309  0.00  0.00     0.021 A 
HETATM    5  C   UNK N   1      23.049  13.265   9.811  0.00  0.00     0.105 A 
HETATM    6  C   UNK N   1      22.519  11.769  12.084  0.00  0.00     0.018 A 
HETATM    7  C   UNK N   1      23.830  12.057  11.699  0.00  0.00     0.087 A 
ENDROOT
BRANCH   3   8
HETATM    8  C   UNK N   1      20.606  13.506   9.332  0.00  0.00     0.177 C 
HETATM    9  O   UNK N   1      20.670  13.453   8.114  0.00  0.00    -0.646 OA
BRANCH   8  10
HETATM   10  O   UNK N   1      19.511  14.033   9.916  0.00  0.00    -0.773 OA
HETATM   11  H   UNK N   1      19.286  13.791  10.793  0.00  0.00     0.167 HD
ENDBRANCH   8  10
ENDBRANCH   3   8
TORSDOF 2
ENDMDL
MODEL 7
REMARK VINA RESULT:      -4.1      2.101      2.680
REMARK  2 active torsions:
REMARK  status: ('A' for Active; 'I' for Inactive)
REMARK    1  A    between atoms: O_1  and  C_10 
REMARK    2  A    between atoms: C_5  and  C_10 
ROOT
HETATM    1  N   UNK N   1      22.855  12.182   8.234  0.00  0.00    -0.374 N 
ATOM      2  HN  UNK N   1      23.301  11.917   7.355  1.00  0.00     0.164 HD
HETATM    3  C   UNK N   1      22.910  12.301  10.626  0.00  0.00     0.053 A 
HETATM    4  C   UNK N   1      21.645  12.900  10.612  0.00  0.00     0.021 A 
HETATM    5  C   UNK N   1      23.503  11.946   9.407  0.00  0.00     0.105 A 
HETATM    6  C   UNK N   1      20.997  13.133   9.398  0.00  0.00     0.018 A 
HETATM    7  C   UNK N   1      21.625  12.763   8.207  0.00  0.00     0.087 A 
ENDROOT
BRANCH   3   8
HETATM    8  C   UNK N   1      23.605  12.049  11.904  0.00  0.00     0.177 C 
HETATM    9  O   UNK N   1      22.973  11.716  12.894  0.00  0.00    -0.646 OA
BRANCH   8  10
HETATM   10  O   UNK N   1      24.943  12.185  11.986  0.00  0.00    -0.773 OA
HETATM   11  H   UNK N   1      25.445  11.579  12.494  0.00  0.00     0.167 HD
ENDBRANCH   8  10
ENDBRANCH   3   8
TORSDOF 2
ENDMDL
MODEL 8
REMARK VINA RESULT:      -4.1     12.457     12.722
REMARK  2 active torsions:
REMARK  status: ('A' for Active; 'I' for Inactive)
REMARK    1  A    between atoms: O_1  and  C_10 
REMARK    2  A    between atoms: C_5  and  C_10 
ROOT
HETATM    1  N   UNK N   1      34.614  15.251   5.780  0.00  0.00    -0.374 N 
ATOM      2  HN  UNK N   1      35.046  14.334   5.658  1.00  0.00     0.164 HD
HETATM    3  C   UNK N   1      34.242  17.197   7.127  0.00  0.00     0.053 A 
HETATM    4  C   UNK N   1      33.445  17.732   6.108  0.00  0.00     0.021 A 
HETATM    5  C   UNK N   1      34.824  15.936   6.937  0.00  0.00     0.105 A 
HETATM    6  C   UNK N   1      33.243  17.013   4.930  0.00  0.00     0.018 A 
HETATM    7  C   UNK N   1      33.842  15.761   4.783  0.00  0.00     0.087 A 
ENDROOT
BRANCH   3   8
HETATM    8  C   UNK N   1      34.463  17.948   8.378  0.00  0.00     0.177 C 
HETATM    9  O   UNK N   1      34.985  19.051   8.351  0.00  0.00    -0.646 OA
BRANCH   8  10
HETATM   10  O   UNK N   1      34.090  17.420   9.561  0.00  0.00    -0.773 OA
HETATM   11  H   UNK N   1      34.672  17.457  10.294  0.00  0.00     0.167 HD
ENDBRANCH   8  10
ENDBRANCH   3   8
TORSDOF 2
ENDMDL
MODEL 9
REMARK VINA RESULT:      -4.0     18.235     18.935
REMARK  2 active torsions:
REMARK  status: ('A' for Active; 'I' for Inactive)
REMARK    1  A    between atoms: O_1  and  C_10 
REMARK    2  A    between atoms: C_5  and  C_10 
ROOT
HETATM    1  N   UNK N   1      28.805  23.035  -5.478  0.00  0.00    -0.374 N 
ATOM      2  HN  UNK N   1      28.135  23.754  -5.753  1.00  0.00     0.164 HD
HETATM    3  C   UNK N   1      30.356  22.160  -3.875  0.00  0.00     0.053 A 
HETATM    4  C   UNK N   1      30.619  21.088  -4.734  0.00  0.00     0.021 A 
HETATM    5  C   UNK N   1      29.432  23.135  -4.274  0.00  0.00     0.105 A 
HETATM    6  C   UNK N   1      29.965  21.003  -5.964  0.00  0.00     0.018 A 
HETATM    7  C   UNK N   1      29.052  21.997  -6.322  0.00  0.00     0.087 A 
ENDROOT
BRANCH   3   8
HETATM    8  C   UNK N   1      31.042  22.261  -2.572  0.00  0.00     0.177 C 
HETATM    9  O   UNK N   1      30.689  23.094  -1.752  0.00  0.00    -0.646 OA
BRANCH   8  10
HETATM   10  O   UNK N   1      32.063  21.432  -2.277  0.00  0.00    -0.773 OA
HETATM   11  H   UNK N   1      32.730  21.265  -2.914  0.00  0.00     0.167 HD
ENDBRANCH   8  10
ENDBRANCH   3   8
TORSDOF 2
ENDMDL
