MODEL 1
REMARK VINA RESULT:      -7.5      0.000      0.000
REMARK  3 active torsions:
REMARK  status: ('A' for Active; 'I' for Inactive)
REMARK    1  A    between atoms: O_3  and  C_20 
REMARK    2  A    between atoms: C_9  and  C_12 
REMARK    3  A    between atoms: C_11  and  C_20 
ROOT
HETATM    1 Cl   UNK N   1      23.227  11.263   4.960  0.00  0.00    -0.084 Cl
HETATM    2  O   UNK N   1      21.014  18.764   7.058  0.00  0.00    -0.270 OA
HETATM    3  N   UNK N   1      21.668  16.905   6.084  0.00  0.00    -0.324 N 
HETATM    4  N   UNK N   1      20.705  15.790   8.748  0.00  0.00    -0.367 N 
ATOM      5  HN  UNK N   1      20.622  15.900   9.758  1.00  0.00     0.161 HD
HETATM    6  C   UNK N   1      21.783  14.516   6.911  0.00  0.00     0.019 A 
HETATM    7  C   UNK N   1      21.384  14.759   8.363  0.00  0.00     0.052 C 
HETATM    8  C   UNK N   1      21.870  15.516   5.886  0.00  0.00     0.047 A 
HETATM    9  C   UNK N   1      20.051  16.803   7.967  0.00  0.00     0.273 C 
HETATM   10  C   UNK N   1      20.968  17.543   7.035  0.00  0.00     0.255 C 
HETATM   11  C   UNK N   1      22.201  13.215   6.564  0.00  0.00     0.040 A 
HETATM   12  C   UNK N   1      22.334  15.158   4.611  0.00  0.00     0.032 A 
HETATM   13  C   UNK N   1      22.664  12.887   5.295  0.00  0.00     0.035 A 
HETATM   14  C   UNK N   1      22.721  13.858   4.311  0.00  0.00     0.026 A 
HETATM   15  H   UNK N   1      22.106  17.490   5.424  0.00  0.00     0.169 HD
ENDROOT
BRANCH   7  16
HETATM   16  C   UNK N   1      21.663  13.748   9.454  0.00  0.00    -0.009 A 
HETATM   17  C   UNK N   1      23.001  13.414   9.746  0.00  0.00     0.014 A 
HETATM   18  C   UNK N   1      23.315  12.531  10.783  0.00  0.00     0.001 A 
HETATM   19  C   UNK N   1      22.298  11.977  11.559  0.00  0.00     0.000 A 
HETATM   20  C   UNK N   1      20.966  12.294  11.289  0.00  0.00     0.001 A 
HETATM   21  C   UNK N   1      20.655  13.168  10.244  0.00  0.00     0.014 A 
ENDBRANCH   7  16
BRANCH   9  22
HETATM   22  C   UNK N   1      19.268  17.664   8.947  0.00  0.00     0.173 C 
HETATM   23  O   UNK N   1      18.094  17.443   9.205  0.00  0.00    -0.648 OA
BRANCH  22  24
HETATM   24  O   UNK N   1      19.870  18.728   9.512  0.00  0.00    -0.774 OA
HETATM   25  H   UNK N   1      20.749  18.892   9.791  0.00  0.00     0.167 HD
ENDBRANCH  22  24
ENDBRANCH   9  22
TORSDOF 3
ENDMDL
MODEL 2
REMARK VINA RESULT:      -7.3     15.365     17.056
REMARK  3 active torsions:
REMARK  status: ('A' for Active; 'I' for Inactive)
REMARK    1  A    between atoms: O_3  and  C_20 
REMARK    2  A    between atoms: C_9  and  C_12 
REMARK    3  A    between atoms: C_11  and  C_20 
ROOT
HETATM    1 Cl   UNK N   1      37.233   8.751  16.410  0.00  0.00    -0.084 Cl
HETATM    2  O   UNK N   1      38.077  13.756  10.101  0.00  0.00    -0.270 OA
HETATM    3  N   UNK N   1      37.982  12.085  11.526  0.00  0.00    -0.324 N 
HETATM    4  N   UNK N   1      36.557  14.235  13.143  0.00  0.00    -0.367 N 
ATOM      5  HN  UNK N   1      36.485  15.215  13.415  1.00  0.00     0.161 HD
HETATM    6  C   UNK N   1      37.115  11.939  13.900  0.00  0.00     0.019 A 
HETATM    7  C   UNK N   1      36.788  13.413  14.114  0.00  0.00     0.052 C 
HETATM    8  C   UNK N   1      37.627  11.360  12.691  0.00  0.00     0.047 A 
HETATM    9  C   UNK N   1      36.385  13.976  11.740  0.00  0.00     0.273 C 
HETATM   10  C   UNK N   1      37.554  13.285  11.100  0.00  0.00     0.255 C 
HETATM   11  C   UNK N   1      36.999  11.082  15.014  0.00  0.00     0.040 A 
HETATM   12  C   UNK N   1      37.961   9.997  12.667  0.00  0.00     0.032 A 
HETATM   13  C   UNK N   1      37.343   9.735  14.966  0.00  0.00     0.035 A 
HETATM   14  C   UNK N   1      37.816   9.188  13.787  0.00  0.00     0.026 A 
HETATM   15  H   UNK N   1      38.640  11.644  10.941  0.00  0.00     0.169 HD
ENDROOT
BRANCH   7  16
HETATM   16  C   UNK N   1      36.605  14.004  15.495  0.00  0.00    -0.009 A 
HETATM   17  C   UNK N   1      37.325  15.165  15.840  0.00  0.00     0.014 A 
HETATM   18  C   UNK N   1      37.148  15.783  17.080  0.00  0.00     0.001 A 
HETATM   19  C   UNK N   1      36.234  15.261  17.995  0.00  0.00     0.000 A 
HETATM   20  C   UNK N   1      35.509  14.113  17.675  0.00  0.00     0.001 A 
HETATM   21  C   UNK N   1      35.697  13.491  16.438  0.00  0.00     0.014 A 
ENDBRANCH   7  16
BRANCH   9  22
HETATM   22  C   UNK N   1      35.968  15.295  11.107  0.00  0.00     0.173 C 
HETATM   23  O   UNK N   1      34.806  15.529  10.810  0.00  0.00    -0.648 OA
BRANCH  22  24
HETATM   24  O   UNK N   1      36.911  16.213  10.821  0.00  0.00    -0.774 OA
HETATM   25  H   UNK N   1      37.047  16.785  10.092  0.00  0.00     0.167 HD
ENDBRANCH  22  24
ENDBRANCH   9  22
TORSDOF 3
ENDMDL
MODEL 3
REMARK VINA RESULT:      -7.1      9.327     10.199
REMARK  3 active torsions:
REMARK  status: ('A' for Active; 'I' for Inactive)
REMARK    1  A    between atoms: O_3  and  C_20 
REMARK    2  A    between atoms: C_9  and  C_12 
REMARK    3  A    between atoms: C_11  and  C_20 
ROOT
HETATM    1 Cl   UNK N   1      33.933  14.987   3.352  0.00  0.00    -0.084 Cl
HETATM    2  O   UNK N   1      27.453  18.834   6.314  0.00  0.00    -0.270 OA
HETATM    3  N   UNK N   1      28.976  17.778   5.133  0.00  0.00    -0.324 N 
HETATM    4  N   UNK N   1      30.160  17.458   7.919  0.00  0.00    -0.367 N 
ATOM      5  HN  UNK N   1      30.335  17.857   8.841  1.00  0.00     0.161 HD
HETATM    6  C   UNK N   1      31.183  16.721   5.782  0.00  0.00     0.019 A 
HETATM    7  C   UNK N   1      31.220  17.151   7.245  0.00  0.00     0.052 C 
HETATM    8  C   UNK N   1      30.125  16.995   4.853  0.00  0.00     0.047 A 
HETATM    9  C   UNK N   1      28.774  17.321   7.566  0.00  0.00     0.273 C 
HETATM   10  C   UNK N   1      28.390  18.049   6.310  0.00  0.00     0.255 C 
HETATM   11  C   UNK N   1      32.331  16.084   5.266  0.00  0.00     0.040 A 
HETATM   12  C   UNK N   1      30.267  16.607   3.512  0.00  0.00     0.032 A 
HETATM   13  C   UNK N   1      32.450  15.715   3.930  0.00  0.00     0.035 A 
HETATM   14  C   UNK N   1      31.411  15.967   3.052  0.00  0.00     0.026 A 
HETATM   15  H   UNK N   1      28.544  18.184   4.346  0.00  0.00     0.169 HD
ENDROOT
BRANCH   7  16
HETATM   16  C   UNK N   1      32.500  17.150   8.052  0.00  0.00    -0.009 A 
HETATM   17  C   UNK N   1      32.779  16.046   8.883  0.00  0.00     0.014 A 
HETATM   18  C   UNK N   1      33.973  15.969   9.604  0.00  0.00     0.001 A 
HETATM   19  C   UNK N   1      34.921  16.986   9.495  0.00  0.00     0.000 A 
HETATM   20  C   UNK N   1      34.667  18.087   8.676  0.00  0.00     0.001 A 
HETATM   21  C   UNK N   1      33.466  18.167   7.966  0.00  0.00     0.014 A 
ENDBRANCH   7  16
BRANCH   9  22
HETATM   22  C   UNK N   1      27.975  17.681   8.810  0.00  0.00     0.173 C 
HETATM   23  O   UNK N   1      27.646  16.838   9.632  0.00  0.00    -0.648 OA
BRANCH  22  24
HETATM   24  O   UNK N   1      27.578  18.955   8.989  0.00  0.00    -0.774 OA
HETATM   25  H   UNK N   1      28.021  19.728   9.279  0.00  0.00     0.167 HD
ENDBRANCH  22  24
ENDBRANCH   9  22
TORSDOF 3
ENDMDL
MODEL 4
REMARK VINA RESULT:      -7.0      2.819      4.891
REMARK  3 active torsions:
REMARK  status: ('A' for Active; 'I' for Inactive)
REMARK    1  A    between atoms: O_3  and  C_20 
REMARK    2  A    between atoms: C_9  and  C_12 
REMARK    3  A    between atoms: C_11  and  C_20 
ROOT
HETATM    1 Cl   UNK N   1      20.321  12.757  11.009  0.00  0.00    -0.084 Cl
HETATM    2  O   UNK N   1      23.462  17.183   5.000  0.00  0.00    -0.270 OA
HETATM    3  N   UNK N   1      22.927  15.690   6.522  0.00  0.00    -0.324 N 
HETATM    4  N   UNK N   1      20.513  17.534   6.726  0.00  0.00    -0.367 N 
ATOM      5  HN  UNK N   1      20.139  18.482   6.708  1.00  0.00     0.161 HD
HETATM    6  C   UNK N   1      20.983  15.547   8.137  0.00  0.00     0.019 A 
HETATM    7  C   UNK N   1      20.340  16.898   7.838  0.00  0.00     0.052 C 
HETATM    8  C   UNK N   1      22.147  15.011   7.491  0.00  0.00     0.047 A 
HETATM    9  C   UNK N   1      21.153  17.106   5.513  0.00  0.00     0.273 C 
HETATM   10  C   UNK N   1      22.585  16.688   5.692  0.00  0.00     0.255 C 
HETATM   11  C   UNK N   1      20.452  14.800   9.208  0.00  0.00     0.040 A 
HETATM   12  C   UNK N   1      22.676  13.788   7.930  0.00  0.00     0.032 A 
HETATM   13  C   UNK N   1      20.999  13.593   9.628  0.00  0.00     0.035 A 
HETATM   14  C   UNK N   1      22.108  13.079   8.981  0.00  0.00     0.026 A 
HETATM   15  H   UNK N   1      23.860  15.383   6.444  0.00  0.00     0.169 HD
ENDROOT
BRANCH   7  16
HETATM   16  C   UNK N   1      19.358  17.548   8.788  0.00  0.00    -0.009 A 
HETATM   17  C   UNK N   1      18.062  17.006   8.904  0.00  0.00     0.014 A 
HETATM   18  C   UNK N   1      17.137  17.533   9.809  0.00  0.00     0.001 A 
HETATM   19  C   UNK N   1      17.495  18.604  10.627  0.00  0.00     0.000 A 
HETATM   20  C   UNK N   1      18.772  19.156  10.531  0.00  0.00     0.001 A 
HETATM   21  C   UNK N   1      19.691  18.634   9.616  0.00  0.00     0.014 A 
ENDBRANCH   7  16
BRANCH   9  22
HETATM   22  C   UNK N   1      20.908  18.203   4.487  0.00  0.00     0.173 C 
HETATM   23  O   UNK N   1      20.215  18.018   3.497  0.00  0.00    -0.648 OA
BRANCH  22  24
HETATM   24  O   UNK N   1      21.508  19.398   4.647  0.00  0.00    -0.774 OA
HETATM   25  H   UNK N   1      21.473  20.045   5.324  0.00  0.00     0.167 HD
ENDBRANCH  22  24
ENDBRANCH   9  22
TORSDOF 3
ENDMDL
MODEL 5
REMARK VINA RESULT:      -6.8     11.147     12.245
REMARK  3 active torsions:
REMARK  status: ('A' for Active; 'I' for Inactive)
REMARK    1  A    between atoms: O_3  and  C_20 
REMARK    2  A    between atoms: C_9  and  C_12 
REMARK    3  A    between atoms: C_11  and  C_20 
ROOT
HETATM    1 Cl   UNK N   1      31.001  16.945   2.659  0.00  0.00    -0.084 Cl
HETATM    2  O   UNK N   1      35.722  14.403   8.727  0.00  0.00    -0.270 OA
HETATM    3  N   UNK N   1      34.738  14.887   6.821  0.00  0.00    -0.324 N 
HETATM    4  N   UNK N   1      33.161  16.692   8.698  0.00  0.00    -0.367 N 
ATOM      5  HN  UNK N   1      32.727  16.832   9.610  1.00  0.00     0.161 HD
HETATM    6  C   UNK N   1      32.760  16.367   6.271  0.00  0.00     0.019 A 
HETATM    7  C   UNK N   1      32.349  16.736   7.692  0.00  0.00     0.052 C 
HETATM    8  C   UNK N   1      33.879  15.547   5.906  0.00  0.00     0.047 A 
HETATM    9  C   UNK N   1      34.581  16.477   8.723  0.00  0.00     0.273 C 
HETATM   10  C   UNK N   1      35.013  15.179   8.102  0.00  0.00     0.255 C 
HETATM   11  C   UNK N   1      31.912  16.784   5.224  0.00  0.00     0.040 A 
HETATM   12  C   UNK N   1      34.087  15.223   4.557  0.00  0.00     0.032 A 
HETATM   13  C   UNK N   1      32.135  16.443   3.894  0.00  0.00     0.035 A 
HETATM   14  C   UNK N   1      33.232  15.670   3.557  0.00  0.00     0.026 A 
HETATM   15  H   UNK N   1      35.203  14.096   6.463  0.00  0.00     0.169 HD
ENDROOT
BRANCH   7  16
HETATM   16  C   UNK N   1      30.977  17.286   8.016  0.00  0.00    -0.009 A 
HETATM   17  C   UNK N   1      30.858  18.276   9.012  0.00  0.00     0.014 A 
HETATM   18  C   UNK N   1      29.623  18.858   9.308  0.00  0.00     0.001 A 
HETATM   19  C   UNK N   1      28.483  18.473   8.602  0.00  0.00     0.000 A 
HETATM   20  C   UNK N   1      28.578  17.496   7.611  0.00  0.00     0.001 A 
HETATM   21  C   UNK N   1      29.812  16.907   7.325  0.00  0.00     0.014 A 
ENDBRANCH   7  16
BRANCH   9  22
HETATM   22  C   UNK N   1      35.025  16.702  10.161  0.00  0.00     0.173 C 
HETATM   23  O   UNK N   1      35.823  17.579  10.460  0.00  0.00    -0.648 OA
BRANCH  22  24
HETATM   24  O   UNK N   1      34.563  15.885  11.126  0.00  0.00    -0.774 OA
HETATM   25  H   UNK N   1      34.671  15.869  12.057  0.00  0.00     0.167 HD
ENDBRANCH  22  24
ENDBRANCH   9  22
TORSDOF 3
ENDMDL
MODEL 6
REMARK VINA RESULT:      -6.7      4.174      5.962
REMARK  3 active torsions:
REMARK  status: ('A' for Active; 'I' for Inactive)
REMARK    1  A    between atoms: O_3  and  C_20 
REMARK    2  A    between atoms: C_9  and  C_12 
REMARK    3  A    between atoms: C_11  and  C_20 
ROOT
HETATM    1 Cl   UNK N   1      19.860  12.148   2.272  0.00  0.00    -0.084 Cl
HETATM    2  O   UNK N   1      20.678  19.969   0.341  0.00  0.00    -0.270 OA
HETATM    3  N   UNK N   1      20.208  17.827   0.496  0.00  0.00    -0.324 N 
HETATM    4  N   UNK N   1      21.440  18.293   3.241  0.00  0.00    -0.367 N 
ATOM      5  HN  UNK N   1      22.145  18.760   3.810  1.00  0.00     0.161 HD
HETATM    6  C   UNK N   1      20.668  16.125   2.313  0.00  0.00     0.019 A 
HETATM    7  C   UNK N   1      21.504  17.002   3.240  0.00  0.00     0.052 C 
HETATM    8  C   UNK N   1      20.061  16.545   1.083  0.00  0.00     0.047 A 
HETATM    9  C   UNK N   1      20.524  19.169   2.563  0.00  0.00     0.273 C 
HETATM   10  C   UNK N   1      20.513  19.002   1.071  0.00  0.00     0.255 C 
HETATM   11  C   UNK N   1      20.561  14.757   2.638  0.00  0.00     0.040 A 
HETATM   12  C   UNK N   1      19.387  15.603   0.290  0.00  0.00     0.032 A 
HETATM   13  C   UNK N   1      19.894  13.842   1.832  0.00  0.00     0.035 A 
HETATM   14  C   UNK N   1      19.295  14.267   0.660  0.00  0.00     0.026 A 
HETATM   15  H   UNK N   1      20.066  17.862  -0.477  0.00  0.00     0.169 HD
ENDROOT
BRANCH   7  16
HETATM   16  C   UNK N   1      22.401  16.416   4.308  0.00  0.00    -0.009 A 
HETATM   17  C   UNK N   1      21.893  16.259   5.613  0.00  0.00     0.014 A 
HETATM   18  C   UNK N   1      22.660  15.669   6.621  0.00  0.00     0.001 A 
HETATM   19  C   UNK N   1      23.947  15.211   6.340  0.00  0.00     0.000 A 
HETATM   20  C   UNK N   1      24.470  15.354   5.055  0.00  0.00     0.001 A 
HETATM   21  C   UNK N   1      23.705  15.955   4.052  0.00  0.00     0.014 A 
ENDBRANCH   7  16
BRANCH   9  22
HETATM   22  C   UNK N   1      20.817  20.574   3.070  0.00  0.00     0.173 C 
HETATM   23  O   UNK N   1      20.078  21.141   3.862  0.00  0.00    -0.648 OA
BRANCH  22  24
HETATM   24  O   UNK N   1      21.894  21.230   2.599  0.00  0.00    -0.774 OA
HETATM   25  H   UNK N   1      22.416  21.930   2.939  0.00  0.00     0.167 HD
ENDBRANCH  22  24
ENDBRANCH   9  22
TORSDOF 3
ENDMDL
MODEL 7
REMARK VINA RESULT:      -6.6     16.349     18.260
REMARK  3 active torsions:
REMARK  status: ('A' for Active; 'I' for Inactive)
REMARK    1  A    between atoms: O_3  and  C_20 
REMARK    2  A    between atoms: C_9  and  C_12 
REMARK    3  A    between atoms: C_11  and  C_20 
ROOT
HETATM    1 Cl   UNK N   1      27.292  28.663  -2.765  0.00  0.00    -0.084 Cl
HETATM    2  O   UNK N   1      24.948  23.103  -8.165  0.00  0.00    -0.270 OA
HETATM    3  N   UNK N   1      25.237  24.844  -6.854  0.00  0.00    -0.324 N 
HETATM    4  N   UNK N   1      27.853  23.369  -6.351  0.00  0.00    -0.367 N 
ATOM      5  HN  UNK N   1      28.343  22.484  -6.232  1.00  0.00     0.161 HD
HETATM    6  C   UNK N   1      27.088  25.451  -5.237  0.00  0.00     0.019 A 
HETATM    7  C   UNK N   1      27.905  24.166  -5.335  0.00  0.00     0.052 C 
HETATM    8  C   UNK N   1      25.891  25.741  -5.972  0.00  0.00     0.047 A 
HETATM    9  C   UNK N   1      27.209  23.545  -7.624  0.00  0.00     0.273 C 
HETATM   10  C   UNK N   1      25.731  23.795  -7.531  0.00  0.00     0.255 C 
HETATM   11  C   UNK N   1      27.483  26.397  -4.269  0.00  0.00     0.040 A 
HETATM   12  C   UNK N   1      25.197  26.934  -5.717  0.00  0.00     0.032 A 
HETATM   13  C   UNK N   1      26.774  27.569  -4.029  0.00  0.00     0.035 A 
HETATM   14  C   UNK N   1      25.634  27.845  -4.762  0.00  0.00     0.026 A 
HETATM   15  H   UNK N   1      24.277  25.015  -6.990  0.00  0.00     0.169 HD
ENDROOT
BRANCH   7  16
HETATM   16  C   UNK N   1      28.925  23.781  -4.286  0.00  0.00    -0.009 A 
HETATM   17  C   UNK N   1      28.478  23.433  -2.996  0.00  0.00     0.014 A 
HETATM   18  C   UNK N   1      29.374  23.013  -2.009  0.00  0.00     0.001 A 
HETATM   19  C   UNK N   1      30.734  22.917  -2.298  0.00  0.00     0.000 A 
HETATM   20  C   UNK N   1      31.200  23.255  -3.569  0.00  0.00     0.001 A 
HETATM   21  C   UNK N   1      30.303  23.686  -4.550  0.00  0.00     0.014 A 
ENDBRANCH   7  16
BRANCH   9  22
HETATM   22  C   UNK N   1      27.627  22.361  -8.484  0.00  0.00     0.173 C 
HETATM   23  O   UNK N   1      28.400  22.486  -9.422  0.00  0.00    -0.648 OA
BRANCH  22  24
HETATM   24  O   UNK N   1      27.094  21.149  -8.236  0.00  0.00    -0.774 OA
HETATM   25  H   UNK N   1      26.250  20.870  -7.941  0.00  0.00     0.167 HD
ENDBRANCH  22  24
ENDBRANCH   9  22
TORSDOF 3
ENDMDL
MODEL 8
REMARK VINA RESULT:      -6.6     17.120     18.223
REMARK  3 active torsions:
REMARK  status: ('A' for Active; 'I' for Inactive)
REMARK    1  A    between atoms: O_3  and  C_20 
REMARK    2  A    between atoms: C_9  and  C_12 
REMARK    3  A    between atoms: C_11  and  C_20 
ROOT
HETATM    1 Cl   UNK N   1      31.666  21.975  -2.877  0.00  0.00    -0.084 Cl
HETATM    2  O   UNK N   1      27.662  21.102  -9.861  0.00  0.00    -0.270 OA
HETATM    3  N   UNK N   1      28.986  20.991  -8.109  0.00  0.00    -0.324 N 
HETATM    4  N   UNK N   1      26.910  22.963  -7.074  0.00  0.00    -0.367 N 
ATOM      5  HN  UNK N   1      26.285  23.746  -7.262  1.00  0.00     0.161 HD
HETATM    6  C   UNK N   1      28.968  22.226  -5.899  0.00  0.00     0.019 A 
HETATM    7  C   UNK N   1      27.824  23.192  -6.188  0.00  0.00     0.052 C 
HETATM    8  C   UNK N   1      29.451  21.208  -6.788  0.00  0.00     0.047 A 
HETATM    9  C   UNK N   1      26.644  21.773  -7.833  0.00  0.00     0.273 C 
HETATM   10  C   UNK N   1      27.804  21.306  -8.664  0.00  0.00     0.255 C 
HETATM   11  C   UNK N   1      29.682  22.409  -4.697  0.00  0.00     0.040 A 
HETATM   12  C   UNK N   1      30.570  20.445  -6.420  0.00  0.00     0.032 A 
HETATM   13  C   UNK N   1      30.793  21.644  -4.358  0.00  0.00     0.035 A 
HETATM   14  C   UNK N   1      31.233  20.652  -5.216  0.00  0.00     0.026 A 
HETATM   15  H   UNK N   1      29.623  20.541  -8.710  0.00  0.00     0.169 HD
ENDROOT
BRANCH   7  16
HETATM   16  C   UNK N   1      27.612  24.452  -5.378  0.00  0.00    -0.009 A 
HETATM   17  C   UNK N   1      28.280  25.631  -5.766  0.00  0.00     0.014 A 
HETATM   18  C   UNK N   1      28.073  26.835  -5.087  0.00  0.00     0.001 A 
HETATM   19  C   UNK N   1      27.182  26.887  -4.016  0.00  0.00     0.000 A 
HETATM   20  C   UNK N   1      26.508  25.733  -3.616  0.00  0.00     0.001 A 
HETATM   21  C   UNK N   1      26.726  24.529  -4.289  0.00  0.00     0.014 A 
ENDBRANCH   7  16
BRANCH   9  22
HETATM   22  C   UNK N   1      25.347  22.025  -8.589  0.00  0.00     0.173 C 
HETATM   23  O   UNK N   1      24.612  22.962  -8.314  0.00  0.00    -0.648 OA
BRANCH  22  24
HETATM   24  O   UNK N   1      24.975  21.167  -9.557  0.00  0.00    -0.774 OA
HETATM   25  H   UNK N   1      24.176  20.712  -9.736  0.00  0.00     0.167 HD
ENDBRANCH  22  24
ENDBRANCH   9  22
TORSDOF 3
ENDMDL
MODEL 9
REMARK VINA RESULT:      -6.4     11.739     13.257
REMARK  3 active torsions:
REMARK  status: ('A' for Active; 'I' for Inactive)
REMARK    1  A    between atoms: O_3  and  C_20 
REMARK    2  A    between atoms: C_9  and  C_12 
REMARK    3  A    between atoms: C_11  and  C_20 
ROOT
HETATM    1 Cl   UNK N   1      32.350  11.038   4.696  0.00  0.00    -0.084 Cl
HETATM    2  O   UNK N   1      34.573  14.234  11.796  0.00  0.00    -0.270 OA
HETATM    3  N   UNK N   1      34.026  12.977  10.077  0.00  0.00    -0.324 N 
HETATM    4  N   UNK N   1      34.252  15.682   8.698  0.00  0.00    -0.367 N 
ATOM      5  HN  UNK N   1      34.105  16.690   8.731  1.00  0.00     0.161 HD
HETATM    6  C   UNK N   1      33.540  13.544   7.658  0.00  0.00     0.019 A 
HETATM    7  C   UNK N   1      33.606  15.064   7.764  0.00  0.00     0.052 C 
HETATM    8  C   UNK N   1      33.771  12.618   8.729  0.00  0.00     0.047 A 
HETATM    9  C   UNK N   1      35.146  15.162   9.696  0.00  0.00     0.273 C 
HETATM   10  C   UNK N   1      34.531  14.115  10.580  0.00  0.00     0.255 C 
HETATM   11  C   UNK N   1      33.117  12.998   6.429  0.00  0.00     0.040 A 
HETATM   12  C   UNK N   1      33.593  11.245   8.504  0.00  0.00     0.032 A 
HETATM   13  C   UNK N   1      32.940  11.633   6.233  0.00  0.00     0.035 A 
HETATM   14  C   UNK N   1      33.189  10.752   7.269  0.00  0.00     0.026 A 
HETATM   15  H   UNK N   1      33.800  12.289  10.744  0.00  0.00     0.169 HD
ENDROOT
BRANCH   7  16
HETATM   16  C   UNK N   1      33.003  15.970   6.712  0.00  0.00    -0.009 A 
HETATM   17  C   UNK N   1      33.851  16.559   5.753  0.00  0.00     0.014 A 
HETATM   18  C   UNK N   1      33.338  17.356   4.726  0.00  0.00     0.001 A 
HETATM   19  C   UNK N   1      31.963  17.567   4.629  0.00  0.00     0.000 A 
HETATM   20  C   UNK N   1      31.104  16.993   5.567  0.00  0.00     0.001 A 
HETATM   21  C   UNK N   1      31.621  16.206   6.599  0.00  0.00     0.014 A 
ENDBRANCH   7  16
BRANCH   9  22
HETATM   22  C   UNK N   1      35.741  16.366  10.411  0.00  0.00     0.173 C 
HETATM   23  O   UNK N   1      35.279  17.490  10.275  0.00  0.00    -0.648 OA
BRANCH  22  24
HETATM   24  O   UNK N   1      36.834  16.199  11.178  0.00  0.00    -0.774 OA
HETATM   25  H   UNK N   1      37.688  16.584  11.167  0.00  0.00     0.167 HD
ENDBRANCH  22  24
ENDBRANCH   9  22
TORSDOF 3
ENDMDL
