REMARK  2 active torsions:
REMARK  status: ('A' for Active; 'I' for Inactive)
REMARK    1  A    between atoms: N_3  and  N_5 
REMARK       I    between atoms: N_7  and  C_16 
REMARK       I    between atoms: N_8  and  C_16 
REMARK    2  A    between atoms: C_9  and  C_15 
ROOT
HETATM    1  N   UNK N   1       3.841   0.789   0.000  0.00  0.00    -0.297 N 
ATOM      2  HN  UNK N   1       4.726   0.281   0.000  1.00  0.00     0.186 HD
HETATM    3  C   UNK N   1       2.741   0.134   0.000  0.00  0.00     0.122 C 
ENDROOT
BRANCH   1   4
HETATM    4  N   UNK N   1       3.854   2.161   0.000  0.00  0.00    -0.133 N 
HETATM    5  C   UNK N   1       4.971   2.799   0.000  0.00  0.00     0.684 C 
HETATM    6  N   UNK N   1       4.973   4.210  -0.000  0.00  0.00    -0.234 N 
HETATM    7  N   UNK N   1       6.202   2.100   0.000  0.00  0.00    -0.234 N 
HETATM    8  H   UNK N   1       5.826   4.701  -0.000  0.00  0.00     0.174 HD
HETATM    9  H   UNK N   1       4.121   4.703  -0.000  0.00  0.00     0.174 HD
HETATM   10  H   UNK N   1       6.209   1.115   0.000  0.00  0.00     0.174 HD
HETATM   11  H   UNK N   1       7.052   2.598   0.000  0.00  0.00     0.174 HD
ATOM     12  HN  UNK N   1       2.974   2.676  -0.000  1.00  0.00     0.205 HD
ENDBRANCH   1   4
BRANCH   3  13
HETATM   13  C   UNK N   1       2.720  -1.354  -0.000  0.00  0.00     0.024 A 
HETATM   14  C   UNK N   1       3.907  -2.143  -0.000  0.00  0.00     0.047 A 
HETATM   15 Cl   UNK N   1       5.533  -1.465  -0.000  0.00  0.00    -0.083 Cl
HETATM   16  C   UNK N   1       3.813  -3.536  -0.000  0.00  0.00     0.025 A 
HETATM   17  C   UNK N   1       2.573  -4.166  -0.000  0.00  0.00     0.003 A 
HETATM   18  C   UNK N   1       1.406  -3.406  -0.000  0.00  0.00     0.025 A 
HETATM   19  C   UNK N   1       1.469  -2.011  -0.000  0.00  0.00     0.047 A 
HETATM   20 Cl   UNK N   1      -0.044  -1.113   0.000  0.00  0.00    -0.083 Cl
ENDBRANCH   3  13
TORSDOF 2
