MODEL 1
REMARK VINA RESULT:      -5.7      0.000      0.000
REMARK  2 active torsions:
REMARK  status: ('A' for Active; 'I' for Inactive)
REMARK    1  A    between atoms: N_3  and  N_5 
REMARK       I    between atoms: N_7  and  C_16 
REMARK       I    between atoms: N_8  and  C_16 
REMARK    2  A    between atoms: C_9  and  C_15 
ROOT
HETATM    1  N   UNK N   1      35.939  12.844  15.123  0.00  0.00    -0.297 N 
ATOM      2  HN  UNK N   1      36.813  12.379  15.368  1.00  0.00     0.186 HD
HETATM    3  C   UNK N   1      34.976  12.859  15.967  0.00  0.00     0.122 C 
ENDROOT
BRANCH   1   4
HETATM    4  N   UNK N   1      35.818  13.442  13.893  0.00  0.00    -0.133 N 
HETATM    5  C   UNK N   1      36.386  14.573  13.664  0.00  0.00     0.684 C 
HETATM    6  N   UNK N   1      36.255  15.179  12.396  0.00  0.00    -0.234 N 
HETATM    7  N   UNK N   1      37.143  15.219  14.671  0.00  0.00    -0.234 N 
HETATM    8  H   UNK N   1      36.689  16.044  12.217  0.00  0.00     0.174 HD
HETATM    9  H   UNK N   1      35.731  14.735  11.691  0.00  0.00     0.174 HD
HETATM   10  H   UNK N   1      37.238  14.802  15.558  0.00  0.00     0.174 HD
HETATM   11  H   UNK N   1      37.574  16.085  14.484  0.00  0.00     0.174 HD
ATOM     12  HN  UNK N   1      35.275  12.986  13.160  1.00  0.00     0.205 HD
ENDBRANCH   1   4
BRANCH   3  13
HETATM   13  C   UNK N   1      35.101  12.212  17.302  0.00  0.00     0.024 A 
HETATM   14  C   UNK N   1      35.086  10.798  17.479  0.00  0.00     0.047 A 
HETATM   15 Cl   UNK N   1      34.920   9.647  16.156  0.00  0.00    -0.083 Cl
HETATM   16  C   UNK N   1      35.207  10.260  18.762  0.00  0.00     0.025 A 
HETATM   17  C   UNK N   1      35.343  11.087  19.871  0.00  0.00     0.003 A 
HETATM   18  C   UNK N   1      35.359  12.470  19.711  0.00  0.00     0.025 A 
HETATM   19  C   UNK N   1      35.240  13.038  18.440  0.00  0.00     0.047 A 
HETATM   20 Cl   UNK N   1      35.268  14.792  18.310  0.00  0.00    -0.083 Cl
ENDBRANCH   3  13
TORSDOF 2
ENDMDL
MODEL 2
REMARK VINA RESULT:      -5.6      0.130      2.482
REMARK  2 active torsions:
REMARK  status: ('A' for Active; 'I' for Inactive)
REMARK    1  A    between atoms: N_3  and  N_5 
REMARK       I    between atoms: N_7  and  C_16 
REMARK       I    between atoms: N_8  and  C_16 
REMARK    2  A    between atoms: C_9  and  C_15 
ROOT
HETATM    1  N   UNK N   1      35.989  12.991  15.273  0.00  0.00    -0.297 N 
ATOM      2  HN  UNK N   1      36.914  12.952  15.702  1.00  0.00     0.186 HD
HETATM    3  C   UNK N   1      34.968  12.610  15.944  0.00  0.00     0.122 C 
ENDROOT
BRANCH   1   4
HETATM    4  N   UNK N   1      35.865  13.453  13.987  0.00  0.00    -0.133 N 
HETATM    5  C   UNK N   1      36.402  14.571  13.644  0.00  0.00     0.684 C 
HETATM    6  N   UNK N   1      36.268  15.036  12.319  0.00  0.00    -0.234 N 
HETATM    7  N   UNK N   1      37.128  15.341  14.584  0.00  0.00    -0.234 N 
HETATM    8  H   UNK N   1      36.678  15.891  12.053  0.00  0.00     0.174 HD
HETATM    9  H   UNK N   1      35.765  14.506  11.660  0.00  0.00     0.174 HD
HETATM   10  H   UNK N   1      37.226  15.023  15.511  0.00  0.00     0.174 HD
HETATM   11  H   UNK N   1      37.536  16.196  14.311  0.00  0.00     0.174 HD
ATOM     12  HN  UNK N   1      35.345  12.907  13.300  1.00  0.00     0.205 HD
ENDBRANCH   1   4
BRANCH   3  13
HETATM   13  C   UNK N   1      35.096  12.108  17.339  0.00  0.00     0.024 A 
HETATM   14  C   UNK N   1      35.227  12.975  18.463  0.00  0.00     0.047 A 
HETATM   15 Cl   UNK N   1      35.253  14.733  18.345  0.00  0.00    -0.083 Cl
HETATM   16  C   UNK N   1      35.343  12.435  19.745  0.00  0.00     0.025 A 
HETATM   17  C   UNK N   1      35.332  11.058  19.942  0.00  0.00     0.003 A 
HETATM   18  C   UNK N   1      35.205  10.201  18.852  0.00  0.00     0.025 A 
HETATM   19  C   UNK N   1      35.087  10.712  17.558  0.00  0.00     0.047 A 
HETATM   20 Cl   UNK N   1      34.930   9.572  16.227  0.00  0.00    -0.083 Cl
ENDBRANCH   3  13
TORSDOF 2
ENDMDL
MODEL 3
REMARK VINA RESULT:      -5.5      8.366     11.180
REMARK  2 active torsions:
REMARK  status: ('A' for Active; 'I' for Inactive)
REMARK    1  A    between atoms: N_3  and  N_5 
REMARK       I    between atoms: N_7  and  C_16 
REMARK       I    between atoms: N_8  and  C_16 
REMARK    2  A    between atoms: C_9  and  C_15 
ROOT
HETATM    1  N   UNK N   1      32.869  16.846   9.130  0.00  0.00    -0.297 N 
ATOM      2  HN  UNK N   1      32.347  15.984   9.296  1.00  0.00     0.186 HD
HETATM    3  C   UNK N   1      32.356  17.758   8.393  0.00  0.00     0.122 C 
ENDROOT
BRANCH   1   4
HETATM    4  N   UNK N   1      34.106  17.003   9.702  0.00  0.00    -0.133 N 
HETATM    5  C   UNK N   1      34.545  16.136  10.546  0.00  0.00     0.684 C 
HETATM    6  N   UNK N   1      35.819  16.308  11.128  0.00  0.00    -0.234 N 
HETATM    7  N   UNK N   1      33.763  15.010  10.897  0.00  0.00    -0.234 N 
HETATM    8  H   UNK N   1      36.157  15.646  11.774  0.00  0.00     0.174 HD
HETATM    9  H   UNK N   1      36.368  17.089  10.889  0.00  0.00     0.174 HD
HETATM   10  H   UNK N   1      32.873  14.883  10.495  0.00  0.00     0.174 HD
HETATM   11  H   UNK N   1      34.109  14.352  11.544  0.00  0.00     0.174 HD
ATOM     12  HN  UNK N   1      34.678  17.810   9.458  1.00  0.00     0.205 HD
ENDBRANCH   1   4
BRANCH   3  13
HETATM   13  C   UNK N   1      31.014  17.594   7.770  0.00  0.00     0.024 A 
HETATM   14  C   UNK N   1      29.809  18.000   8.413  0.00  0.00     0.047 A 
HETATM   15 Cl   UNK N   1      29.753  18.739  10.011  0.00  0.00    -0.083 Cl
HETATM   16  C   UNK N   1      28.584  17.815   7.769  0.00  0.00     0.025 A 
HETATM   17  C   UNK N   1      28.524  17.240   6.504  0.00  0.00     0.003 A 
HETATM   18  C   UNK N   1      29.695  16.840   5.865  0.00  0.00     0.025 A 
HETATM   19  C   UNK N   1      30.935  17.011   6.485  0.00  0.00     0.047 A 
HETATM   20 Cl   UNK N   1      32.373  16.483   5.621  0.00  0.00    -0.083 Cl
ENDBRANCH   3  13
TORSDOF 2
ENDMDL
MODEL 4
REMARK VINA RESULT:      -5.3      1.985      3.664
REMARK  2 active torsions:
REMARK  status: ('A' for Active; 'I' for Inactive)
REMARK    1  A    between atoms: N_3  and  N_5 
REMARK       I    between atoms: N_7  and  C_16 
REMARK       I    between atoms: N_8  and  C_16 
REMARK    2  A    between atoms: C_9  and  C_15 
ROOT
HETATM    1  N   UNK N   1      36.161  14.406  13.304  0.00  0.00    -0.297 N 
ATOM      2  HN  UNK N   1      35.417  15.061  13.546  1.00  0.00     0.186 HD
HETATM    3  C   UNK N   1      36.676  13.673  14.219  0.00  0.00     0.122 C 
ENDROOT
BRANCH   1   4
HETATM    4  N   UNK N   1      36.591  14.330  12.003  0.00  0.00    -0.133 N 
HETATM    5  C   UNK N   1      36.049  15.065  11.097  0.00  0.00     0.684 C 
HETATM    6  N   UNK N   1      36.498  14.978   9.762  0.00  0.00    -0.234 N 
HETATM    7  N   UNK N   1      35.004  15.962  11.424  0.00  0.00    -0.234 N 
HETATM    8  H   UNK N   1      36.086  15.539   9.066  0.00  0.00     0.174 HD
HETATM    9  H   UNK N   1      37.224  14.356   9.527  0.00  0.00     0.174 HD
HETATM   10  H   UNK N   1      34.685  16.028  12.353  0.00  0.00     0.174 HD
HETATM   11  H   UNK N   1      34.596  16.520  10.722  0.00  0.00     0.174 HD
ATOM     12  HN  UNK N   1      37.343  13.687  11.755  1.00  0.00     0.205 HD
ENDBRANCH   1   4
BRANCH   3  13
HETATM   13  C   UNK N   1      36.214  13.752  15.631  0.00  0.00     0.024 A 
HETATM   14  C   UNK N   1      36.572  14.822  16.502  0.00  0.00     0.047 A 
HETATM   15 Cl   UNK N   1      37.594  16.174  16.023  0.00  0.00    -0.083 Cl
HETATM   16  C   UNK N   1      36.103  14.831  17.817  0.00  0.00     0.025 A 
HETATM   17  C   UNK N   1      35.289  13.807  18.290  0.00  0.00     0.003 A 
HETATM   18  C   UNK N   1      34.932  12.756  17.449  0.00  0.00     0.025 A 
HETATM   19  C   UNK N   1      35.387  12.720  16.129  0.00  0.00     0.047 A 
HETATM   20 Cl   UNK N   1      34.898  11.363  15.121  0.00  0.00    -0.083 Cl
ENDBRANCH   3  13
TORSDOF 2
ENDMDL
MODEL 5
REMARK VINA RESULT:      -5.3      8.983     11.480
REMARK  2 active torsions:
REMARK  status: ('A' for Active; 'I' for Inactive)
REMARK    1  A    between atoms: N_3  and  N_5 
REMARK       I    between atoms: N_7  and  C_16 
REMARK       I    between atoms: N_8  and  C_16 
REMARK    2  A    between atoms: C_9  and  C_15 
ROOT
HETATM    1  N   UNK N   1      32.371  17.199   8.727  0.00  0.00    -0.297 N 
ATOM      2  HN  UNK N   1      32.552  18.116   8.319  1.00  0.00     0.186 HD
HETATM    3  C   UNK N   1      31.232  16.643   8.545  0.00  0.00     0.122 C 
ENDROOT
BRANCH   1   4
HETATM    4  N   UNK N   1      33.355  16.585   9.461  0.00  0.00    -0.133 N 
HETATM    5  C   UNK N   1      34.545  17.073   9.487  0.00  0.00     0.684 C 
HETATM    6  N   UNK N   1      35.549  16.434  10.245  0.00  0.00    -0.234 N 
HETATM    7  N   UNK N   1      34.860  18.247   8.761  0.00  0.00    -0.234 N 
HETATM    8  H   UNK N   1      36.460  16.804  10.266  0.00  0.00     0.174 HD
HETATM    9  H   UNK N   1      35.337  15.617  10.752  0.00  0.00     0.174 HD
HETATM   10  H   UNK N   1      34.164  18.699   8.230  0.00  0.00     0.174 HD
HETATM   11  H   UNK N   1      35.774  18.612   8.788  0.00  0.00     0.174 HD
ATOM     12  HN  UNK N   1      33.140  15.739   9.988  1.00  0.00     0.205 HD
ENDBRANCH   1   4
BRANCH   3  13
HETATM   13  C   UNK N   1      30.161  17.303   7.750  0.00  0.00     0.024 A 
HETATM   14  C   UNK N   1      29.893  16.972   6.390  0.00  0.00     0.047 A 
HETATM   15 Cl   UNK N   1      30.785  15.751   5.486  0.00  0.00    -0.083 Cl
HETATM   16  C   UNK N   1      28.872  17.632   5.704  0.00  0.00     0.025 A 
HETATM   17  C   UNK N   1      28.111  18.612   6.332  0.00  0.00     0.003 A 
HETATM   18  C   UNK N   1      28.363  18.945   7.661  0.00  0.00     0.025 A 
HETATM   19  C   UNK N   1      29.378  18.302   8.372  0.00  0.00     0.047 A 
HETATM   20 Cl   UNK N   1      29.643  18.771  10.046  0.00  0.00    -0.083 Cl
ENDBRANCH   3  13
TORSDOF 2
ENDMDL
MODEL 6
REMARK VINA RESULT:      -5.1      1.704      3.162
REMARK  2 active torsions:
REMARK  status: ('A' for Active; 'I' for Inactive)
REMARK    1  A    between atoms: N_3  and  N_5 
REMARK       I    between atoms: N_7  and  C_16 
REMARK       I    between atoms: N_8  and  C_16 
REMARK    2  A    between atoms: C_9  and  C_15 
ROOT
HETATM    1  N   UNK N   1      35.998  13.597  14.102  0.00  0.00    -0.297 N 
ATOM      2  HN  UNK N   1      35.074  13.187  13.966  1.00  0.00     0.186 HD
HETATM    3  C   UNK N   1      36.752  13.151  15.036  0.00  0.00     0.122 C 
ENDROOT
BRANCH   1   4
HETATM    4  N   UNK N   1      36.409  14.615  13.279  0.00  0.00    -0.133 N 
HETATM    5  C   UNK N   1      35.809  14.828  12.161  0.00  0.00     0.684 C 
HETATM    6  N   UNK N   1      36.239  15.878  11.323  0.00  0.00    -0.234 N 
HETATM    7  N   UNK N   1      34.719  14.017  11.761  0.00  0.00    -0.234 N 
HETATM    8  H   UNK N   1      35.783  16.042  10.467  0.00  0.00     0.174 HD
HETATM    9  H   UNK N   1      36.996  16.445  11.594  0.00  0.00     0.174 HD
HETATM   10  H   UNK N   1      34.413  13.282  12.341  0.00  0.00     0.174 HD
HETATM   11  H   UNK N   1      34.267  14.188  10.903  0.00  0.00     0.174 HD
ATOM     12  HN  UNK N   1      37.192  15.206  13.556  1.00  0.00     0.205 HD
ENDBRANCH   1   4
BRANCH   3  13
HETATM   13  C   UNK N   1      36.313  12.047  15.932  0.00  0.00     0.024 A 
HETATM   14  C   UNK N   1      35.560  12.271  17.122  0.00  0.00     0.047 A 
HETATM   15 Cl   UNK N   1      35.060  13.865  17.678  0.00  0.00    -0.083 Cl
HETATM   16  C   UNK N   1      35.181  11.187  17.916  0.00  0.00     0.025 A 
HETATM   17  C   UNK N   1      35.529   9.888  17.560  0.00  0.00     0.003 A 
HETATM   18  C   UNK N   1      36.264   9.656  16.400  0.00  0.00     0.025 A 
HETATM   19  C   UNK N   1      36.657  10.721  15.586  0.00  0.00     0.047 A 
HETATM   20 Cl   UNK N   1      37.584  10.357  14.136  0.00  0.00    -0.083 Cl
ENDBRANCH   3  13
TORSDOF 2
ENDMDL
MODEL 7
REMARK VINA RESULT:      -5.1     17.598     19.319
REMARK  2 active torsions:
REMARK  status: ('A' for Active; 'I' for Inactive)
REMARK    1  A    between atoms: N_3  and  N_5 
REMARK       I    between atoms: N_7  and  C_16 
REMARK       I    between atoms: N_8  and  C_16 
REMARK    2  A    between atoms: C_9  and  C_15 
ROOT
HETATM    1  N   UNK N   1      44.648  23.357   2.929  0.00  0.00    -0.297 N 
ATOM      2  HN  UNK N   1      44.034  23.690   3.672  1.00  0.00     0.186 HD
HETATM    3  C   UNK N   1      44.252  22.409   2.164  0.00  0.00     0.122 C 
ENDROOT
BRANCH   1   4
HETATM    4  N   UNK N   1      45.882  23.935   2.767  0.00  0.00    -0.133 N 
HETATM    5  C   UNK N   1      46.004  25.028   2.100  0.00  0.00     0.684 C 
HETATM    6  N   UNK N   1      47.278  25.613   1.941  0.00  0.00    -0.234 N 
HETATM    7  N   UNK N   1      44.872  25.651   1.522  0.00  0.00    -0.234 N 
HETATM    8  H   UNK N   1      47.375  26.450   1.431  0.00  0.00     0.174 HD
HETATM    9  H   UNK N   1      48.070  25.185   2.340  0.00  0.00     0.174 HD
HETATM   10  H   UNK N   1      43.980  25.249   1.629  0.00  0.00     0.174 HD
HETATM   11  H   UNK N   1      44.977  26.488   1.013  0.00  0.00     0.174 HD
ATOM     12  HN  UNK N   1      46.705  23.495   3.179  1.00  0.00     0.205 HD
ENDBRANCH   1   4
BRANCH   3  13
HETATM   13  C   UNK N   1      42.915  21.778   2.334  0.00  0.00     0.024 A 
HETATM   14  C   UNK N   1      41.701  22.432   1.972  0.00  0.00     0.047 A 
HETATM   15 Cl   UNK N   1      41.630  24.052   1.285  0.00  0.00    -0.083 Cl
HETATM   16  C   UNK N   1      40.481  21.780   2.159  0.00  0.00     0.025 A 
HETATM   17  C   UNK N   1      40.434  20.497   2.694  0.00  0.00     0.003 A 
HETATM   18  C   UNK N   1      41.613  19.848   3.052  0.00  0.00     0.025 A 
HETATM   19  C   UNK N   1      42.848  20.475   2.877  0.00  0.00     0.047 A 
HETATM   20 Cl   UNK N   1      44.298  19.597   3.350  0.00  0.00    -0.083 Cl
ENDBRANCH   3  13
TORSDOF 2
ENDMDL
MODEL 8
REMARK VINA RESULT:      -5.1      3.005      4.019
REMARK  2 active torsions:
REMARK  status: ('A' for Active; 'I' for Inactive)
REMARK    1  A    between atoms: N_3  and  N_5 
REMARK       I    between atoms: N_7  and  C_16 
REMARK       I    between atoms: N_8  and  C_16 
REMARK    2  A    between atoms: C_9  and  C_15 
ROOT
HETATM    1  N   UNK N   1      34.537  13.593  11.735  0.00  0.00    -0.297 N 
ATOM      2  HN  UNK N   1      33.617  13.702  12.164  1.00  0.00     0.186 HD
HETATM    3  C   UNK N   1      35.452  12.957  12.365  0.00  0.00     0.122 C 
ENDROOT
BRANCH   1   4
HETATM    4  N   UNK N   1      34.768  14.134  10.495  0.00  0.00    -0.133 N 
HETATM    5  C   UNK N   1      33.864  14.844   9.919  0.00  0.00     0.684 C 
HETATM    6  N   UNK N   1      34.111  15.395   8.643  0.00  0.00    -0.234 N 
HETATM    7  N   UNK N   1      32.619  15.080  10.550  0.00  0.00    -0.234 N 
HETATM    8  H   UNK N   1      33.421  15.939   8.200  0.00  0.00     0.174 HD
HETATM    9  H   UNK N   1      34.974  15.235   8.198  0.00  0.00     0.174 HD
HETATM   10  H   UNK N   1      32.438  14.699  11.441  0.00  0.00     0.174 HD
HETATM   11  H   UNK N   1      31.933  15.626  10.100  0.00  0.00     0.174 HD
ATOM     12  HN  UNK N   1      35.660  13.971  10.030  1.00  0.00     0.205 HD
ENDBRANCH   1   4
BRANCH   3  13
HETATM   13  C   UNK N   1      35.209  12.369  13.710  0.00  0.00     0.024 A 
HETATM   14  C   UNK N   1      34.446  11.181  13.906  0.00  0.00     0.047 A 
HETATM   15 Cl   UNK N   1      33.702  10.267  12.596  0.00  0.00    -0.083 Cl
HETATM   16  C   UNK N   1      34.257  10.685  15.197  0.00  0.00     0.025 A 
HETATM   17  C   UNK N   1      34.804  11.336  16.298  0.00  0.00     0.003 A 
HETATM   18  C   UNK N   1      35.552  12.497  16.119  0.00  0.00     0.025 A 
HETATM   19  C   UNK N   1      35.757  13.017  14.839  0.00  0.00     0.047 A 
HETATM   20 Cl   UNK N   1      36.711  14.487  14.685  0.00  0.00    -0.083 Cl
ENDBRANCH   3  13
TORSDOF 2
ENDMDL
MODEL 9
REMARK VINA RESULT:      -5.1      3.049      4.671
REMARK  2 active torsions:
REMARK  status: ('A' for Active; 'I' for Inactive)
REMARK    1  A    between atoms: N_3  and  N_5 
REMARK       I    between atoms: N_7  and  C_16 
REMARK       I    between atoms: N_8  and  C_16 
REMARK    2  A    between atoms: C_9  and  C_15 
ROOT
HETATM    1  N   UNK N   1      34.518  13.584  11.711  0.00  0.00    -0.297 N 
ATOM      2  HN  UNK N   1      33.694  13.886  12.231  1.00  0.00     0.186 HD
HETATM    3  C   UNK N   1      35.378  12.825  12.281  0.00  0.00     0.122 C 
ENDROOT
BRANCH   1   4
HETATM    4  N   UNK N   1      34.682  13.999  10.413  0.00  0.00    -0.133 N 
HETATM    5  C   UNK N   1      33.788  14.731   9.849  0.00  0.00     0.684 C 
HETATM    6  N   UNK N   1      33.967  15.152   8.514  0.00  0.00    -0.234 N 
HETATM    7  N   UNK N   1      32.623  15.121  10.553  0.00  0.00    -0.234 N 
HETATM    8  H   UNK N   1      33.285  15.713   8.079  0.00  0.00     0.174 HD
HETATM    9  H   UNK N   1      34.774  14.885   8.018  0.00  0.00     0.174 HD
HETATM   10  H   UNK N   1      32.491  14.831  11.485  0.00  0.00     0.174 HD
HETATM   11  H   UNK N   1      31.945  15.682  10.111  0.00  0.00     0.174 HD
ATOM     12  HN  UNK N   1      35.517  13.725   9.896  1.00  0.00     0.205 HD
ENDBRANCH   1   4
BRANCH   3  13
HETATM   13  C   UNK N   1      35.205  12.372  13.688  0.00  0.00     0.024 A 
HETATM   14  C   UNK N   1      35.760  13.072  14.798  0.00  0.00     0.047 A 
HETATM   15 Cl   UNK N   1      36.711  14.548  14.649  0.00  0.00    -0.083 Cl
HETATM   16  C   UNK N   1      35.559  12.589  16.093  0.00  0.00     0.025 A 
HETATM   17  C   UNK N   1      34.822  11.431  16.314  0.00  0.00     0.003 A 
HETATM   18  C   UNK N   1      34.275  10.737  15.237  0.00  0.00     0.025 A 
HETATM   19  C   UNK N   1      34.459  11.197  13.931  0.00  0.00     0.047 A 
HETATM   20 Cl   UNK N   1      33.740  10.272  12.618  0.00  0.00    -0.083 Cl
ENDBRANCH   3  13
TORSDOF 2
ENDMDL
