MODEL 1
REMARK VINA RESULT:      -4.7      0.000      0.000
REMARK  11 active torsions:
REMARK  status: ('A' for Active; 'I' for Inactive)
REMARK    1  A    between atoms: P_1  and  O_4 
REMARK    2  A    between atoms: P_1  and  O_5 
REMARK    3  A    between atoms: P_1  and  C_11 
REMARK    4  A    between atoms: P_2  and  O_6 
REMARK    5  A    between atoms: P_2  and  O_7 
REMARK    6  A    between atoms: P_2  and  C_11 
REMARK    7  A    between atoms: O_3  and  C_11 
REMARK    8  A    between atoms: N_10  and  C_14 
REMARK    9  A    between atoms: C_11  and  C_12 
REMARK   10  A    between atoms: C_12  and  C_13 
REMARK   11  A    between atoms: C_13  and  C_14 
ROOT
HETATM    1  C   UNK N   1      19.847  17.609   2.546  0.00  0.00     0.252 C 
ENDROOT
BRANCH   1   2
HETATM    2  P   UNK N   1      20.038  16.716   0.911  0.00  0.00     0.283 P 
HETATM    3  O   UNK N   1      20.403  17.688  -0.241  0.00  0.00    -0.651 OA
BRANCH   2   4
HETATM    4  O   UNK N   1      18.592  15.928   0.359  0.00  0.00    -0.327 OA
HETATM    5  H   UNK N   1      17.692  15.995   0.713  0.00  0.00     0.220 HD
ENDBRANCH   2   4
BRANCH   2   6
HETATM    6  O   UNK N   1      21.296  15.520   0.872  0.00  0.00    -0.327 OA
HETATM    7  H   UNK N   1      21.427  14.822   1.532  0.00  0.00     0.220 HD
ENDBRANCH   2   6
ENDBRANCH   1   2
BRANCH   1   8
HETATM    8  P   UNK N   1      19.889  16.399   3.970  0.00  0.00     0.283 P 
HETATM    9  O   UNK N   1      20.890  16.861   5.061  0.00  0.00    -0.651 OA
BRANCH   8  10
HETATM   10  O   UNK N   1      20.453  14.817   3.529  0.00  0.00    -0.327 OA
HETATM   11  H   UNK N   1      20.334  14.334   2.697  0.00  0.00     0.220 HD
ENDBRANCH   8  10
BRANCH   8  12
HETATM   12  O   UNK N   1      18.394  16.178   4.823  0.00  0.00    -0.327 OA
HETATM   13  H   UNK N   1      17.492  15.826   4.778  0.00  0.00     0.220 HD
ENDBRANCH   8  12
ENDBRANCH   1   8
BRANCH   1  14
HETATM   14  O   UNK N   1      18.610  18.248   2.551  0.00  0.00    -0.368 OA
HETATM   15  H   UNK N   1      18.005  18.759   1.990  0.00  0.00     0.212 HD
ENDBRANCH   1  14
BRANCH   1  16
HETATM   16  C   UNK N   1      20.936  18.669   2.726  0.00  0.00     0.065 C 
BRANCH  16  17
HETATM   17  C   UNK N   1      20.394  20.090   2.785  0.00  0.00     0.023 C 
BRANCH  17  18
HETATM   18  C   UNK N   1      21.060  20.935   1.723  0.00  0.00     0.111 C 
BRANCH  18  19
HETATM   19  N   UNK N   1      20.439  20.670   0.439  0.00  0.00    -0.430 N 
HETATM   20  H   UNK N   1      20.107  19.834  -0.042  0.00  0.00     0.149 HD
HETATM   21  H   UNK N   1      20.302  21.518  -0.112  0.00  0.00     0.149 HD
ENDBRANCH  18  19
ENDBRANCH  17  18
ENDBRANCH  16  17
ENDBRANCH   1  16
TORSDOF 11
ENDMDL
MODEL 2
REMARK VINA RESULT:      -4.7     14.941     16.262
REMARK  11 active torsions:
REMARK  status: ('A' for Active; 'I' for Inactive)
REMARK    1  A    between atoms: P_1  and  O_4 
REMARK    2  A    between atoms: P_1  and  O_5 
REMARK    3  A    between atoms: P_1  and  C_11 
REMARK    4  A    between atoms: P_2  and  O_6 
REMARK    5  A    between atoms: P_2  and  O_7 
REMARK    6  A    between atoms: P_2  and  C_11 
REMARK    7  A    between atoms: O_3  and  C_11 
REMARK    8  A    between atoms: N_10  and  C_14 
REMARK    9  A    between atoms: C_11  and  C_12 
REMARK   10  A    between atoms: C_12  and  C_13 
REMARK   11  A    between atoms: C_13  and  C_14 
ROOT
HETATM    1  C   UNK N   1      34.461  16.228   8.888  0.00  0.00     0.252 C 
ENDROOT
BRANCH   1   2
HETATM    2  P   UNK N   1      32.861  15.257   8.950  0.00  0.00     0.283 P 
HETATM    3  O   UNK N   1      33.080  13.757   8.618  0.00  0.00    -0.651 OA
BRANCH   2   4
HETATM    4  O   UNK N   1      31.670  15.776   7.798  0.00  0.00    -0.327 OA
HETATM    5  H   UNK N   1      31.722  15.774   6.829  0.00  0.00     0.220 HD
ENDBRANCH   2   4
BRANCH   2   6
HETATM    6  O   UNK N   1      32.074  15.239  10.497  0.00  0.00    -0.327 OA
HETATM    7  H   UNK N   1      31.314  15.785  10.747  0.00  0.00     0.220 HD
ENDBRANCH   2   6
ENDBRANCH   1   2
BRANCH   1   8
HETATM    8  P   UNK N   1      34.210  17.861   8.015  0.00  0.00     0.283 P 
HETATM    9  O   UNK N   1      32.776  18.404   8.253  0.00  0.00    -0.651 OA
BRANCH   8  10
HETATM   10  O   UNK N   1      34.336  17.759   6.286  0.00  0.00    -0.327 OA
HETATM   11  H   UNK N   1      35.108  17.906   5.718  0.00  0.00     0.220 HD
ENDBRANCH   8  10
BRANCH   8  12
HETATM   12  O   UNK N   1      35.250  19.158   8.516  0.00  0.00    -0.327 OA
HETATM   13  H   UNK N   1      36.113  19.584   8.397  0.00  0.00     0.220 HD
ENDBRANCH   8  12
ENDBRANCH   1   8
BRANCH   1  14
HETATM   14  O   UNK N   1      35.394  15.485   8.169  0.00  0.00    -0.368 OA
HETATM   15  H   UNK N   1      35.856  15.446   7.317  0.00  0.00     0.212 HD
ENDBRANCH   1  14
BRANCH   1  16
HETATM   16  C   UNK N   1      35.017  16.465  10.294  0.00  0.00     0.065 C 
BRANCH  16  17
HETATM   17  C   UNK N   1      35.985  15.384  10.753  0.00  0.00     0.023 C 
BRANCH  17  18
HETATM   18  C   UNK N   1      35.426  14.682  11.969  0.00  0.00     0.111 C 
BRANCH  18  19
HETATM   19  N   UNK N   1      34.537  13.617  11.543  0.00  0.00    -0.430 N 
HETATM   20  H   UNK N   1      34.664  12.710  11.092  0.00  0.00     0.149 HD
HETATM   21  H   UNK N   1      33.557  13.823  11.738  0.00  0.00     0.149 HD
ENDBRANCH  18  19
ENDBRANCH  17  18
ENDBRANCH  16  17
ENDBRANCH   1  16
TORSDOF 11
ENDMDL
MODEL 3
REMARK VINA RESULT:      -4.6     17.521     18.798
REMARK  11 active torsions:
REMARK  status: ('A' for Active; 'I' for Inactive)
REMARK    1  A    between atoms: P_1  and  O_4 
REMARK    2  A    between atoms: P_1  and  O_5 
REMARK    3  A    between atoms: P_1  and  C_11 
REMARK    4  A    between atoms: P_2  and  O_6 
REMARK    5  A    between atoms: P_2  and  O_7 
REMARK    6  A    between atoms: P_2  and  C_11 
REMARK    7  A    between atoms: O_3  and  C_11 
REMARK    8  A    between atoms: N_10  and  C_14 
REMARK    9  A    between atoms: C_11  and  C_12 
REMARK   10  A    between atoms: C_12  and  C_13 
REMARK   11  A    between atoms: C_13  and  C_14 
ROOT
HETATM    1  C   UNK N   1      36.182  14.704  10.691  0.00  0.00     0.252 C 
ENDROOT
BRANCH   1   2
HETATM    2  P   UNK N   1      34.583  15.546  10.200  0.00  0.00     0.283 P 
HETATM    3  O   UNK N   1      34.196  15.241   8.729  0.00  0.00    -0.651 OA
BRANCH   2   4
HETATM    4  O   UNK N   1      34.642  17.280  10.272  0.00  0.00    -0.327 OA
HETATM    5  H   UNK N   1      34.084  17.885  10.785  0.00  0.00     0.220 HD
ENDBRANCH   2   4
BRANCH   2   6
HETATM    6  O   UNK N   1      33.190  15.062  11.115  0.00  0.00    -0.327 OA
HETATM    7  H   UNK N   1      32.842  14.159  11.173  0.00  0.00     0.220 HD
ENDBRANCH   2   6
ENDBRANCH   1   2
BRANCH   1   8
HETATM    8  P   UNK N   1      36.059  14.008  12.421  0.00  0.00     0.283 P 
HETATM    9  O   UNK N   1      36.266  15.120  13.484  0.00  0.00    -0.651 OA
BRANCH   8  10
HETATM   10  O   UNK N   1      37.286  12.839  12.797  0.00  0.00    -0.327 OA
HETATM   11  H   UNK N   1      37.308  11.890  12.601  0.00  0.00     0.220 HD
ENDBRANCH   8  10
BRANCH   8  12
HETATM   12  O   UNK N   1      34.537  13.288  12.843  0.00  0.00    -0.327 OA
HETATM   13  H   UNK N   1      33.644  13.446  13.187  0.00  0.00     0.220 HD
ENDBRANCH   8  12
ENDBRANCH   1   8
BRANCH   1  14
HETATM   14  O   UNK N   1      37.198  15.656  10.673  0.00  0.00    -0.368 OA
HETATM   15  H   UNK N   1      37.895  16.049  11.222  0.00  0.00     0.212 HD
ENDBRANCH   1  14
BRANCH   1  16
HETATM   16  C   UNK N   1      36.547  13.593   9.704  0.00  0.00     0.065 C 
BRANCH  16  17
HETATM   17  C   UNK N   1      37.795  13.894   8.887  0.00  0.00     0.023 C 
BRANCH  17  18
HETATM   18  C   UNK N   1      38.910  12.958   9.296  0.00  0.00     0.111 C 
BRANCH  18  19
HETATM   19  N   UNK N   1      39.301  13.244  10.664  0.00  0.00    -0.430 N 
HETATM   20  H   UNK N   1      38.945  12.984  11.584  0.00  0.00     0.149 HD
HETATM   21  H   UNK N   1      40.123  13.846  10.718  0.00  0.00     0.149 HD
ENDBRANCH  18  19
ENDBRANCH  17  18
ENDBRANCH  16  17
ENDBRANCH   1  16
TORSDOF 11
ENDMDL
MODEL 4
REMARK VINA RESULT:      -4.6     14.077     15.359
REMARK  11 active torsions:
REMARK  status: ('A' for Active; 'I' for Inactive)
REMARK    1  A    between atoms: P_1  and  O_4 
REMARK    2  A    between atoms: P_1  and  O_5 
REMARK    3  A    between atoms: P_1  and  C_11 
REMARK    4  A    between atoms: P_2  and  O_6 
REMARK    5  A    between atoms: P_2  and  O_7 
REMARK    6  A    between atoms: P_2  and  C_11 
REMARK    7  A    between atoms: O_3  and  C_11 
REMARK    8  A    between atoms: N_10  and  C_14 
REMARK    9  A    between atoms: C_11  and  C_12 
REMARK   10  A    between atoms: C_12  and  C_13 
REMARK   11  A    between atoms: C_13  and  C_14 
ROOT
HETATM    1  C   UNK N   1      34.110  15.885   8.417  0.00  0.00     0.252 C 
ENDROOT
BRANCH   1   2
HETATM    2  P   UNK N   1      34.051  17.691   7.923  0.00  0.00     0.283 P 
HETATM    3  O   UNK N   1      32.681  18.339   8.254  0.00  0.00    -0.651 OA
BRANCH   2   4
HETATM    4  O   UNK N   1      34.250  17.969   6.221  0.00  0.00    -0.327 OA
HETATM    5  H   UNK N   1      33.786  17.550   5.479  0.00  0.00     0.220 HD
ENDBRANCH   2   4
BRANCH   2   6
HETATM    6  O   UNK N   1      35.207  18.708   8.727  0.00  0.00    -0.327 OA
HETATM    7  H   UNK N   1      35.416  18.681   9.673  0.00  0.00     0.220 HD
ENDBRANCH   2   6
ENDBRANCH   1   2
BRANCH   1   8
HETATM    8  P   UNK N   1      34.656  15.703  10.195  0.00  0.00     0.283 P 
HETATM    9  O   UNK N   1      35.919  14.808  10.299  0.00  0.00    -0.651 OA
BRANCH   8  10
HETATM   10  O   UNK N   1      33.494  14.905  11.208  0.00  0.00    -0.327 OA
HETATM   11  H   UNK N   1      33.275  15.070  12.137  0.00  0.00     0.220 HD
ENDBRANCH   8  10
BRANCH   8  12
HETATM   12  O   UNK N   1      35.101  17.172  11.006  0.00  0.00    -0.327 OA
HETATM   13  H   UNK N   1      34.963  17.728  11.788  0.00  0.00     0.220 HD
ENDBRANCH   8  12
ENDBRANCH   1   8
BRANCH   1  14
HETATM   14  O   UNK N   1      35.040  15.242   7.604  0.00  0.00    -0.368 OA
HETATM   15  H   UNK N   1      35.459  14.382   7.445  0.00  0.00     0.212 HD
ENDBRANCH   1  14
BRANCH   1  16
HETATM   16  C   UNK N   1      32.750  15.214   8.215  0.00  0.00     0.065 C 
BRANCH  16  17
HETATM   17  C   UNK N   1      32.378  15.025   6.751  0.00  0.00     0.023 C 
BRANCH  17  18
HETATM   18  C   UNK N   1      31.040  15.673   6.477  0.00  0.00     0.111 C 
BRANCH  18  19
HETATM   19  N   UNK N   1      31.247  16.930   5.783  0.00  0.00    -0.430 N 
HETATM   20  H   UNK N   1      30.973  17.899   5.950  0.00  0.00     0.149 HD
HETATM   21  H   UNK N   1      31.794  16.820   4.929  0.00  0.00     0.149 HD
ENDBRANCH  18  19
ENDBRANCH  17  18
ENDBRANCH  16  17
ENDBRANCH   1  16
TORSDOF 11
ENDMDL
MODEL 5
REMARK VINA RESULT:      -4.5     12.865     13.988
REMARK  11 active torsions:
REMARK  status: ('A' for Active; 'I' for Inactive)
REMARK    1  A    between atoms: P_1  and  O_4 
REMARK    2  A    between atoms: P_1  and  O_5 
REMARK    3  A    between atoms: P_1  and  C_11 
REMARK    4  A    between atoms: P_2  and  O_6 
REMARK    5  A    between atoms: P_2  and  O_7 
REMARK    6  A    between atoms: P_2  and  C_11 
REMARK    7  A    between atoms: O_3  and  C_11 
REMARK    8  A    between atoms: N_10  and  C_14 
REMARK    9  A    between atoms: C_11  and  C_12 
REMARK   10  A    between atoms: C_12  and  C_13 
REMARK   11  A    between atoms: C_13  and  C_14 
ROOT
HETATM    1  C   UNK N   1      32.335  16.671   7.660  0.00  0.00     0.252 C 
ENDROOT
BRANCH   1   2
HETATM    2  P   UNK N   1      33.855  17.226   6.716  0.00  0.00     0.283 P 
HETATM    3  O   UNK N   1      34.626  18.344   7.465  0.00  0.00    -0.651 OA
BRANCH   2   4
HETATM    4  O   UNK N   1      33.512  17.916   5.161  0.00  0.00    -0.327 OA
HETATM    5  H   UNK N   1      32.733  18.421   4.879  0.00  0.00     0.220 HD
ENDBRANCH   2   4
BRANCH   2   6
HETATM    6  O   UNK N   1      35.046  15.990   6.455  0.00  0.00    -0.327 OA
HETATM    7  H   UNK N   1      35.989  16.066   6.665  0.00  0.00     0.220 HD
ENDBRANCH   2   6
ENDBRANCH   1   2
BRANCH   1   8
HETATM    8  P   UNK N   1      32.734  15.212   8.757  0.00  0.00     0.283 P 
HETATM    9  O   UNK N   1      32.304  13.880   8.089  0.00  0.00    -0.651 OA
BRANCH   8  10
HETATM   10  O   UNK N   1      31.879  15.216  10.268  0.00  0.00    -0.327 OA
HETATM   11  H   UNK N   1      31.177  15.810  10.573  0.00  0.00     0.220 HD
ENDBRANCH   8  10
BRANCH   8  12
HETATM   12  O   UNK N   1      34.413  14.982   9.133  0.00  0.00    -0.327 OA
HETATM   13  H   UNK N   1      35.326  15.189   8.880  0.00  0.00     0.220 HD
ENDBRANCH   8  12
ENDBRANCH   1   8
BRANCH   1  14
HETATM   14  O   UNK N   1      31.371  16.275   6.737  0.00  0.00    -0.368 OA
HETATM   15  H   UNK N   1      31.051  16.444   5.837  0.00  0.00     0.212 HD
ENDBRANCH   1  14
BRANCH   1  16
HETATM   16  C   UNK N   1      31.758  17.814   8.497  0.00  0.00     0.065 C 
BRANCH  16  17
HETATM   17  C   UNK N   1      30.253  17.981   8.339  0.00  0.00     0.023 C 
BRANCH  17  18
HETATM   18  C   UNK N   1      29.631  18.291   9.681  0.00  0.00     0.111 C 
BRANCH  18  19
HETATM   19  N   UNK N   1      29.579  17.080  10.479  0.00  0.00    -0.430 N 
HETATM   20  H   UNK N   1      30.128  16.221  10.521  0.00  0.00     0.149 HD
HETATM   21  H   UNK N   1      28.815  17.089  11.155  0.00  0.00     0.149 HD
ENDBRANCH  18  19
ENDBRANCH  17  18
ENDBRANCH  16  17
ENDBRANCH   1  16
TORSDOF 11
ENDMDL
MODEL 6
REMARK VINA RESULT:      -4.5     14.795     16.062
REMARK  11 active torsions:
REMARK  status: ('A' for Active; 'I' for Inactive)
REMARK    1  A    between atoms: P_1  and  O_4 
REMARK    2  A    between atoms: P_1  and  O_5 
REMARK    3  A    between atoms: P_1  and  C_11 
REMARK    4  A    between atoms: P_2  and  O_6 
REMARK    5  A    between atoms: P_2  and  O_7 
REMARK    6  A    between atoms: P_2  and  C_11 
REMARK    7  A    between atoms: O_3  and  C_11 
REMARK    8  A    between atoms: N_10  and  C_14 
REMARK    9  A    between atoms: C_11  and  C_12 
REMARK   10  A    between atoms: C_12  and  C_13 
REMARK   11  A    between atoms: C_13  and  C_14 
ROOT
HETATM    1  C   UNK N   1      34.240  15.939   8.352  0.00  0.00     0.252 C 
ENDROOT
BRANCH   1   2
HETATM    2  P   UNK N   1      34.679  15.754  10.163  0.00  0.00     0.283 P 
HETATM    3  O   UNK N   1      35.919  14.845  10.369  0.00  0.00    -0.651 OA
BRANCH   2   4
HETATM    4  O   UNK N   1      33.440  15.006  11.122  0.00  0.00    -0.327 OA
HETATM    5  H   UNK N   1      33.515  14.252  11.728  0.00  0.00     0.220 HD
ENDBRANCH   2   4
BRANCH   2   6
HETATM    6  O   UNK N   1      35.100  17.233  10.969  0.00  0.00    -0.327 OA
HETATM    7  H   UNK N   1      35.244  17.331  11.922  0.00  0.00     0.220 HD
ENDBRANCH   2   6
ENDBRANCH   1   2
BRANCH   1   8
HETATM    8  P   UNK N   1      34.098  17.744   7.886  0.00  0.00     0.283 P 
HETATM    9  O   UNK N   1      32.708  18.310   8.275  0.00  0.00    -0.651 OA
BRANCH   8  10
HETATM   10  O   UNK N   1      34.206  18.038   6.179  0.00  0.00    -0.327 OA
HETATM   11  H   UNK N   1      34.990  18.058   5.608  0.00  0.00     0.220 HD
ENDBRANCH   8  10
BRANCH   8  12
HETATM   12  O   UNK N   1      35.230  18.815   8.651  0.00  0.00    -0.327 OA
HETATM   13  H   UNK N   1      35.543  19.730   8.722  0.00  0.00     0.220 HD
ENDBRANCH   8  12
ENDBRANCH   1   8
BRANCH   1  14
HETATM   14  O   UNK N   1      33.004  15.334   8.140  0.00  0.00    -0.368 OA
HETATM   15  H   UNK N   1      32.354  15.131   7.449  0.00  0.00     0.212 HD
ENDBRANCH   1  14
BRANCH   1  16
HETATM   16  C   UNK N   1      35.273  15.247   7.460  0.00  0.00     0.065 C 
BRANCH  16  17
HETATM   17  C   UNK N   1      34.674  14.180   6.555  0.00  0.00     0.023 C 
BRANCH  17  18
HETATM   18  C   UNK N   1      34.639  14.681   5.129  0.00  0.00     0.111 C 
BRANCH  18  19
HETATM   19  N   UNK N   1      33.390  15.381   4.895  0.00  0.00    -0.430 N 
HETATM   20  H   UNK N   1      32.984  15.887   4.108  0.00  0.00     0.149 HD
HETATM   21  H   UNK N   1      32.775  15.365   5.709  0.00  0.00     0.149 HD
ENDBRANCH  18  19
ENDBRANCH  17  18
ENDBRANCH  16  17
ENDBRANCH   1  16
TORSDOF 11
ENDMDL
MODEL 7
REMARK VINA RESULT:      -4.5     17.554     18.854
REMARK  11 active torsions:
REMARK  status: ('A' for Active; 'I' for Inactive)
REMARK    1  A    between atoms: P_1  and  O_4 
REMARK    2  A    between atoms: P_1  and  O_5 
REMARK    3  A    between atoms: P_1  and  C_11 
REMARK    4  A    between atoms: P_2  and  O_6 
REMARK    5  A    between atoms: P_2  and  O_7 
REMARK    6  A    between atoms: P_2  and  C_11 
REMARK    7  A    between atoms: O_3  and  C_11 
REMARK    8  A    between atoms: N_10  and  C_14 
REMARK    9  A    between atoms: C_11  and  C_12 
REMARK   10  A    between atoms: C_12  and  C_13 
REMARK   11  A    between atoms: C_13  and  C_14 
ROOT
HETATM    1  C   UNK N   1      36.265  14.794  10.741  0.00  0.00     0.252 C 
ENDROOT
BRANCH   1   2
HETATM    2  P   UNK N   1      34.630  15.519  10.183  0.00  0.00     0.283 P 
HETATM    3  O   UNK N   1      34.284  15.115   8.726  0.00  0.00    -0.651 OA
BRANCH   2   4
HETATM    4  O   UNK N   1      34.593  17.255  10.162  0.00  0.00    -0.327 OA
HETATM    5  H   UNK N   1      34.951  17.861   9.495  0.00  0.00     0.220 HD
ENDBRANCH   2   4
BRANCH   2   6
HETATM    6  O   UNK N   1      33.250  15.008  11.105  0.00  0.00    -0.327 OA
HETATM    7  H   UNK N   1      32.353  15.366  11.017  0.00  0.00     0.220 HD
ENDBRANCH   2   6
ENDBRANCH   1   2
BRANCH   1   8
HETATM    8  P   UNK N   1      36.110  14.053  12.450  0.00  0.00     0.283 P 
HETATM    9  O   UNK N   1      37.051  12.830  12.612  0.00  0.00    -0.651 OA
BRANCH   8  10
HETATM   10  O   UNK N   1      34.534  13.416  12.799  0.00  0.00    -0.327 OA
HETATM   11  H   UNK N   1      34.287  12.542  13.139  0.00  0.00     0.220 HD
ENDBRANCH   8  10
BRANCH   8  12
HETATM   12  O   UNK N   1      36.530  15.098  13.771  0.00  0.00    -0.327 OA
HETATM   13  H   UNK N   1      36.734  16.007  14.039  0.00  0.00     0.220 HD
ENDBRANCH   8  12
ENDBRANCH   1   8
BRANCH   1  14
HETATM   14  O   UNK N   1      37.201  15.823  10.792  0.00  0.00    -0.368 OA
HETATM   15  H   UNK N   1      37.375  16.687  11.197  0.00  0.00     0.212 HD
ENDBRANCH   1  14
BRANCH   1  16
HETATM   16  C   UNK N   1      36.765  13.737   9.755  0.00  0.00     0.065 C 
BRANCH  16  17
HETATM   17  C   UNK N   1      38.179  13.995   9.256  0.00  0.00     0.023 C 
BRANCH  17  18
HETATM   18  C   UNK N   1      39.019  12.750   9.436  0.00  0.00     0.111 C 
BRANCH  18  19
HETATM   19  N   UNK N   1      38.245  11.747  10.143  0.00  0.00    -0.430 N 
HETATM   20  H   UNK N   1      38.407  11.153  10.956  0.00  0.00     0.149 HD
HETATM   21  H   UNK N   1      37.324  11.600   9.729  0.00  0.00     0.149 HD
ENDBRANCH  18  19
ENDBRANCH  17  18
ENDBRANCH  16  17
ENDBRANCH   1  16
TORSDOF 11
ENDMDL
MODEL 8
REMARK VINA RESULT:      -4.5     16.827     18.235
REMARK  11 active torsions:
REMARK  status: ('A' for Active; 'I' for Inactive)
REMARK    1  A    between atoms: P_1  and  O_4 
REMARK    2  A    between atoms: P_1  and  O_5 
REMARK    3  A    between atoms: P_1  and  C_11 
REMARK    4  A    between atoms: P_2  and  O_6 
REMARK    5  A    between atoms: P_2  and  O_7 
REMARK    6  A    between atoms: P_2  and  C_11 
REMARK    7  A    between atoms: O_3  and  C_11 
REMARK    8  A    between atoms: N_10  and  C_14 
REMARK    9  A    between atoms: C_11  and  C_12 
REMARK   10  A    between atoms: C_12  and  C_13 
REMARK   11  A    between atoms: C_13  and  C_14 
ROOT
HETATM    1  C   UNK N   1      36.215  14.417  10.761  0.00  0.00     0.252 C 
ENDROOT
BRANCH   1   2
HETATM    2  P   UNK N   1      34.734  15.513  10.425  0.00  0.00     0.283 P 
HETATM    3  O   UNK N   1      34.381  15.564   8.915  0.00  0.00    -0.651 OA
BRANCH   2   4
HETATM    4  O   UNK N   1      34.969  17.177  10.861  0.00  0.00    -0.327 OA
HETATM    5  H   UNK N   1      35.598  17.818  10.493  0.00  0.00     0.220 HD
ENDBRANCH   2   4
BRANCH   2   6
HETATM    6  O   UNK N   1      33.260  15.007  11.189  0.00  0.00    -0.327 OA
HETATM    7  H   UNK N   1      32.624  15.594  11.626  0.00  0.00     0.220 HD
ENDBRANCH   2   6
ENDBRANCH   1   2
BRANCH   1   8
HETATM    8  P   UNK N   1      36.273  13.916  12.560  0.00  0.00     0.283 P 
HETATM    9  O   UNK N   1      34.862  13.528  13.075  0.00  0.00    -0.651 OA
BRANCH   8  10
HETATM   10  O   UNK N   1      36.770  15.192  13.627  0.00  0.00    -0.327 OA
HETATM   11  H   UNK N   1      37.549  15.242  14.202  0.00  0.00     0.220 HD
ENDBRANCH   8  10
BRANCH   8  12
HETATM   12  O   UNK N   1      37.262  12.539  12.934  0.00  0.00    -0.327 OA
HETATM   13  H   UNK N   1      38.063  12.043  12.705  0.00  0.00     0.220 HD
ENDBRANCH   8  12
ENDBRANCH   1   8
BRANCH   1  14
HETATM   14  O   UNK N   1      37.368  15.141  10.470  0.00  0.00    -0.368 OA
HETATM   15  H   UNK N   1      38.140  15.158   9.882  0.00  0.00     0.212 HD
ENDBRANCH   1  14
BRANCH   1  16
HETATM   16  C   UNK N   1      36.193  13.172   9.871  0.00  0.00     0.065 C 
BRANCH  16  17
HETATM   17  C   UNK N   1      35.023  12.242  10.158  0.00  0.00     0.023 C 
BRANCH  17  18
HETATM   18  C   UNK N   1      34.188  12.072   8.909  0.00  0.00     0.111 C 
BRANCH  18  19
HETATM   19  N   UNK N   1      32.871  12.640   9.130  0.00  0.00    -0.430 N 
HETATM   20  H   UNK N   1      32.106  12.454   9.780  0.00  0.00     0.149 HD
HETATM   21  H   UNK N   1      32.660  13.401   8.485  0.00  0.00     0.149 HD
ENDBRANCH  18  19
ENDBRANCH  17  18
ENDBRANCH  16  17
ENDBRANCH   1  16
TORSDOF 11
ENDMDL
MODEL 9
REMARK VINA RESULT:      -4.4     13.249     14.321
REMARK  11 active torsions:
REMARK  status: ('A' for Active; 'I' for Inactive)
REMARK    1  A    between atoms: P_1  and  O_4 
REMARK    2  A    between atoms: P_1  and  O_5 
REMARK    3  A    between atoms: P_1  and  C_11 
REMARK    4  A    between atoms: P_2  and  O_6 
REMARK    5  A    between atoms: P_2  and  O_7 
REMARK    6  A    between atoms: P_2  and  C_11 
REMARK    7  A    between atoms: O_3  and  C_11 
REMARK    8  A    between atoms: N_10  and  C_14 
REMARK    9  A    between atoms: C_11  and  C_12 
REMARK   10  A    between atoms: C_12  and  C_13 
REMARK   11  A    between atoms: C_13  and  C_14 
ROOT
HETATM    1  C   UNK N   1      32.524  16.815   8.201  0.00  0.00     0.252 C 
ENDROOT
BRANCH   1   2
HETATM    2  P   UNK N   1      32.884  15.192   9.065  0.00  0.00     0.283 P 
HETATM    3  O   UNK N   1      34.406  14.953   9.238  0.00  0.00    -0.651 OA
BRANCH   2   4
HETATM    4  O   UNK N   1      32.329  13.790   8.204  0.00  0.00    -0.327 OA
HETATM    5  H   UNK N   1      32.832  13.197   7.624  0.00  0.00     0.220 HD
ENDBRANCH   2   4
BRANCH   2   6
HETATM    6  O   UNK N   1      32.249  15.064  10.676  0.00  0.00    -0.327 OA
HETATM    7  H   UNK N   1      32.728  14.712  11.442  0.00  0.00     0.220 HD
ENDBRANCH   2   6
ENDBRANCH   1   2
BRANCH   1   8
HETATM    8  P   UNK N   1      33.812  17.168   6.894  0.00  0.00     0.283 P 
HETATM    9  O   UNK N   1      34.673  18.399   7.282  0.00  0.00    -0.651 OA
BRANCH   8  10
HETATM   10  O   UNK N   1      33.146  17.595   5.349  0.00  0.00    -0.327 OA
HETATM   11  H   UNK N   1      32.889  18.467   5.012  0.00  0.00     0.220 HD
ENDBRANCH   8  10
BRANCH   8  12
HETATM   12  O   UNK N   1      34.969  15.906   6.609  0.00  0.00    -0.327 OA
HETATM   13  H   UNK N   1      35.585  15.514   5.971  0.00  0.00     0.220 HD
ENDBRANCH   8  12
ENDBRANCH   1   8
BRANCH   1  14
HETATM   14  O   UNK N   1      32.570  17.833   9.149  0.00  0.00    -0.368 OA
HETATM   15  H   UNK N   1      32.151  18.670   9.402  0.00  0.00     0.212 HD
ENDBRANCH   1  14
BRANCH   1  16
HETATM   16  C   UNK N   1      31.128  16.807   7.573  0.00  0.00     0.065 C 
BRANCH  16  17
HETATM   17  C   UNK N   1      30.212  17.893   8.119  0.00  0.00     0.023 C 
BRANCH  17  18
HETATM   18  C   UNK N   1      29.172  17.275   9.026  0.00  0.00     0.111 C 
BRANCH  18  19
HETATM   19  N   UNK N   1      29.743  17.072  10.344  0.00  0.00    -0.430 N 
HETATM   20  H   UNK N   1      29.376  16.788  11.252  0.00  0.00     0.149 HD
HETATM   21  H   UNK N   1      30.746  17.256  10.368  0.00  0.00     0.149 HD
ENDBRANCH  18  19
ENDBRANCH  17  18
ENDBRANCH  16  17
ENDBRANCH   1  16
TORSDOF 11
ENDMDL
