REMARK  11 active torsions:
REMARK  status: ('A' for Active; 'I' for Inactive)
REMARK    1  A    between atoms: P_1  and  O_4 
REMARK    2  A    between atoms: P_1  and  O_5 
REMARK    3  A    between atoms: P_1  and  C_11 
REMARK    4  A    between atoms: P_2  and  O_6 
REMARK    5  A    between atoms: P_2  and  O_7 
REMARK    6  A    between atoms: P_2  and  C_11 
REMARK    7  A    between atoms: O_3  and  C_11 
REMARK    8  A    between atoms: N_10  and  C_14 
REMARK    9  A    between atoms: C_11  and  C_12 
REMARK   10  A    between atoms: C_12  and  C_13 
REMARK   11  A    between atoms: C_13  and  C_14 
ROOT
HETATM    1  C   UNK N   1       3.498  -1.205  -0.703  0.00  0.00     0.252 C 
ENDROOT
BRANCH   1   2
HETATM    2  P   UNK N   1       5.035  -0.833   0.301  0.00  0.00     0.283 P 
HETATM    3  O   UNK N   1       4.725   0.073   1.521  0.00  0.00    -0.651 OA
BRANCH   2   4
HETATM    4  O   UNK N   1       6.260   0.035  -0.571  0.00  0.00    -0.327 OA
HETATM    5  H   UNK N   1       7.022  -0.316  -1.058  0.00  0.00     0.220 HD
ENDBRANCH   2   4
BRANCH   2   6
HETATM    6  O   UNK N   1       5.813  -2.223   0.991  0.00  0.00    -0.327 OA
HETATM    7  H   UNK N   1       5.358  -2.987   1.377  0.00  0.00     0.220 HD
ENDBRANCH   2   6
ENDBRANCH   1   2
BRANCH   1   8
HETATM    8  P   UNK N   1       2.238  -2.119   0.331  0.00  0.00     0.283 P 
HETATM    9  O   UNK N   1       2.832  -3.437   0.894  0.00  0.00    -0.651 OA
BRANCH   8  10
HETATM   10  O   UNK N   1       0.842  -2.638  -0.561  0.00  0.00    -0.327 OA
HETATM   11  H   UNK N   1       0.201  -2.108  -1.059  0.00  0.00     0.220 HD
ENDBRANCH   8  10
BRANCH   8  12
HETATM   12  O   UNK N   1       1.652  -1.278   1.732  0.00  0.00    -0.327 OA
HETATM   13  H   UNK N   1       1.895  -0.759   2.514  0.00  0.00     0.220 HD
ENDBRANCH   8  12
ENDBRANCH   1   8
BRANCH   1  14
HETATM   14  O   UNK N   1       3.863  -2.020  -1.771  0.00  0.00    -0.368 OA
HETATM   15  H   UNK N   1       3.498  -2.524  -2.515  0.00  0.00     0.212 HD
ENDBRANCH   1  14
BRANCH   1  16
HETATM   16  C   UNK N   1       2.883   0.078  -1.266  0.00  0.00     0.065 C 
BRANCH  16  17
HETATM   17  C   UNK N   1       2.474   1.076  -0.192  0.00  0.00     0.023 C 
BRANCH  17  18
HETATM   18  C   UNK N   1       1.692   2.208  -0.819  0.00  0.00     0.111 C 
BRANCH  18  19
HETATM   19  N   UNK N   1       1.624   3.319   0.112  0.00  0.00    -0.430 N 
HETATM   20  H   UNK N   1       2.276   3.751   0.767  0.00  0.00     0.149 HD
HETATM   21  H   UNK N   1       0.711   3.774   0.112  0.00  0.00     0.149 HD
ENDBRANCH  18  19
ENDBRANCH  17  18
ENDBRANCH  16  17
ENDBRANCH   1  16
TORSDOF 11
