MODEL 1
REMARK VINA RESULT:      -6.5      0.000      0.000
REMARK  5 active torsions:
REMARK  status: ('A' for Active; 'I' for Inactive)
REMARK    1  A    between atoms: C_15  and  O_4 
REMARK    2  A    between atoms: O_5  and  C_18 
REMARK    3  A    between atoms: C_14  and  N_6 
REMARK    4  A    between atoms: N_13  and  C_22 
REMARK    5  A    between atoms: C_17  and  C_18 
ROOT
HETATM    1 Cl   UNK N   1      26.053  20.880   2.614  0.00  0.00    -0.045 Cl
HETATM    2  N   UNK N   1      22.233  18.063   4.557  0.00  0.00    -0.297 N 
HETATM    3  N   UNK N   1      23.546  16.774   5.852  0.00  0.00    -0.346 N 
ATOM      4  HN  UNK N   1      23.860  16.062   6.512  1.00  0.00     0.167 HD
HETATM    5  N   UNK N   1      24.009  19.422   3.618  0.00  0.00    -0.316 N 
ATOM      6  HN  UNK N   1      23.394  19.994   3.040  1.00  0.00     0.170 HD
HETATM    7  N   UNK N   1      26.185  18.845   4.399  0.00  0.00    -0.317 N 
ATOM      8  HN  UNK N   1      27.192  19.007   4.387  1.00  0.00     0.170 HD
HETATM    9  C   UNK N   1      23.511  18.439   4.409  0.00  0.00     0.144 A 
HETATM   10  C   UNK N   1      22.272  17.039   5.450  0.00  0.00     0.188 A 
HETATM   11  C   UNK N   1      24.299  17.665   5.181  0.00  0.00     0.122 A 
HETATM   12  C   UNK N   1      25.671  17.857   5.191  0.00  0.00     0.132 A 
HETATM   13  C   UNK N   1      25.364  19.623   3.618  0.00  0.00     0.182 A 
ENDROOT
BRANCH   2  14
HETATM   14  C   UNK N   1      21.025  18.598   3.918  0.00  0.00     0.267 C 
HETATM   15  O   UNK N   1      21.171  19.947   3.538  0.00  0.00    -0.353 OA
HETATM   16  C   UNK N   1      20.300  20.130   2.435  0.00  0.00     0.179 C 
HETATM   17  C   UNK N   1      19.757  18.782   1.982  0.00  0.00     0.187 C 
HETATM   18  C   UNK N   1      20.708  17.837   2.654  0.00  0.00     0.250 C 
HETATM   19  F   UNK N   1      20.148  16.595   2.902  0.00  0.00    -0.242 F 
BRANCH  16  20
HETATM   20  C   UNK N   1      21.019  20.830   1.298  0.00  0.00     0.198 C 
BRANCH  20  21
HETATM   21  O   UNK N   1      20.508  20.369   0.085  0.00  0.00    -0.398 OA
HETATM   22  H   UNK N   1      20.793  19.556  -0.362  0.00  0.00     0.209 HD
ENDBRANCH  20  21
ENDBRANCH  16  20
BRANCH  17  23
HETATM   23  O   UNK N   1      18.474  18.634   2.510  0.00  0.00    -0.390 OA
HETATM   24  H   UNK N   1      18.040  18.240   3.284  0.00  0.00     0.210 HD
ENDBRANCH  17  23
ENDBRANCH   2  14
BRANCH  12  25
HETATM   25  N   UNK N   1      26.519  17.059   5.987  0.00  0.00    -0.383 N 
HETATM   26  H   UNK N   1      27.480  17.265   6.043  0.00  0.00     0.157 HD
HETATM   27  H   UNK N   1      26.149  16.296   6.485  0.00  0.00     0.157 HD
ENDBRANCH  12  25
TORSDOF 5
ENDMDL
MODEL 2
REMARK VINA RESULT:      -5.9      7.827     10.239
REMARK  5 active torsions:
REMARK  status: ('A' for Active; 'I' for Inactive)
REMARK    1  A    between atoms: C_15  and  O_4 
REMARK    2  A    between atoms: O_5  and  C_18 
REMARK    3  A    between atoms: C_14  and  N_6 
REMARK    4  A    between atoms: N_13  and  C_22 
REMARK    5  A    between atoms: C_17  and  C_18 
ROOT
HETATM    1 Cl   UNK N   1      27.754  18.323   4.083  0.00  0.00    -0.045 Cl
HETATM    2  N   UNK N   1      31.319  16.700   7.393  0.00  0.00    -0.297 N 
HETATM    3  N   UNK N   1      30.181  17.281   9.245  0.00  0.00    -0.346 N 
ATOM      4  HN  UNK N   1      29.925  17.424  10.223  1.00  0.00     0.167 HD
HETATM    5  N   UNK N   1      29.657  17.450   5.794  0.00  0.00    -0.316 N 
ATOM      6  HN  UNK N   1      30.191  17.177   4.969  1.00  0.00     0.170 HD
HETATM    7  N   UNK N   1      27.715  18.402   6.791  0.00  0.00    -0.317 N 
ATOM      8  HN  UNK N   1      26.799  18.839   6.684  1.00  0.00     0.170 HD
HETATM    9  C   UNK N   1      30.145  17.243   7.042  0.00  0.00     0.144 A 
HETATM   10  C   UNK N   1      31.324  16.729   8.753  0.00  0.00     0.188 A 
HETATM   11  C   UNK N   1      29.463  17.595   8.151  0.00  0.00     0.122 A 
HETATM   12  C   UNK N   1      28.217  18.189   8.045  0.00  0.00     0.132 A 
HETATM   13  C   UNK N   1      28.425  18.036   5.673  0.00  0.00     0.182 A 
ENDROOT
BRANCH   2  14
HETATM   14  C   UNK N   1      32.396  16.180   6.543  0.00  0.00     0.267 C 
HETATM   15  O   UNK N   1      31.926  15.741   5.289  0.00  0.00    -0.353 OA
HETATM   16  C   UNK N   1      33.017  15.894   4.397  0.00  0.00     0.179 C 
HETATM   17  C   UNK N   1      34.138  16.660   5.085  0.00  0.00     0.187 C 
HETATM   18  C   UNK N   1      33.416  17.255   6.258  0.00  0.00     0.250 C 
HETATM   19  F   UNK N   1      34.250  17.503   7.335  0.00  0.00    -0.242 F 
BRANCH  16  20
HETATM   20  C   UNK N   1      32.576  16.605   3.133  0.00  0.00     0.198 C 
BRANCH  20  21
HETATM   21  O   UNK N   1      31.313  17.158   3.340  0.00  0.00    -0.398 OA
HETATM   22  H   UNK N   1      31.078  18.083   3.162  0.00  0.00     0.209 HD
ENDBRANCH  20  21
ENDBRANCH  16  20
BRANCH  17  23
HETATM   23  O   UNK N   1      35.088  15.736   5.521  0.00  0.00    -0.390 OA
HETATM   24  H   UNK N   1      35.474  14.891   5.238  0.00  0.00     0.210 HD
ENDBRANCH  17  23
ENDBRANCH   2  14
BRANCH  12  25
HETATM   25  N   UNK N   1      27.485  18.572   9.187  0.00  0.00    -0.383 N 
HETATM   26  H   UNK N   1      27.835  19.268   9.788  0.00  0.00     0.157 HD
HETATM   27  H   UNK N   1      26.622  18.140   9.384  0.00  0.00     0.157 HD
ENDBRANCH  12  25
TORSDOF 5
ENDMDL
MODEL 3
REMARK VINA RESULT:      -5.9     11.943     13.944
REMARK  5 active torsions:
REMARK  status: ('A' for Active; 'I' for Inactive)
REMARK    1  A    between atoms: C_15  and  O_4 
REMARK    2  A    between atoms: O_5  and  C_18 
REMARK    3  A    between atoms: C_14  and  N_6 
REMARK    4  A    between atoms: N_13  and  C_22 
REMARK    5  A    between atoms: C_17  and  C_18 
ROOT
HETATM    1 Cl   UNK N   1      36.796  12.931   6.253  0.00  0.00    -0.045 Cl
HETATM    2  N   UNK N   1      35.041  16.167   9.823  0.00  0.00    -0.297 N 
HETATM    3  N   UNK N   1      36.396  15.439  11.465  0.00  0.00    -0.346 N 
ATOM      4  HN  UNK N   1      36.854  15.334  12.371  1.00  0.00     0.167 HD
HETATM    5  N   UNK N   1      35.846  14.658   8.104  0.00  0.00    -0.316 N 
ATOM      6  HN  UNK N   1      35.222  15.005   7.375  1.00  0.00     0.170 HD
HETATM    7  N   UNK N   1      37.565  13.182   8.839  0.00  0.00    -0.317 N 
ATOM      8  HN  UNK N   1      38.218  12.425   8.633  1.00  0.00     0.170 HD
HETATM    9  C   UNK N   1      35.824  15.186   9.352  0.00  0.00     0.144 A 
HETATM   10  C   UNK N   1      35.408  16.312  11.124  0.00  0.00     0.188 A 
HETATM   11  C   UNK N   1      36.634  14.746  10.336  0.00  0.00     0.122 A 
HETATM   12  C   UNK N   1      37.533  13.721  10.094  0.00  0.00     0.132 A 
HETATM   13  C   UNK N   1      36.730  13.644   7.849  0.00  0.00     0.182 A 
ENDROOT
BRANCH   2  14
HETATM   14  C   UNK N   1      34.001  16.941   9.134  0.00  0.00     0.267 C 
HETATM   15  O   UNK N   1      34.487  17.580   7.976  0.00  0.00    -0.353 OA
HETATM   16  C   UNK N   1      33.369  17.707   7.113  0.00  0.00     0.179 C 
HETATM   17  C   UNK N   1      32.194  16.921   7.677  0.00  0.00     0.187 C 
HETATM   18  C   UNK N   1      32.879  16.040   8.680  0.00  0.00     0.250 C 
HETATM   19  F   UNK N   1      32.046  15.655   9.717  0.00  0.00    -0.242 F 
BRANCH  16  20
HETATM   20  C   UNK N   1      33.716  17.230   5.717  0.00  0.00     0.198 C 
BRANCH  20  21
HETATM   21  O   UNK N   1      34.809  16.366   5.791  0.00  0.00    -0.398 OA
HETATM   22  H   UNK N   1      34.748  15.398   5.813  0.00  0.00     0.209 HD
ENDBRANCH  20  21
ENDBRANCH  16  20
BRANCH  17  23
HETATM   23  O   UNK N   1      31.344  17.818   8.323  0.00  0.00    -0.390 OA
HETATM   24  H   UNK N   1      30.719  18.528   8.102  0.00  0.00     0.210 HD
ENDBRANCH  17  23
ENDBRANCH   2  14
BRANCH  12  25
HETATM   25  N   UNK N   1      38.388  13.240  11.106  0.00  0.00    -0.383 N 
HETATM   26  H   UNK N   1      39.205  12.745  10.868  0.00  0.00     0.157 HD
HETATM   27  H   UNK N   1      38.167  13.398  12.052  0.00  0.00     0.157 HD
ENDBRANCH  12  25
TORSDOF 5
ENDMDL
MODEL 4
REMARK VINA RESULT:      -5.9      2.519      3.307
REMARK  5 active torsions:
REMARK  status: ('A' for Active; 'I' for Inactive)
REMARK    1  A    between atoms: C_15  and  O_4 
REMARK    2  A    between atoms: O_5  and  C_18 
REMARK    3  A    between atoms: C_14  and  N_6 
REMARK    4  A    between atoms: N_13  and  C_22 
REMARK    5  A    between atoms: C_17  and  C_18 
ROOT
HETATM    1 Cl   UNK N   1      20.675  13.622   6.654  0.00  0.00    -0.045 Cl
HETATM    2  N   UNK N   1      22.215  18.010   4.493  0.00  0.00    -0.297 N 
HETATM    3  N   UNK N   1      24.362  17.834   5.143  0.00  0.00    -0.346 N 
ATOM      4  HN  UNK N   1      25.354  18.031   5.282  1.00  0.00     0.167 HD
HETATM    5  N   UNK N   1      21.447  15.940   5.495  0.00  0.00    -0.316 N 
ATOM      6  HN  UNK N   1      20.479  16.041   5.189  1.00  0.00     0.170 HD
HETATM    7  N   UNK N   1      23.148  14.729   6.642  0.00  0.00    -0.317 N 
ATOM      8  HN  UNK N   1      23.427  13.915   7.190  1.00  0.00     0.170 HD
HETATM    9  C   UNK N   1      22.379  16.875   5.187  0.00  0.00     0.144 A 
HETATM   10  C   UNK N   1      23.446  18.587   4.473  0.00  0.00     0.188 A 
HETATM   11  C   UNK N   1      23.664  16.770   5.580  0.00  0.00     0.122 A 
HETATM   12  C   UNK N   1      24.079  15.679   6.325  0.00  0.00     0.132 A 
HETATM   13  C   UNK N   1      21.842  14.855   6.232  0.00  0.00     0.182 A 
ENDROOT
BRANCH   2  14
HETATM   14  C   UNK N   1      21.002  18.559   3.876  0.00  0.00     0.267 C 
HETATM   15  O   UNK N   1      21.130  19.926   3.562  0.00  0.00    -0.353 OA
HETATM   16  C   UNK N   1      20.260  20.150   2.466  0.00  0.00     0.179 C 
HETATM   17  C   UNK N   1      19.736  18.818   1.947  0.00  0.00     0.187 C 
HETATM   18  C   UNK N   1      20.698  17.854   2.577  0.00  0.00     0.250 C 
HETATM   19  F   UNK N   1      20.155  16.594   2.764  0.00  0.00    -0.242 F 
BRANCH  16  20
HETATM   20  C   UNK N   1      20.973  20.912   1.366  0.00  0.00     0.198 C 
BRANCH  20  21
HETATM   21  O   UNK N   1      20.565  20.412   0.129  0.00  0.00    -0.398 OA
HETATM   22  H   UNK N   1      19.641  20.318  -0.152  0.00  0.00     0.209 HD
ENDBRANCH  20  21
ENDBRANCH  16  20
BRANCH  17  23
HETATM   23  O   UNK N   1      18.454  18.628   2.465  0.00  0.00    -0.390 OA
HETATM   24  H   UNK N   1      17.530  18.785   2.212  0.00  0.00     0.210 HD
ENDBRANCH  17  23
ENDBRANCH   2  14
BRANCH  12  25
HETATM   25  N   UNK N   1      25.416  15.546   6.753  0.00  0.00    -0.383 N 
HETATM   26  H   UNK N   1      25.763  16.121   7.473  0.00  0.00     0.157 HD
HETATM   27  H   UNK N   1      26.002  14.878   6.331  0.00  0.00     0.157 HD
ENDBRANCH  12  25
TORSDOF 5
ENDMDL
MODEL 5
REMARK VINA RESULT:      -5.9      6.490      8.275
REMARK  5 active torsions:
REMARK  status: ('A' for Active; 'I' for Inactive)
REMARK    1  A    between atoms: C_15  and  O_4 
REMARK    2  A    between atoms: O_5  and  C_18 
REMARK    3  A    between atoms: C_14  and  N_6 
REMARK    4  A    between atoms: N_13  and  C_22 
REMARK    5  A    between atoms: C_17  and  C_18 
ROOT
HETATM    1 Cl   UNK N   1      26.907  20.358   3.199  0.00  0.00    -0.045 Cl
HETATM    2  N   UNK N   1      28.831  17.720   7.154  0.00  0.00    -0.297 N 
HETATM    3  N   UNK N   1      27.794  18.925   8.747  0.00  0.00    -0.346 N 
ATOM      4  HN  UNK N   1      27.480  19.266   9.656  1.00  0.00     0.167 HD
HETATM    5  N   UNK N   1      27.939  18.938   5.256  0.00  0.00    -0.316 N 
ATOM      6  HN  UNK N   1      28.419  18.377   4.552  1.00  0.00     0.170 HD
HETATM    7  N   UNK N   1      26.488  20.731   5.850  0.00  0.00    -0.317 N 
ATOM      8  HN  UNK N   1      25.887  21.504   5.564  1.00  0.00     0.170 HD
HETATM    9  C   UNK N   1      28.086  18.674   6.578  0.00  0.00     0.144 A 
HETATM   10  C   UNK N   1      28.638  17.887   8.490  0.00  0.00     0.188 A 
HETATM   11  C   UNK N   1      27.468  19.399   7.531  0.00  0.00     0.122 A 
HETATM   12  C   UNK N   1      26.644  20.456   7.180  0.00  0.00     0.132 A 
HETATM   13  C   UNK N   1      27.128  19.980   4.894  0.00  0.00     0.182 A 
ENDROOT
BRANCH   2  14
HETATM   14  C   UNK N   1      29.686  16.702   6.532  0.00  0.00     0.267 C 
HETATM   15  O   UNK N   1      29.145  16.211   5.327  0.00  0.00    -0.353 OA
HETATM   16  C   UNK N   1      30.256  15.796   4.551  0.00  0.00     0.179 C 
HETATM   17  C   UNK N   1      31.546  16.251   5.219  0.00  0.00     0.187 C 
HETATM   18  C   UNK N   1      31.035  17.280   6.183  0.00  0.00     0.250 C 
HETATM   19  F   UNK N   1      31.854  17.436   7.289  0.00  0.00    -0.242 F 
BRANCH  16  20
HETATM   20  C   UNK N   1      30.156  16.347   3.142  0.00  0.00     0.198 C 
BRANCH  20  21
HETATM   21  O   UNK N   1      29.101  17.257   3.084  0.00  0.00    -0.398 OA
HETATM   22  H   UNK N   1      29.204  18.222   3.057  0.00  0.00     0.209 HD
ENDBRANCH  20  21
ENDBRANCH  16  20
BRANCH  17  23
HETATM   23  O   UNK N   1      32.080  15.163   5.911  0.00  0.00    -0.390 OA
HETATM   24  H   UNK N   1      32.945  14.761   6.092  0.00  0.00     0.210 HD
ENDBRANCH  17  23
ENDBRANCH   2  14
BRANCH  12  25
HETATM   25  N   UNK N   1      25.989  21.233   8.157  0.00  0.00    -0.383 N 
HETATM   26  H   UNK N   1      26.506  21.656   8.880  0.00  0.00     0.157 HD
HETATM   27  H   UNK N   1      25.013  21.353   8.115  0.00  0.00     0.157 HD
ENDBRANCH  12  25
TORSDOF 5
ENDMDL
MODEL 6
REMARK VINA RESULT:      -5.8     13.355     15.058
REMARK  5 active torsions:
REMARK  status: ('A' for Active; 'I' for Inactive)
REMARK    1  A    between atoms: C_15  and  O_4 
REMARK    2  A    between atoms: O_5  and  C_18 
REMARK    3  A    between atoms: C_14  and  N_6 
REMARK    4  A    between atoms: N_13  and  C_22 
REMARK    5  A    between atoms: C_17  and  C_18 
ROOT
HETATM    1 Cl   UNK N   1      34.011  10.326  12.753  0.00  0.00    -0.045 Cl
HETATM    2  N   UNK N   1      35.045  14.953  10.799  0.00  0.00    -0.297 N 
HETATM    3  N   UNK N   1      36.412  15.596  12.466  0.00  0.00    -0.346 N 
ATOM      4  HN  UNK N   1      37.047  16.149  13.043  1.00  0.00     0.167 HD
HETATM    5  N   UNK N   1      34.534  12.754  11.686  0.00  0.00    -0.316 N 
ATOM      6  HN  UNK N   1      33.918  12.485  10.918  1.00  0.00     0.170 HD
HETATM    7  N   UNK N   1      35.600  12.275  13.760  0.00  0.00    -0.317 N 
ATOM      8  HN  UNK N   1      35.767  11.629  14.532  1.00  0.00     0.170 HD
HETATM    9  C   UNK N   1      35.140  13.967  11.701  0.00  0.00     0.144 A 
HETATM   10  C   UNK N   1      35.835  15.948  11.283  0.00  0.00     0.188 A 
HETATM   11  C   UNK N   1      35.956  14.352  12.703  0.00  0.00     0.122 A 
HETATM   12  C   UNK N   1      36.206  13.501  13.767  0.00  0.00     0.132 A 
HETATM   13  C   UNK N   1      34.771  11.902  12.730  0.00  0.00     0.182 A 
ENDROOT
BRANCH   2  14
HETATM   14  C   UNK N   1      34.270  15.004   9.553  0.00  0.00     0.267 C 
HETATM   15  O   UNK N   1      33.549  16.207   9.419  0.00  0.00    -0.353 OA
HETATM   16  C   UNK N   1      33.412  16.416   8.023  0.00  0.00     0.179 C 
HETATM   17  C   UNK N   1      34.270  15.411   7.268  0.00  0.00     0.187 C 
HETATM   18  C   UNK N   1      35.182  14.923   8.354  0.00  0.00     0.250 C 
HETATM   19  F   UNK N   1      35.655  13.642   8.125  0.00  0.00    -0.242 F 
BRANCH  16  20
HETATM   20  C   UNK N   1      33.796  17.836   7.657  0.00  0.00     0.198 C 
BRANCH  20  21
HETATM   21  O   UNK N   1      34.425  17.829   6.411  0.00  0.00    -0.398 OA
HETATM   22  H   UNK N   1      33.967  17.923   5.561  0.00  0.00     0.209 HD
ENDBRANCH  20  21
ENDBRANCH  16  20
BRANCH  17  23
HETATM   23  O   UNK N   1      33.441  14.378   6.831  0.00  0.00    -0.390 OA
HETATM   24  H   UNK N   1      32.811  13.737   7.199  0.00  0.00     0.210 HD
ENDBRANCH  17  23
ENDBRANCH   2  14
BRANCH  12  25
HETATM   25  N   UNK N   1      37.052  13.880  14.829  0.00  0.00    -0.383 N 
HETATM   26  H   UNK N   1      38.028  13.790  14.739  0.00  0.00     0.157 HD
HETATM   27  H   UNK N   1      36.665  14.234  15.662  0.00  0.00     0.157 HD
ENDBRANCH  12  25
TORSDOF 5
ENDMDL
MODEL 7
REMARK VINA RESULT:      -5.6      8.086     10.681
REMARK  5 active torsions:
REMARK  status: ('A' for Active; 'I' for Inactive)
REMARK    1  A    between atoms: C_15  and  O_4 
REMARK    2  A    between atoms: O_5  and  C_18 
REMARK    3  A    between atoms: C_14  and  N_6 
REMARK    4  A    between atoms: N_13  and  C_22 
REMARK    5  A    between atoms: C_17  and  C_18 
ROOT
HETATM    1 Cl   UNK N   1      29.490  14.591   4.254  0.00  0.00    -0.045 Cl
HETATM    2  N   UNK N   1      30.212  17.637   8.317  0.00  0.00    -0.297 N 
HETATM    3  N   UNK N   1      28.352  18.863   8.005  0.00  0.00    -0.346 N 
ATOM      4  HN  UNK N   1      27.619  19.563   8.125  1.00  0.00     0.167 HD
HETATM    5  N   UNK N   1      29.906  16.171   6.409  0.00  0.00    -0.316 N 
ATOM      6  HN  UNK N   1      30.754  15.629   6.571  1.00  0.00     0.170 HD
HETATM    7  N   UNK N   1      27.945  16.633   5.138  0.00  0.00    -0.317 N 
ATOM      8  HN  UNK N   1      27.343  16.414   4.344  1.00  0.00     0.170 HD
HETATM    9  C   UNK N   1      29.559  17.188   7.236  0.00  0.00     0.144 A 
HETATM   10  C   UNK N   1      29.454  18.666   8.780  0.00  0.00     0.188 A 
HETATM   11  C   UNK N   1      28.446  17.924   7.046  0.00  0.00     0.122 A 
HETATM   12  C   UNK N   1      27.605  17.657   5.978  0.00  0.00     0.132 A 
HETATM   13  C   UNK N   1      29.084  15.894   5.349  0.00  0.00     0.182 A 
ENDROOT
BRANCH   2  14
HETATM   14  C   UNK N   1      31.469  17.164   8.908  0.00  0.00     0.267 C 
HETATM   15  O   UNK N   1      31.539  15.757   8.967  0.00  0.00    -0.353 OA
HETATM   16  C   UNK N   1      32.920  15.441   8.915  0.00  0.00     0.179 C 
HETATM   17  C   UNK N   1      33.721  16.695   8.594  0.00  0.00     0.187 C 
HETATM   18  C   UNK N   1      32.649  17.610   8.080  0.00  0.00     0.250 C 
HETATM   19  F   UNK N   1      32.953  18.949   8.257  0.00  0.00    -0.242 F 
BRANCH  16  20
HETATM   20  C   UNK N   1      33.180  14.358   7.886  0.00  0.00     0.198 C 
BRANCH  20  21
HETATM   21  O   UNK N   1      31.990  14.072   7.217  0.00  0.00    -0.398 OA
HETATM   22  H   UNK N   1      31.443  13.286   7.375  0.00  0.00     0.209 HD
ENDBRANCH  20  21
ENDBRANCH  16  20
BRANCH  17  23
HETATM   23  O   UNK N   1      34.247  17.189   9.788  0.00  0.00    -0.390 OA
HETATM   24  H   UNK N   1      34.775  17.940  10.103  0.00  0.00     0.210 HD
ENDBRANCH  17  23
ENDBRANCH   2  14
BRANCH  12  25
HETATM   25  N   UNK N   1      26.437  18.414   5.754  0.00  0.00    -0.383 N 
HETATM   26  H   UNK N   1      25.616  17.973   5.438  0.00  0.00     0.157 HD
HETATM   27  H   UNK N   1      26.444  19.385   5.913  0.00  0.00     0.157 HD
ENDBRANCH  12  25
TORSDOF 5
ENDMDL
MODEL 8
REMARK VINA RESULT:      -5.5      6.379      8.154
REMARK  5 active torsions:
REMARK  status: ('A' for Active; 'I' for Inactive)
REMARK    1  A    between atoms: C_15  and  O_4 
REMARK    2  A    between atoms: O_5  and  C_18 
REMARK    3  A    between atoms: C_14  and  N_6 
REMARK    4  A    between atoms: N_13  and  C_22 
REMARK    5  A    between atoms: C_17  and  C_18 
ROOT
HETATM    1 Cl   UNK N   1      32.790  15.024   4.784  0.00  0.00    -0.045 Cl
HETATM    2  N   UNK N   1      29.438  17.802   7.494  0.00  0.00    -0.297 N 
HETATM    3  N   UNK N   1      30.802  18.138   9.252  0.00  0.00    -0.346 N 
ATOM      4  HN  UNK N   1      31.165  18.449  10.153  1.00  0.00     0.167 HD
HETATM    5  N   UNK N   1      30.995  16.488   6.178  0.00  0.00    -0.316 N 
ATOM      6  HN  UNK N   1      30.359  16.350   5.392  1.00  0.00     0.170 HD
HETATM    7  N   UNK N   1      33.104  16.146   7.230  0.00  0.00    -0.317 N 
ATOM      8  HN  UNK N   1      34.041  15.742   7.206  1.00  0.00     0.170 HD
HETATM    9  C   UNK N   1      30.616  17.205   7.265  0.00  0.00     0.144 A 
HETATM   10  C   UNK N   1      29.570  18.374   8.720  0.00  0.00     0.188 A 
HETATM   11  C   UNK N   1      31.433  17.402   8.319  0.00  0.00     0.122 A 
HETATM   12  C   UNK N   1      32.711  16.869   8.321  0.00  0.00     0.132 A 
HETATM   13  C   UNK N   1      32.256  15.955   6.165  0.00  0.00     0.182 A 
ENDROOT
BRANCH   2  14
HETATM   14  C   UNK N   1      28.239  17.853   6.649  0.00  0.00     0.267 C 
HETATM   15  O   UNK N   1      28.536  18.207   5.317  0.00  0.00    -0.353 OA
HETATM   16  C   UNK N   1      27.520  17.612   4.528  0.00  0.00     0.179 C 
HETATM   17  C   UNK N   1      26.685  16.675   5.389  0.00  0.00     0.187 C 
HETATM   18  C   UNK N   1      27.573  16.501   6.586  0.00  0.00     0.250 C 
HETATM   19  F   UNK N   1      26.869  16.196   7.739  0.00  0.00    -0.242 F 
BRANCH  16  20
HETATM   20  C   UNK N   1      28.124  16.869   3.353  0.00  0.00     0.198 C 
BRANCH  20  21
HETATM   21  O   UNK N   1      29.507  17.051   3.363  0.00  0.00    -0.398 OA
HETATM   22  H   UNK N   1      30.143  16.482   2.901  0.00  0.00     0.209 HD
ENDBRANCH  20  21
ENDBRANCH  16  20
BRANCH  17  23
HETATM   23  O   UNK N   1      25.516  17.345   5.748  0.00  0.00    -0.390 OA
HETATM   24  H   UNK N   1      25.244  18.134   6.245  0.00  0.00     0.210 HD
ENDBRANCH  17  23
ENDBRANCH   2  14
BRANCH  12  25
HETATM   25  N   UNK N   1      33.584  17.057   9.412  0.00  0.00    -0.383 N 
HETATM   26  H   UNK N   1      33.672  17.945   9.827  0.00  0.00     0.157 HD
HETATM   27  H   UNK N   1      34.106  16.298   9.759  0.00  0.00     0.157 HD
ENDBRANCH  12  25
TORSDOF 5
ENDMDL
MODEL 9
REMARK VINA RESULT:      -5.5     12.251     13.884
REMARK  5 active torsions:
REMARK  status: ('A' for Active; 'I' for Inactive)
REMARK    1  A    between atoms: C_15  and  O_4 
REMARK    2  A    between atoms: O_5  and  C_18 
REMARK    3  A    between atoms: C_14  and  N_6 
REMARK    4  A    between atoms: N_13  and  C_22 
REMARK    5  A    between atoms: C_17  and  C_18 
ROOT
HETATM    1 Cl   UNK N   1      33.653  10.842   9.659  0.00  0.00    -0.045 Cl
HETATM    2  N   UNK N   1      34.961  15.798   9.493  0.00  0.00    -0.297 N 
HETATM    3  N   UNK N   1      35.588  15.932  11.649  0.00  0.00    -0.346 N 
ATOM      4  HN  UNK N   1      35.930  16.294  12.540  1.00  0.00     0.167 HD
HETATM    5  N   UNK N   1      34.336  13.455   9.527  0.00  0.00    -0.316 N 
ATOM      6  HN  UNK N   1      34.058  13.418   8.546  1.00  0.00     0.170 HD
HETATM    7  N   UNK N   1      34.623  12.407  11.646  0.00  0.00    -0.317 N 
ATOM      8  HN  UNK N   1      34.551  11.572  12.228  1.00  0.00     0.170 HD
HETATM    9  C   UNK N   1      34.802  14.603  10.078  0.00  0.00     0.144 A 
HETATM   10  C   UNK N   1      35.447  16.605  10.473  0.00  0.00     0.188 A 
HETATM   11  C   UNK N   1      35.174  14.682  11.371  0.00  0.00     0.122 A 
HETATM   12  C   UNK N   1      35.091  13.570  12.191  0.00  0.00     0.132 A 
HETATM   13  C   UNK N   1      34.248  12.346  10.325  0.00  0.00     0.182 A 
ENDROOT
BRANCH   2  14
HETATM   14  C   UNK N   1      34.682  16.202   8.110  0.00  0.00     0.267 C 
HETATM   15  O   UNK N   1      34.324  15.111   7.293  0.00  0.00    -0.353 OA
HETATM   16  C   UNK N   1      33.496  15.650   6.277  0.00  0.00     0.179 C 
HETATM   17  C   UNK N   1      33.156  17.097   6.606  0.00  0.00     0.187 C 
HETATM   18  C   UNK N   1      33.521  17.165   8.059  0.00  0.00     0.250 C 
HETATM   19  F   UNK N   1      33.864  18.442   8.469  0.00  0.00    -0.242 F 
BRANCH  16  20
HETATM   20  C   UNK N   1      32.235  14.822   6.122  0.00  0.00     0.198 C 
BRANCH  20  21
HETATM   21  O   UNK N   1      32.097  13.992   7.234  0.00  0.00    -0.398 OA
HETATM   22  H   UNK N   1      32.668  14.019   8.019  0.00  0.00     0.209 HD
ENDBRANCH  20  21
ENDBRANCH  16  20
BRANCH  17  23
HETATM   23  O   UNK N   1      33.998  17.919   5.857  0.00  0.00    -0.390 OA
HETATM   24  H   UNK N   1      34.605  18.664   5.991  0.00  0.00     0.210 HD
ENDBRANCH  17  23
ENDBRANCH   2  14
BRANCH  12  25
HETATM   25  N   UNK N   1      35.469  13.627  13.548  0.00  0.00    -0.383 N 
HETATM   26  H   UNK N   1      36.408  13.482  13.806  0.00  0.00     0.157 HD
HETATM   27  H   UNK N   1      34.792  13.811  14.239  0.00  0.00     0.157 HD
ENDBRANCH  12  25
TORSDOF 5
ENDMDL
