MODEL 1
REMARK VINA RESULT:      -4.6      0.000      0.000
REMARK  21 active torsions:
REMARK  status: ('A' for Active; 'I' for Inactive)
REMARK    1  A    between atoms: O_1  and  C_22 
REMARK    2  A    between atoms: C_2  and  C_3 
REMARK    3  A    between atoms: C_2  and  C_4 
REMARK    4  A    between atoms: C_3  and  C_5 
REMARK    5  A    between atoms: C_4  and  C_6 
REMARK    6  A    between atoms: C_5  and  C_7 
REMARK    7  A    between atoms: C_6  and  C_8 
REMARK    8  A    between atoms: C_7  and  C_9 
REMARK    9  A    between atoms: C_8  and  C_10 
REMARK   10  A    between atoms: C_9  and  C_11 
REMARK   11  A    between atoms: C_10  and  C_12 
REMARK   12  A    between atoms: C_11  and  C_13 
REMARK   13  A    between atoms: C_12  and  C_14 
REMARK   14  A    between atoms: C_13  and  C_15 
REMARK   15  A    between atoms: C_14  and  C_16 
REMARK   16  A    between atoms: C_15  and  C_17 
REMARK   17  A    between atoms: C_16  and  C_18 
REMARK   18  A    between atoms: C_17  and  C_19 
REMARK   19  A    between atoms: C_18  and  C_20 
REMARK   20  A    between atoms: C_19  and  C_21 
REMARK   21  A    between atoms: C_20  and  C_22 
ROOT
HETATM    1  C   UNK N   1      25.179  25.576  -5.651  0.00  0.00     0.000 C 
ENDROOT
BRANCH   1   2
HETATM    2  C   UNK N   1      26.274  24.675  -5.383  0.00  0.00     0.000 C 
BRANCH   2   3
HETATM    3  C   UNK N   1      26.449  24.997  -3.985  0.00  0.00     0.000 C 
BRANCH   3   4
HETATM    4  C   UNK N   1      27.683  24.364  -3.588  0.00  0.00     0.000 C 
BRANCH   4   5
HETATM    5  C   UNK N   1      28.634  25.231  -4.266  0.00  0.00     0.000 C 
BRANCH   5   6
HETATM    6  C   UNK N   1      29.897  24.893  -3.647  0.00  0.00     0.000 C 
BRANCH   6   7
HETATM    7  C   UNK N   1      29.627  23.670  -2.887  0.00  0.00     0.000 C 
BRANCH   7   8
HETATM    8  C   UNK N   1      30.962  23.074  -2.862  0.00  0.00     0.000 C 
BRANCH   8   9
HETATM    9  C   UNK N   1      31.306  22.561  -4.198  0.00  0.00     0.000 C 
BRANCH   9  10
HETATM   10  C   UNK N   1      30.416  21.374  -4.280  0.00  0.00    -0.000 C 
BRANCH  10  11
HETATM   11  C   UNK N   1      30.122  21.039  -5.701  0.00  0.00    -0.005 C 
HETATM   12  C   UNK N   1      29.188  22.115  -6.192  0.00  0.00     0.005 C 
ENDBRANCH  10  11
ENDBRANCH   9  10
ENDBRANCH   8   9
ENDBRANCH   7   8
ENDBRANCH   6   7
ENDBRANCH   5   6
ENDBRANCH   4   5
ENDBRANCH   3   4
ENDBRANCH   2   3
ENDBRANCH   1   2
BRANCH   1  13
HETATM   13  C   UNK N   1      25.755  26.678  -6.376  0.00  0.00     0.000 C 
BRANCH  13  14
HETATM   14  C   UNK N   1      26.433  25.941  -7.425  0.00  0.00     0.000 C 
BRANCH  14  15
HETATM   15  C   UNK N   1      27.325  26.924  -7.990  0.00  0.00     0.000 C 
BRANCH  15  16
HETATM   16  C   UNK N   1      27.451  27.909  -6.928  0.00  0.00     0.000 C 
BRANCH  16  17
HETATM   17  C   UNK N   1      28.606  28.652  -7.393  0.00  0.00     0.000 C 
BRANCH  17  18
HETATM   18  C   UNK N   1      28.726  29.842  -6.553  0.00  0.00     0.000 C 
BRANCH  18  19
HETATM   19  C   UNK N   1      27.703  29.538  -5.548  0.00  0.00     0.000 C 
BRANCH  19  20
HETATM   20  C   UNK N   1      27.646  30.598  -4.534  0.00  0.00     0.002 C 
BRANCH  20  21
HETATM   21  C   UNK N   1      26.510  30.167  -3.703  0.00  0.00     0.026 C 
BRANCH  21  22
HETATM   22  C   UNK N   1      26.610  28.712  -3.346  0.00  0.00     0.164 C 
BRANCH  22  23
HETATM   23  O   UNK N   1      25.380  28.224  -3.235  0.00  0.00    -0.401 OA
HETATM   24  H   UNK N   1      24.649  28.806  -2.975  0.00  0.00     0.209 HD
ENDBRANCH  22  23
ENDBRANCH  21  22
ENDBRANCH  20  21
ENDBRANCH  19  20
ENDBRANCH  18  19
ENDBRANCH  17  18
ENDBRANCH  16  17
ENDBRANCH  15  16
ENDBRANCH  14  15
ENDBRANCH  13  14
ENDBRANCH   1  13
TORSDOF 21
ENDMDL
MODEL 2
REMARK VINA RESULT:      -4.6      2.470      5.345
REMARK  21 active torsions:
REMARK  status: ('A' for Active; 'I' for Inactive)
REMARK    1  A    between atoms: O_1  and  C_22 
REMARK    2  A    between atoms: C_2  and  C_3 
REMARK    3  A    between atoms: C_2  and  C_4 
REMARK    4  A    between atoms: C_3  and  C_5 
REMARK    5  A    between atoms: C_4  and  C_6 
REMARK    6  A    between atoms: C_5  and  C_7 
REMARK    7  A    between atoms: C_6  and  C_8 
REMARK    8  A    between atoms: C_7  and  C_9 
REMARK    9  A    between atoms: C_8  and  C_10 
REMARK   10  A    between atoms: C_9  and  C_11 
REMARK   11  A    between atoms: C_10  and  C_12 
REMARK   12  A    between atoms: C_11  and  C_13 
REMARK   13  A    between atoms: C_12  and  C_14 
REMARK   14  A    between atoms: C_13  and  C_15 
REMARK   15  A    between atoms: C_14  and  C_16 
REMARK   16  A    between atoms: C_15  and  C_17 
REMARK   17  A    between atoms: C_16  and  C_18 
REMARK   18  A    between atoms: C_17  and  C_19 
REMARK   19  A    between atoms: C_18  and  C_20 
REMARK   20  A    between atoms: C_19  and  C_21 
REMARK   21  A    between atoms: C_20  and  C_22 
ROOT
HETATM    1  C   UNK N   1      28.162  29.639  -5.094  0.00  0.00     0.000 C 
ENDROOT
BRANCH   1   2
HETATM    2  C   UNK N   1      26.906  29.797  -4.401  0.00  0.00     0.000 C 
BRANCH   2   3
HETATM    3  C   UNK N   1      26.919  28.538  -3.692  0.00  0.00     0.000 C 
BRANCH   3   4
HETATM    4  C   UNK N   1      25.564  28.044  -3.745  0.00  0.00     0.000 C 
BRANCH   4   5
HETATM    5  C   UNK N   1      25.800  26.743  -4.352  0.00  0.00     0.000 C 
BRANCH   5   6
HETATM    6  C   UNK N   1      25.121  26.839  -5.625  0.00  0.00     0.000 C 
BRANCH   6   7
HETATM    7  C   UNK N   1      25.583  25.675  -6.386  0.00  0.00     0.000 C 
BRANCH   7   8
HETATM    8  C   UNK N   1      25.535  24.645  -5.349  0.00  0.00     0.000 C 
BRANCH   8   9
HETATM    9  C   UNK N   1      25.791  23.324  -5.945  0.00  0.00     0.000 C 
BRANCH   9  10
HETATM   10  C   UNK N   1      26.021  23.696  -7.365  0.00  0.00    -0.000 C 
BRANCH  10  11
HETATM   11  C   UNK N   1      25.256  22.795  -8.271  0.00  0.00    -0.005 C 
HETATM   12  C   UNK N   1      25.075  21.507  -7.511  0.00  0.00     0.005 C 
ENDBRANCH  10  11
ENDBRANCH   9  10
ENDBRANCH   8   9
ENDBRANCH   7   8
ENDBRANCH   6   7
ENDBRANCH   5   6
ENDBRANCH   4   5
ENDBRANCH   3   4
ENDBRANCH   2   3
ENDBRANCH   1   2
BRANCH   1  13
HETATM   13  C   UNK N   1      27.819  29.156  -6.406  0.00  0.00     0.000 C 
BRANCH  13  14
HETATM   14  C   UNK N   1      29.110  28.632  -6.809  0.00  0.00     0.000 C 
BRANCH  14  15
HETATM   15  C   UNK N   1      29.172  27.361  -6.132  0.00  0.00     0.000 C 
BRANCH  15  16
HETATM   16  C   UNK N   1      29.564  26.440  -7.186  0.00  0.00     0.000 C 
BRANCH  16  17
HETATM   17  C   UNK N   1      29.286  25.169  -6.544  0.00  0.00     0.000 C 
BRANCH  17  18
HETATM   18  C   UNK N   1      29.059  25.438  -5.126  0.00  0.00     0.000 C 
BRANCH  18  19
HETATM   19  C   UNK N   1      29.288  24.095  -4.582  0.00  0.00     0.000 C 
BRANCH  19  20
HETATM   20  C   UNK N   1      28.593  23.935  -3.299  0.00  0.00     0.002 C 
BRANCH  20  21
HETATM   21  C   UNK N   1      29.388  22.879  -2.650  0.00  0.00     0.026 C 
BRANCH  21  22
HETATM   22  C   UNK N   1      30.861  23.129  -2.797  0.00  0.00     0.164 C 
BRANCH  22  23
HETATM   23  O   UNK N   1      31.513  22.219  -2.084  0.00  0.00    -0.401 OA
HETATM   24  H   UNK N   1      31.044  21.440  -1.747  0.00  0.00     0.209 HD
ENDBRANCH  22  23
ENDBRANCH  21  22
ENDBRANCH  20  21
ENDBRANCH  19  20
ENDBRANCH  18  19
ENDBRANCH  17  18
ENDBRANCH  16  17
ENDBRANCH  15  16
ENDBRANCH  14  15
ENDBRANCH  13  14
ENDBRANCH   1  13
TORSDOF 21
ENDMDL
MODEL 3
REMARK VINA RESULT:      -4.5      2.861      5.896
REMARK  21 active torsions:
REMARK  status: ('A' for Active; 'I' for Inactive)
REMARK    1  A    between atoms: O_1  and  C_22 
REMARK    2  A    between atoms: C_2  and  C_3 
REMARK    3  A    between atoms: C_2  and  C_4 
REMARK    4  A    between atoms: C_3  and  C_5 
REMARK    5  A    between atoms: C_4  and  C_6 
REMARK    6  A    between atoms: C_5  and  C_7 
REMARK    7  A    between atoms: C_6  and  C_8 
REMARK    8  A    between atoms: C_7  and  C_9 
REMARK    9  A    between atoms: C_8  and  C_10 
REMARK   10  A    between atoms: C_9  and  C_11 
REMARK   11  A    between atoms: C_10  and  C_12 
REMARK   12  A    between atoms: C_11  and  C_13 
REMARK   13  A    between atoms: C_12  and  C_14 
REMARK   14  A    between atoms: C_13  and  C_15 
REMARK   15  A    between atoms: C_14  and  C_16 
REMARK   16  A    between atoms: C_15  and  C_17 
REMARK   17  A    between atoms: C_16  and  C_18 
REMARK   18  A    between atoms: C_17  and  C_19 
REMARK   19  A    between atoms: C_18  and  C_20 
REMARK   20  A    between atoms: C_19  and  C_21 
REMARK   21  A    between atoms: C_20  and  C_22 
ROOT
HETATM    1  C   UNK N   1      25.270  27.791  -4.823  0.00  0.00     0.000 C 
ENDROOT
BRANCH   1   2
HETATM    2  C   UNK N   1      24.919  26.968  -5.954  0.00  0.00     0.000 C 
BRANCH   2   3
HETATM    3  C   UNK N   1      26.141  27.143  -6.705  0.00  0.00     0.000 C 
BRANCH   3   4
HETATM    4  C   UNK N   1      26.060  26.217  -7.809  0.00  0.00     0.000 C 
BRANCH   4   5
HETATM    5  C   UNK N   1      25.751  24.995  -7.083  0.00  0.00     0.000 C 
BRANCH   5   6
HETATM    6  C   UNK N   1      25.784  23.977  -8.110  0.00  0.00     0.000 C 
BRANCH   6   7
HETATM    7  C   UNK N   1      26.110  22.738  -7.401  0.00  0.00     0.000 C 
BRANCH   7   8
HETATM    8  C   UNK N   1      27.552  22.671  -7.635  0.00  0.00     0.000 C 
BRANCH   8   9
HETATM    9  C   UNK N   1      28.008  21.274  -7.553  0.00  0.00     0.000 C 
BRANCH   9  10
HETATM   10  C   UNK N   1      29.398  21.460  -7.063  0.00  0.00    -0.000 C 
BRANCH  10  11
HETATM   11  C   UNK N   1      30.054  20.142  -6.840  0.00  0.00    -0.005 C 
HETATM   12  C   UNK N   1      29.362  19.177  -7.767  0.00  0.00     0.005 C 
ENDBRANCH  10  11
ENDBRANCH   9  10
ENDBRANCH   8   9
ENDBRANCH   7   8
ENDBRANCH   6   7
ENDBRANCH   5   6
ENDBRANCH   4   5
ENDBRANCH   3   4
ENDBRANCH   2   3
ENDBRANCH   1   2
BRANCH   1  13
HETATM   13  C   UNK N   1      26.593  27.376  -4.440  0.00  0.00     0.000 C 
BRANCH  13  14
HETATM   14  C   UNK N   1      26.286  26.751  -3.168  0.00  0.00     0.000 C 
BRANCH  14  15
HETATM   15  C   UNK N   1      26.619  25.366  -3.397  0.00  0.00     0.000 C 
BRANCH  15  16
HETATM   16  C   UNK N   1      27.918  25.438  -4.047  0.00  0.00     0.000 C 
BRANCH  16  17
HETATM   17  C   UNK N   1      28.162  24.033  -4.306  0.00  0.00     0.000 C 
BRANCH  17  18
HETATM   18  C   UNK N   1      29.610  23.839  -4.332  0.00  0.00     0.000 C 
BRANCH  18  19
HETATM   19  C   UNK N   1      29.726  22.726  -3.384  0.00  0.00     0.000 C 
BRANCH  19  20
HETATM   20  C   UNK N   1      31.103  22.615  -2.887  0.00  0.00     0.002 C 
BRANCH  20  21
HETATM   21  C   UNK N   1      31.602  21.444  -3.628  0.00  0.00     0.026 C 
BRANCH  21  22
HETATM   22  C   UNK N   1      33.010  21.103  -3.236  0.00  0.00     0.164 C 
BRANCH  22  23
HETATM   23  O   UNK N   1      33.061  20.997  -1.914  0.00  0.00    -0.401 OA
HETATM   24  H   UNK N   1      33.741  21.476  -1.415  0.00  0.00     0.209 HD
ENDBRANCH  22  23
ENDBRANCH  21  22
ENDBRANCH  20  21
ENDBRANCH  19  20
ENDBRANCH  18  19
ENDBRANCH  17  18
ENDBRANCH  16  17
ENDBRANCH  15  16
ENDBRANCH  14  15
ENDBRANCH  13  14
ENDBRANCH   1  13
TORSDOF 21
ENDMDL
MODEL 4
REMARK VINA RESULT:      -4.4      2.184      4.344
REMARK  21 active torsions:
REMARK  status: ('A' for Active; 'I' for Inactive)
REMARK    1  A    between atoms: O_1  and  C_22 
REMARK    2  A    between atoms: C_2  and  C_3 
REMARK    3  A    between atoms: C_2  and  C_4 
REMARK    4  A    between atoms: C_3  and  C_5 
REMARK    5  A    between atoms: C_4  and  C_6 
REMARK    6  A    between atoms: C_5  and  C_7 
REMARK    7  A    between atoms: C_6  and  C_8 
REMARK    8  A    between atoms: C_7  and  C_9 
REMARK    9  A    between atoms: C_8  and  C_10 
REMARK   10  A    between atoms: C_9  and  C_11 
REMARK   11  A    between atoms: C_10  and  C_12 
REMARK   12  A    between atoms: C_11  and  C_13 
REMARK   13  A    between atoms: C_12  and  C_14 
REMARK   14  A    between atoms: C_13  and  C_15 
REMARK   15  A    between atoms: C_14  and  C_16 
REMARK   16  A    between atoms: C_15  and  C_17 
REMARK   17  A    between atoms: C_16  and  C_18 
REMARK   18  A    between atoms: C_17  and  C_19 
REMARK   19  A    between atoms: C_18  and  C_20 
REMARK   20  A    between atoms: C_19  and  C_21 
REMARK   21  A    between atoms: C_20  and  C_22 
ROOT
HETATM    1  C   UNK N   1      28.521  26.876  -7.091  0.00  0.00     0.000 C 
ENDROOT
BRANCH   1   2
HETATM    2  C   UNK N   1      29.808  26.832  -6.441  0.00  0.00     0.000 C 
BRANCH   2   3
HETATM    3  C   UNK N   1      29.635  25.570  -5.759  0.00  0.00     0.000 C 
BRANCH   3   4
HETATM    4  C   UNK N   1      30.025  25.806  -4.390  0.00  0.00     0.000 C 
BRANCH   4   5
HETATM    5  C   UNK N   1      29.758  24.491  -3.828  0.00  0.00     0.000 C 
BRANCH   5   6
HETATM    6  C   UNK N   1      31.045  24.078  -3.314  0.00  0.00     0.000 C 
BRANCH   6   7
HETATM    7  C   UNK N   1      30.767  22.872  -2.529  0.00  0.00     0.000 C 
BRANCH   7   8
HETATM    8  C   UNK N   1      29.996  22.097  -3.501  0.00  0.00     0.000 C 
BRANCH   8   9
HETATM    9  C   UNK N   1      30.697  20.839  -3.806  0.00  0.00     0.000 C 
BRANCH   9  10
HETATM   10  C   UNK N   1      30.973  21.017  -5.255  0.00  0.00    -0.000 C 
BRANCH  10  11
HETATM   11  C   UNK N   1      29.726  21.378  -5.984  0.00  0.00    -0.005 C 
HETATM   12  C   UNK N   1      30.164  22.223  -7.152  0.00  0.00     0.005 C 
ENDBRANCH  10  11
ENDBRANCH   9  10
ENDBRANCH   8   9
ENDBRANCH   7   8
ENDBRANCH   6   7
ENDBRANCH   5   6
ENDBRANCH   4   5
ENDBRANCH   3   4
ENDBRANCH   2   3
ENDBRANCH   1   2
BRANCH   1  13
HETATM   13  C   UNK N   1      27.883  28.069  -6.601  0.00  0.00     0.000 C 
BRANCH  13  14
HETATM   14  C   UNK N   1      26.505  27.615  -6.595  0.00  0.00     0.000 C 
BRANCH  14  15
HETATM   15  C   UNK N   1      26.139  27.701  -5.203  0.00  0.00     0.000 C 
BRANCH  15  16
HETATM   16  C   UNK N   1      25.464  26.438  -4.956  0.00  0.00     0.000 C 
BRANCH  16  17
HETATM   17  C   UNK N   1      26.357  25.847  -3.979  0.00  0.00     0.000 C 
BRANCH  17  18
HETATM   18  C   UNK N   1      26.201  24.396  -4.066  0.00  0.00     0.000 C 
BRANCH  18  19
HETATM   19  C   UNK N   1      25.796  24.277  -5.471  0.00  0.00     0.000 C 
BRANCH  19  20
HETATM   20  C   UNK N   1      26.653  23.313  -6.173  0.00  0.00     0.002 C 
BRANCH  20  21
HETATM   21  C   UNK N   1      26.365  23.619  -7.584  0.00  0.00     0.026 C 
BRANCH  21  22
HETATM   22  C   UNK N   1      25.654  22.482  -8.260  0.00  0.00     0.164 C 
BRANCH  22  23
HETATM   23  O   UNK N   1      24.373  22.805  -8.384  0.00  0.00    -0.401 OA
HETATM   24  H   UNK N   1      23.940  22.749  -9.250  0.00  0.00     0.209 HD
ENDBRANCH  22  23
ENDBRANCH  21  22
ENDBRANCH  20  21
ENDBRANCH  19  20
ENDBRANCH  18  19
ENDBRANCH  17  18
ENDBRANCH  16  17
ENDBRANCH  15  16
ENDBRANCH  14  15
ENDBRANCH  13  14
ENDBRANCH   1  13
TORSDOF 21
ENDMDL
MODEL 5
REMARK VINA RESULT:      -4.4     24.040     28.051
REMARK  21 active torsions:
REMARK  status: ('A' for Active; 'I' for Inactive)
REMARK    1  A    between atoms: O_1  and  C_22 
REMARK    2  A    between atoms: C_2  and  C_3 
REMARK    3  A    between atoms: C_2  and  C_4 
REMARK    4  A    between atoms: C_3  and  C_5 
REMARK    5  A    between atoms: C_4  and  C_6 
REMARK    6  A    between atoms: C_5  and  C_7 
REMARK    7  A    between atoms: C_6  and  C_8 
REMARK    8  A    between atoms: C_7  and  C_9 
REMARK    9  A    between atoms: C_8  and  C_10 
REMARK   10  A    between atoms: C_9  and  C_11 
REMARK   11  A    between atoms: C_10  and  C_12 
REMARK   12  A    between atoms: C_11  and  C_13 
REMARK   13  A    between atoms: C_12  and  C_14 
REMARK   14  A    between atoms: C_13  and  C_15 
REMARK   15  A    between atoms: C_14  and  C_16 
REMARK   16  A    between atoms: C_15  and  C_17 
REMARK   17  A    between atoms: C_16  and  C_18 
REMARK   18  A    between atoms: C_17  and  C_19 
REMARK   19  A    between atoms: C_18  and  C_20 
REMARK   20  A    between atoms: C_19  and  C_21 
REMARK   21  A    between atoms: C_20  and  C_22 
ROOT
HETATM    1  C   UNK N   1      35.022  13.404  16.448  0.00  0.00     0.000 C 
ENDROOT
BRANCH   1   2
HETATM    2  C   UNK N   1      36.357  13.835  16.109  0.00  0.00     0.000 C 
BRANCH   2   3
HETATM    3  C   UNK N   1      36.449  13.180  14.825  0.00  0.00     0.000 C 
BRANCH   3   4
HETATM    4  C   UNK N   1      36.351  14.231  13.841  0.00  0.00     0.000 C 
BRANCH   4   5
HETATM    5  C   UNK N   1      35.410  13.616  12.917  0.00  0.00     0.000 C 
BRANCH   5   6
HETATM    6  C   UNK N   1      35.939  12.283  12.737  0.00  0.00     0.000 C 
BRANCH   6   7
HETATM    7  C   UNK N   1      34.816  11.499  12.216  0.00  0.00     0.000 C 
BRANCH   7   8
HETATM    8  C   UNK N   1      34.795  10.397  13.177  0.00  0.00     0.000 C 
BRANCH   8   9
HETATM    9  C   UNK N   1      33.769  10.647  14.202  0.00  0.00     0.000 C 
BRANCH   9  10
HETATM   10  C   UNK N   1      34.404  10.024  15.392  0.00  0.00    -0.000 C 
BRANCH  10  11
HETATM   11  C   UNK N   1      35.709   9.410  15.026  0.00  0.00    -0.005 C 
HETATM   12  C   UNK N   1      36.410   9.127  16.329  0.00  0.00     0.005 C 
ENDBRANCH  10  11
ENDBRANCH   9  10
ENDBRANCH   8   9
ENDBRANCH   7   8
ENDBRANCH   6   7
ENDBRANCH   5   6
ENDBRANCH   4   5
ENDBRANCH   3   4
ENDBRANCH   2   3
ENDBRANCH   1   2
BRANCH   1  13
HETATM   13  C   UNK N   1      35.182  12.465  17.526  0.00  0.00     0.000 C 
BRANCH  13  14
HETATM   14  C   UNK N   1      35.240  13.392  18.640  0.00  0.00     0.000 C 
BRANCH  14  15
HETATM   15  C   UNK N   1      35.117  12.529  19.789  0.00  0.00     0.000 C 
BRANCH  15  16
HETATM   16  C   UNK N   1      35.508  11.228  19.273  0.00  0.00     0.000 C 
BRANCH  16  17
HETATM   17  C   UNK N   1      35.110  10.375  20.376  0.00  0.00     0.000 C 
BRANCH  17  18
HETATM   18  C   UNK N   1      34.989   9.015  19.855  0.00  0.00     0.000 C 
BRANCH  18  19
HETATM   19  C   UNK N   1      33.578   9.031  19.455  0.00  0.00     0.000 C 
BRANCH  19  20
HETATM   20  C   UNK N   1      32.708   8.954  20.635  0.00  0.00     0.002 C 
BRANCH  20  21
HETATM   21  C   UNK N   1      31.410   8.605  20.036  0.00  0.00     0.026 C 
BRANCH  21  22
HETATM   22  C   UNK N   1      30.978   7.220  20.423  0.00  0.00     0.164 C 
BRANCH  22  23
HETATM   23  O   UNK N   1      31.163   6.418  19.382  0.00  0.00    -0.401 OA
HETATM   24  H   UNK N   1      32.025   6.390  18.938  0.00  0.00     0.209 HD
ENDBRANCH  22  23
ENDBRANCH  21  22
ENDBRANCH  20  21
ENDBRANCH  19  20
ENDBRANCH  18  19
ENDBRANCH  17  18
ENDBRANCH  16  17
ENDBRANCH  15  16
ENDBRANCH  14  15
ENDBRANCH  13  14
ENDBRANCH   1  13
TORSDOF 21
ENDMDL
MODEL 6
REMARK VINA RESULT:      -4.4      2.515      6.104
REMARK  21 active torsions:
REMARK  status: ('A' for Active; 'I' for Inactive)
REMARK    1  A    between atoms: O_1  and  C_22 
REMARK    2  A    between atoms: C_2  and  C_3 
REMARK    3  A    between atoms: C_2  and  C_4 
REMARK    4  A    between atoms: C_3  and  C_5 
REMARK    5  A    between atoms: C_4  and  C_6 
REMARK    6  A    between atoms: C_5  and  C_7 
REMARK    7  A    between atoms: C_6  and  C_8 
REMARK    8  A    between atoms: C_7  and  C_9 
REMARK    9  A    between atoms: C_8  and  C_10 
REMARK   10  A    between atoms: C_9  and  C_11 
REMARK   11  A    between atoms: C_10  and  C_12 
REMARK   12  A    between atoms: C_11  and  C_13 
REMARK   13  A    between atoms: C_12  and  C_14 
REMARK   14  A    between atoms: C_13  and  C_15 
REMARK   15  A    between atoms: C_14  and  C_16 
REMARK   16  A    between atoms: C_15  and  C_17 
REMARK   17  A    between atoms: C_16  and  C_18 
REMARK   18  A    between atoms: C_17  and  C_19 
REMARK   19  A    between atoms: C_18  and  C_20 
REMARK   20  A    between atoms: C_19  and  C_21 
REMARK   21  A    between atoms: C_20  and  C_22 
ROOT
HETATM    1  C   UNK N   1      25.118  27.695  -5.075  0.00  0.00     0.000 C 
ENDROOT
BRANCH   1   2
HETATM    2  C   UNK N   1      25.844  27.632  -3.829  0.00  0.00     0.000 C 
BRANCH   2   3
HETATM    3  C   UNK N   1      26.099  29.047  -3.685  0.00  0.00     0.000 C 
BRANCH   3   4
HETATM    4  C   UNK N   1      26.919  29.415  -4.814  0.00  0.00     0.000 C 
BRANCH   4   5
HETATM    5  C   UNK N   1      28.196  28.871  -4.379  0.00  0.00     0.000 C 
BRANCH   5   6
HETATM    6  C   UNK N   1      28.772  28.349  -5.598  0.00  0.00     0.000 C 
BRANCH   6   7
HETATM    7  C   UNK N   1      28.386  29.308  -6.637  0.00  0.00     0.000 C 
BRANCH   7   8
HETATM    8  C   UNK N   1      28.503  28.468  -7.828  0.00  0.00     0.000 C 
BRANCH   8   9
HETATM    9  C   UNK N   1      27.860  27.166  -7.586  0.00  0.00     0.000 C 
BRANCH   9  10
HETATM   10  C   UNK N   1      28.141  26.472  -8.869  0.00  0.00    -0.000 C 
BRANCH  10  11
HETATM   11  C   UNK N   1      27.184  25.350  -9.075  0.00  0.00    -0.005 C 
HETATM   12  C   UNK N   1      25.814  25.975  -9.086  0.00  0.00     0.005 C 
ENDBRANCH  10  11
ENDBRANCH   9  10
ENDBRANCH   8   9
ENDBRANCH   7   8
ENDBRANCH   6   7
ENDBRANCH   5   6
ENDBRANCH   4   5
ENDBRANCH   3   4
ENDBRANCH   2   3
ENDBRANCH   1   2
BRANCH   1  13
HETATM   13  C   UNK N   1      24.962  26.329  -5.498  0.00  0.00     0.000 C 
BRANCH  13  14
HETATM   14  C   UNK N   1      26.041  25.722  -4.743  0.00  0.00     0.000 C 
BRANCH  14  15
HETATM   15  C   UNK N   1      26.099  24.383  -5.274  0.00  0.00     0.000 C 
BRANCH  15  16
HETATM   16  C   UNK N   1      27.521  24.167  -5.483  0.00  0.00     0.000 C 
BRANCH  16  17
HETATM   17  C   UNK N   1      28.070  24.939  -4.385  0.00  0.00     0.000 C 
BRANCH  17  18
HETATM   18  C   UNK N   1      29.348  24.331  -4.021  0.00  0.00     0.000 C 
BRANCH  18  19
HETATM   19  C   UNK N   1      28.903  23.458  -2.930  0.00  0.00     0.000 C 
BRANCH  19  20
HETATM   20  C   UNK N   1      30.057  22.914  -2.202  0.00  0.00     0.002 C 
BRANCH  20  21
HETATM   21  C   UNK N   1      30.569  21.909  -3.148  0.00  0.00     0.026 C 
BRANCH  21  22
HETATM   22  C   UNK N   1      32.042  21.680  -2.964  0.00  0.00     0.164 C 
BRANCH  22  23
HETATM   23  O   UNK N   1      32.336  20.467  -3.415  0.00  0.00    -0.401 OA
HETATM   24  H   UNK N   1      31.698  19.987  -3.967  0.00  0.00     0.209 HD
ENDBRANCH  22  23
ENDBRANCH  21  22
ENDBRANCH  20  21
ENDBRANCH  19  20
ENDBRANCH  18  19
ENDBRANCH  17  18
ENDBRANCH  16  17
ENDBRANCH  15  16
ENDBRANCH  14  15
ENDBRANCH  13  14
ENDBRANCH   1  13
TORSDOF 21
ENDMDL
MODEL 7
REMARK VINA RESULT:      -4.4     12.753     16.954
REMARK  21 active torsions:
REMARK  status: ('A' for Active; 'I' for Inactive)
REMARK    1  A    between atoms: O_1  and  C_22 
REMARK    2  A    between atoms: C_2  and  C_3 
REMARK    3  A    between atoms: C_2  and  C_4 
REMARK    4  A    between atoms: C_3  and  C_5 
REMARK    5  A    between atoms: C_4  and  C_6 
REMARK    6  A    between atoms: C_5  and  C_7 
REMARK    7  A    between atoms: C_6  and  C_8 
REMARK    8  A    between atoms: C_7  and  C_9 
REMARK    9  A    between atoms: C_8  and  C_10 
REMARK   10  A    between atoms: C_9  and  C_11 
REMARK   11  A    between atoms: C_10  and  C_12 
REMARK   12  A    between atoms: C_11  and  C_13 
REMARK   13  A    between atoms: C_12  and  C_14 
REMARK   14  A    between atoms: C_13  and  C_15 
REMARK   15  A    between atoms: C_14  and  C_16 
REMARK   16  A    between atoms: C_15  and  C_17 
REMARK   17  A    between atoms: C_16  and  C_18 
REMARK   18  A    between atoms: C_17  and  C_19 
REMARK   19  A    between atoms: C_18  and  C_20 
REMARK   20  A    between atoms: C_19  and  C_21 
REMARK   21  A    between atoms: C_20  and  C_22 
ROOT
HETATM    1  C   UNK N   1      32.256  17.523   6.734  0.00  0.00     0.000 C 
ENDROOT
BRANCH   1   2
HETATM    2  C   UNK N   1      32.215  17.808   8.148  0.00  0.00     0.000 C 
BRANCH   2   3
HETATM    3  C   UNK N   1      31.057  17.007   8.471  0.00  0.00     0.000 C 
BRANCH   3   4
HETATM    4  C   UNK N   1      30.086  17.286   7.440  0.00  0.00     0.000 C 
BRANCH   4   5
HETATM    5  C   UNK N   1      29.034  17.884   8.248  0.00  0.00     0.000 C 
BRANCH   5   6
HETATM    6  C   UNK N   1      28.371  18.779   7.326  0.00  0.00     0.000 C 
BRANCH   6   7
HETATM    7  C   UNK N   1      28.247  18.014   6.083  0.00  0.00     0.000 C 
BRANCH   7   8
HETATM    8  C   UNK N   1      28.035  19.098   5.125  0.00  0.00     0.000 C 
BRANCH   8   9
HETATM    9  C   UNK N   1      27.517  20.287   5.823  0.00  0.00     0.000 C 
BRANCH   9  10
HETATM   10  C   UNK N   1      26.380  20.657   4.941  0.00  0.00    -0.000 C 
BRANCH  10  11
HETATM   11  C   UNK N   1      26.708  20.368   3.518  0.00  0.00    -0.005 C 
HETATM   12  C   UNK N   1      25.392  20.375   2.784  0.00  0.00     0.005 C 
ENDBRANCH  10  11
ENDBRANCH   9  10
ENDBRANCH   8   9
ENDBRANCH   7   8
ENDBRANCH   6   7
ENDBRANCH   5   6
ENDBRANCH   4   5
ENDBRANCH   3   4
ENDBRANCH   2   3
ENDBRANCH   1   2
BRANCH   1  13
HETATM   13  C   UNK N   1      33.629  17.706   6.344  0.00  0.00     0.000 C 
BRANCH  13  14
HETATM   14  C   UNK N   1      33.750  16.621   5.389  0.00  0.00     0.000 C 
BRANCH  14  15
HETATM   15  C   UNK N   1      34.481  15.619   6.126  0.00  0.00     0.000 C 
BRANCH  15  16
HETATM   16  C   UNK N   1      33.781  14.387   5.798  0.00  0.00     0.000 C 
BRANCH  16  17
HETATM   17  C   UNK N   1      33.260  14.024   7.101  0.00  0.00     0.000 C 
BRANCH  17  18
HETATM   18  C   UNK N   1      34.262  14.405   8.094  0.00  0.00     0.000 C 
BRANCH  18  19
HETATM   19  C   UNK N   1      33.541  14.048   9.320  0.00  0.00     0.000 C 
BRANCH  19  20
HETATM   20  C   UNK N   1      34.053  14.818  10.460  0.00  0.00     0.002 C 
BRANCH  20  21
HETATM   21  C   UNK N   1      34.815  15.886   9.791  0.00  0.00     0.026 C 
BRANCH  21  22
HETATM   22  C   UNK N   1      35.623  16.684  10.773  0.00  0.00     0.164 C 
BRANCH  22  23
HETATM   23  O   UNK N   1      36.804  16.095  10.919  0.00  0.00    -0.401 OA
HETATM   24  H   UNK N   1      37.603  16.633  11.031  0.00  0.00     0.209 HD
ENDBRANCH  22  23
ENDBRANCH  21  22
ENDBRANCH  20  21
ENDBRANCH  19  20
ENDBRANCH  18  19
ENDBRANCH  17  18
ENDBRANCH  16  17
ENDBRANCH  15  16
ENDBRANCH  14  15
ENDBRANCH  13  14
ENDBRANCH   1  13
TORSDOF 21
ENDMDL
MODEL 8
REMARK VINA RESULT:      -4.4      2.351      6.292
REMARK  21 active torsions:
REMARK  status: ('A' for Active; 'I' for Inactive)
REMARK    1  A    between atoms: O_1  and  C_22 
REMARK    2  A    between atoms: C_2  and  C_3 
REMARK    3  A    between atoms: C_2  and  C_4 
REMARK    4  A    between atoms: C_3  and  C_5 
REMARK    5  A    between atoms: C_4  and  C_6 
REMARK    6  A    between atoms: C_5  and  C_7 
REMARK    7  A    between atoms: C_6  and  C_8 
REMARK    8  A    between atoms: C_7  and  C_9 
REMARK    9  A    between atoms: C_8  and  C_10 
REMARK   10  A    between atoms: C_9  and  C_11 
REMARK   11  A    between atoms: C_10  and  C_12 
REMARK   12  A    between atoms: C_11  and  C_13 
REMARK   13  A    between atoms: C_12  and  C_14 
REMARK   14  A    between atoms: C_13  and  C_15 
REMARK   15  A    between atoms: C_14  and  C_16 
REMARK   16  A    between atoms: C_15  and  C_17 
REMARK   17  A    between atoms: C_16  and  C_18 
REMARK   18  A    between atoms: C_17  and  C_19 
REMARK   19  A    between atoms: C_18  and  C_20 
REMARK   20  A    between atoms: C_19  and  C_21 
REMARK   21  A    between atoms: C_20  and  C_22 
ROOT
HETATM    1  C   UNK N   1      30.491  21.142  -3.813  0.00  0.00     0.000 C 
ENDROOT
BRANCH   1   2
HETATM    2  C   UNK N   1      31.309  21.062  -4.999  0.00  0.00     0.000 C 
BRANCH   2   3
HETATM    3  C   UNK N   1      30.308  20.516  -5.886  0.00  0.00     0.000 C 
BRANCH   3   4
HETATM    4  C   UNK N   1      29.459  21.625  -6.249  0.00  0.00     0.000 C 
BRANCH   4   5
HETATM    5  C   UNK N   1      30.315  22.282  -7.225  0.00  0.00     0.000 C 
BRANCH   5   6
HETATM    6  C   UNK N   1      29.963  23.678  -7.094  0.00  0.00     0.000 C 
BRANCH   6   7
HETATM    7  C   UNK N   1      31.218  24.352  -6.749  0.00  0.00     0.000 C 
BRANCH   7   8
HETATM    8  C   UNK N   1      30.709  25.650  -6.310  0.00  0.00     0.000 C 
BRANCH   8   9
HETATM    9  C   UNK N   1      29.387  25.897  -6.909  0.00  0.00     0.000 C 
BRANCH   9  10
HETATM   10  C   UNK N   1      28.854  26.939  -5.994  0.00  0.00    -0.000 C 
BRANCH  10  11
HETATM   11  C   UNK N   1      27.561  27.471  -6.507  0.00  0.00    -0.005 C 
HETATM   12  C   UNK N   1      27.528  28.923  -6.106  0.00  0.00     0.005 C 
ENDBRANCH  10  11
ENDBRANCH   9  10
ENDBRANCH   8   9
ENDBRANCH   7   8
ENDBRANCH   6   7
ENDBRANCH   5   6
ENDBRANCH   4   5
ENDBRANCH   3   4
ENDBRANCH   2   3
ENDBRANCH   1   2
BRANCH   1  13
HETATM   13  C   UNK N   1      31.227  21.966  -2.891  0.00  0.00     0.000 C 
BRANCH  13  14
HETATM   14  C   UNK N   1      30.695  23.264  -3.259  0.00  0.00     0.000 C 
BRANCH  14  15
HETATM   15  C   UNK N   1      29.345  23.219  -2.754  0.00  0.00     0.000 C 
BRANCH  15  16
HETATM   16  C   UNK N   1      28.651  24.202  -3.570  0.00  0.00     0.000 C 
BRANCH  16  17
HETATM   17  C   UNK N   1      27.291  24.023  -3.099  0.00  0.00     0.000 C 
BRANCH  17  18
HETATM   18  C   UNK N   1      26.402  24.606  -4.102  0.00  0.00     0.000 C 
BRANCH  18  19
HETATM   19  C   UNK N   1      26.844  23.860  -5.284  0.00  0.00     0.000 C 
BRANCH  19  20
HETATM   20  C   UNK N   1      25.843  23.952  -6.354  0.00  0.00     0.002 C 
BRANCH  20  21
HETATM   21  C   UNK N   1      25.852  22.585  -6.901  0.00  0.00     0.026 C 
BRANCH  21  22
HETATM   22  C   UNK N   1      25.240  22.534  -8.270  0.00  0.00     0.164 C 
BRANCH  22  23
HETATM   23  O   UNK N   1      23.968  22.175  -8.147  0.00  0.00    -0.401 OA
HETATM   24  H   UNK N   1      23.480  22.390  -7.337  0.00  0.00     0.209 HD
ENDBRANCH  22  23
ENDBRANCH  21  22
ENDBRANCH  20  21
ENDBRANCH  19  20
ENDBRANCH  18  19
ENDBRANCH  17  18
ENDBRANCH  16  17
ENDBRANCH  15  16
ENDBRANCH  14  15
ENDBRANCH  13  14
ENDBRANCH   1  13
TORSDOF 21
ENDMDL
MODEL 9
REMARK VINA RESULT:      -4.3      1.917      3.364
REMARK  21 active torsions:
REMARK  status: ('A' for Active; 'I' for Inactive)
REMARK    1  A    between atoms: O_1  and  C_22 
REMARK    2  A    between atoms: C_2  and  C_3 
REMARK    3  A    between atoms: C_2  and  C_4 
REMARK    4  A    between atoms: C_3  and  C_5 
REMARK    5  A    between atoms: C_4  and  C_6 
REMARK    6  A    between atoms: C_5  and  C_7 
REMARK    7  A    between atoms: C_6  and  C_8 
REMARK    8  A    between atoms: C_7  and  C_9 
REMARK    9  A    between atoms: C_8  and  C_10 
REMARK   10  A    between atoms: C_9  and  C_11 
REMARK   11  A    between atoms: C_10  and  C_12 
REMARK   12  A    between atoms: C_11  and  C_13 
REMARK   13  A    between atoms: C_12  and  C_14 
REMARK   14  A    between atoms: C_13  and  C_15 
REMARK   15  A    between atoms: C_14  and  C_16 
REMARK   16  A    between atoms: C_15  and  C_17 
REMARK   17  A    between atoms: C_16  and  C_18 
REMARK   18  A    between atoms: C_17  and  C_19 
REMARK   19  A    between atoms: C_18  and  C_20 
REMARK   20  A    between atoms: C_19  and  C_21 
REMARK   21  A    between atoms: C_20  and  C_22 
ROOT
HETATM    1  C   UNK N   1      26.322  25.918  -7.909  0.00  0.00     0.000 C 
ENDROOT
BRANCH   1   2
HETATM    2  C   UNK N   1      25.664  24.670  -8.213  0.00  0.00     0.000 C 
BRANCH   2   3
HETATM    3  C   UNK N   1      26.630  23.790  -7.598  0.00  0.00     0.000 C 
BRANCH   3   4
HETATM    4  C   UNK N   1      25.967  23.219  -6.451  0.00  0.00     0.000 C 
BRANCH   4   5
HETATM    5  C   UNK N   1      26.960  23.503  -5.426  0.00  0.00     0.000 C 
BRANCH   5   6
HETATM    6  C   UNK N   1      26.202  24.196  -4.408  0.00  0.00     0.000 C 
BRANCH   6   7
HETATM    7  C   UNK N   1      27.209  24.853  -3.572  0.00  0.00     0.000 C 
BRANCH   7   8
HETATM    8  C   UNK N   1      28.420  24.180  -4.038  0.00  0.00     0.000 C 
BRANCH   8   9
HETATM    9  C   UNK N   1      29.607  24.960  -3.650  0.00  0.00     0.000 C 
BRANCH   9  10
HETATM   10  C   UNK N   1      29.220  26.314  -4.125  0.00  0.00    -0.000 C 
BRANCH  10  11
HETATM   11  C   UNK N   1      30.428  27.101  -4.496  0.00  0.00    -0.005 C 
HETATM   12  C   UNK N   1      31.220  27.263  -3.225  0.00  0.00     0.005 C 
ENDBRANCH  10  11
ENDBRANCH   9  10
ENDBRANCH   8   9
ENDBRANCH   7   8
ENDBRANCH   6   7
ENDBRANCH   5   6
ENDBRANCH   4   5
ENDBRANCH   3   4
ENDBRANCH   2   3
ENDBRANCH   1   2
BRANCH   1  13
HETATM   13  C   UNK N   1      25.416  26.631  -7.047  0.00  0.00     0.000 C 
BRANCH  13  14
HETATM   14  C   UNK N   1      26.380  27.337  -6.225  0.00  0.00     0.000 C 
BRANCH  14  15
HETATM   15  C   UNK N   1      27.402  27.712  -7.170  0.00  0.00     0.000 C 
BRANCH  15  16
HETATM   16  C   UNK N   1      27.960  28.926  -6.595  0.00  0.00     0.000 C 
BRANCH  16  17
HETATM   17  C   UNK N   1      27.127  29.066  -5.416  0.00  0.00     0.000 C 
BRANCH  17  18
HETATM   18  C   UNK N   1      27.564  30.272  -4.714  0.00  0.00     0.000 C 
BRANCH  18  19
HETATM   19  C   UNK N   1      26.818  30.111  -3.462  0.00  0.00     0.000 C 
BRANCH  19  20
HETATM   20  C   UNK N   1      27.363  28.997  -2.678  0.00  0.00     0.002 C 
BRANCH  20  21
HETATM   21  C   UNK N   1      28.585  29.591  -2.110  0.00  0.00     0.026 C 
BRANCH  21  22
HETATM   22  C   UNK N   1      28.291  30.371  -0.862  0.00  0.00     0.164 C 
BRANCH  22  23
HETATM   23  O   UNK N   1      27.872  29.525   0.070  0.00  0.00    -0.401 OA
HETATM   24  H   UNK N   1      28.515  29.020   0.591  0.00  0.00     0.209 HD
ENDBRANCH  22  23
ENDBRANCH  21  22
ENDBRANCH  20  21
ENDBRANCH  19  20
ENDBRANCH  18  19
ENDBRANCH  17  18
ENDBRANCH  16  17
ENDBRANCH  15  16
ENDBRANCH  14  15
ENDBRANCH  13  14
ENDBRANCH   1  13
TORSDOF 21
ENDMDL
