MODEL 1
REMARK VINA RESULT:      -5.6      0.000      0.000
REMARK  3 active torsions:
REMARK  status: ('A' for Active; 'I' for Inactive)
REMARK    1  A    between atoms: S_1  and  N_5 
REMARK    2  A    between atoms: S_1  and  C_7 
REMARK       I    between atoms: N_5  and  C_13 
REMARK    3  A    between atoms: N_6  and  C_10 
ROOT
HETATM    1  C   UNK N   1      21.127  14.438   9.102  0.00  0.00     0.080 A 
HETATM    2  C   UNK N   1      22.452  14.009   8.905  0.00  0.00     0.027 A 
HETATM    3  C   UNK N   1      20.318  13.769  10.028  0.00  0.00     0.027 A 
HETATM    4  C   UNK N   1      22.169  12.290  10.577  0.00  0.00     0.025 A 
HETATM    5  C   UNK N   1      22.971  12.945   9.643  0.00  0.00     0.030 A 
HETATM    6  C   UNK N   1      20.841  12.696  10.767  0.00  0.00     0.030 A 
ENDROOT
BRANCH   1   7
HETATM    7  S   UNK N   1      20.493  15.806   8.111  0.00  0.00     0.265 S 
HETATM    8  O   UNK N   1      19.000  16.089   8.329  0.00  0.00    -0.200 OA
HETATM    9  O   UNK N   1      20.096  14.669   7.158  0.00  0.00    -0.200 OA
BRANCH   7  10
HETATM   10  N   UNK N   1      20.958  16.618   6.621  0.00  0.00    -0.251 N 
HETATM   11  C   UNK N   1      21.057  17.956   6.479  0.00  0.00     0.227 C 
HETATM   12  O   UNK N   1      20.866  18.702   7.429  0.00  0.00    -0.273 OA
HETATM   13  C   UNK N   1      21.397  18.524   5.145  0.00  0.00     0.118 C 
HETATM   14  H   UNK N   1      21.160  16.057   5.837  0.00  0.00     0.181 HD
ENDBRANCH   7  10
ENDBRANCH   1   7
BRANCH   4  15
HETATM   15  N   UNK N   1      22.697  11.220  11.324  0.00  0.00    -0.399 N 
HETATM   16  H   UNK N   1      23.386  10.633  10.938  0.00  0.00     0.156 HD
HETATM   17  H   UNK N   1      22.376  11.058  12.241  0.00  0.00     0.156 HD
ENDBRANCH   4  15
TORSDOF 3
ENDMDL
MODEL 2
REMARK VINA RESULT:      -5.6     12.083     13.464
REMARK  3 active torsions:
REMARK  status: ('A' for Active; 'I' for Inactive)
REMARK    1  A    between atoms: S_1  and  N_5 
REMARK    2  A    between atoms: S_1  and  C_7 
REMARK       I    between atoms: N_5  and  C_13 
REMARK    3  A    between atoms: N_6  and  C_10 
ROOT
HETATM    1  C   UNK N   1      32.708  17.262   6.421  0.00  0.00     0.080 A 
HETATM    2  C   UNK N   1      33.060  17.494   5.079  0.00  0.00     0.027 A 
HETATM    3  C   UNK N   1      31.364  17.056   6.754  0.00  0.00     0.027 A 
HETATM    4  C   UNK N   1      30.751  17.271   4.411  0.00  0.00     0.025 A 
HETATM    5  C   UNK N   1      32.087  17.492   4.079  0.00  0.00     0.030 A 
HETATM    6  C   UNK N   1      30.386  17.058   5.748  0.00  0.00     0.030 A 
ENDROOT
BRANCH   1   7
HETATM    7  S   UNK N   1      33.999  17.292   7.682  0.00  0.00     0.265 S 
HETATM    8  O   UNK N   1      34.849  18.570   7.668  0.00  0.00    -0.200 OA
HETATM    9  O   UNK N   1      34.859  16.754   6.530  0.00  0.00    -0.200 OA
BRANCH   7  10
HETATM   10  N   UNK N   1      34.880  16.099   8.627  0.00  0.00    -0.251 N 
HETATM   11  C   UNK N   1      35.307  16.290   9.892  0.00  0.00     0.227 C 
HETATM   12  O   UNK N   1      35.053  17.325  10.489  0.00  0.00    -0.273 OA
HETATM   13  C   UNK N   1      36.103  15.222  10.562  0.00  0.00     0.118 C 
HETATM   14  H   UNK N   1      35.075  15.231   8.203  0.00  0.00     0.181 HD
ENDBRANCH   7  10
ENDBRANCH   1   7
BRANCH   4  15
HETATM   15  N   UNK N   1      29.771  17.264   3.399  0.00  0.00    -0.399 N 
HETATM   16  H   UNK N   1      29.945  16.819   2.539  0.00  0.00     0.156 HD
HETATM   17  H   UNK N   1      28.906  17.708   3.553  0.00  0.00     0.156 HD
ENDBRANCH   4  15
TORSDOF 3
ENDMDL
MODEL 3
REMARK VINA RESULT:      -5.5     23.056     24.434
REMARK  3 active torsions:
REMARK  status: ('A' for Active; 'I' for Inactive)
REMARK    1  A    between atoms: S_1  and  N_5 
REMARK    2  A    between atoms: S_1  and  C_7 
REMARK       I    between atoms: N_5  and  C_13 
REMARK    3  A    between atoms: N_6  and  C_10 
ROOT
HETATM    1  C   UNK N   1      42.941  22.070   2.802  0.00  0.00     0.080 A 
HETATM    2  C   UNK N   1      42.061  22.865   2.045  0.00  0.00     0.027 A 
HETATM    3  C   UNK N   1      42.505  20.831   3.287  0.00  0.00     0.027 A 
HETATM    4  C   UNK N   1      40.346  21.175   2.221  0.00  0.00     0.025 A 
HETATM    5  C   UNK N   1      40.773  22.416   1.751  0.00  0.00     0.030 A 
HETATM    6  C   UNK N   1      41.207  20.384   2.994  0.00  0.00     0.030 A 
ENDROOT
BRANCH   1   7
HETATM    7  S   UNK N   1      44.591  22.700   3.173  0.00  0.00     0.265 S 
HETATM    8  O   UNK N   1      45.157  22.204   4.510  0.00  0.00    -0.200 OA
HETATM    9  O   UNK N   1      43.794  23.759   3.949  0.00  0.00    -0.200 OA
BRANCH   7  10
HETATM   10  N   UNK N   1      45.563  24.083   2.684  0.00  0.00    -0.251 N 
HETATM   11  C   UNK N   1      45.685  24.520   1.414  0.00  0.00     0.227 C 
HETATM   12  O   UNK N   1      45.064  23.987   0.506  0.00  0.00    -0.273 OA
HETATM   13  C   UNK N   1      46.592  25.665   1.122  0.00  0.00     0.118 C 
HETATM   14  H   UNK N   1      46.052  24.570   3.387  0.00  0.00     0.181 HD
ENDBRANCH   7  10
ENDBRANCH   1   7
BRANCH   4  15
HETATM   15  N   UNK N   1      39.047  20.723   1.919  0.00  0.00    -0.399 N 
HETATM   16  H   UNK N   1      38.904  19.819   1.556  0.00  0.00     0.156 HD
HETATM   17  H   UNK N   1      38.275  21.315   2.072  0.00  0.00     0.156 HD
ENDBRANCH   4  15
TORSDOF 3
ENDMDL
MODEL 4
REMARK VINA RESULT:      -5.4      4.008      4.880
REMARK  3 active torsions:
REMARK  status: ('A' for Active; 'I' for Inactive)
REMARK    1  A    between atoms: S_1  and  N_5 
REMARK    2  A    between atoms: S_1  and  C_7 
REMARK       I    between atoms: N_5  and  C_13 
REMARK    3  A    between atoms: N_6  and  C_10 
ROOT
HETATM    1  C   UNK N   1      18.900  17.324   8.741  0.00  0.00     0.080 A 
HETATM    2  C   UNK N   1      19.568  18.363   9.415  0.00  0.00     0.027 A 
HETATM    3  C   UNK N   1      17.585  17.006   9.100  0.00  0.00     0.027 A 
HETATM    4  C   UNK N   1      17.606  18.785  10.757  0.00  0.00     0.025 A 
HETATM    5  C   UNK N   1      18.921  19.093  10.413  0.00  0.00     0.030 A 
HETATM    6  C   UNK N   1      16.938  17.739  10.107  0.00  0.00     0.030 A 
ENDROOT
BRANCH   1   7
HETATM    7  S   UNK N   1      19.782  16.396   7.470  0.00  0.00     0.265 S 
HETATM    8  O   UNK N   1      19.885  14.892   7.760  0.00  0.00    -0.200 OA
HETATM    9  O   UNK N   1      20.972  16.619   8.415  0.00  0.00    -0.200 OA
BRANCH   7  10
HETATM   10  N   UNK N   1      20.967  16.760   6.222  0.00  0.00    -0.251 N 
HETATM   11  C   UNK N   1      21.486  17.984   5.996  0.00  0.00     0.227 C 
HETATM   12  O   UNK N   1      21.184  18.933   6.704  0.00  0.00    -0.273 OA
HETATM   13  C   UNK N   1      22.435  18.176   4.863  0.00  0.00     0.118 C 
HETATM   14  H   UNK N   1      21.272  16.019   5.649  0.00  0.00     0.181 HD
ENDBRANCH   7  10
ENDBRANCH   1   7
BRANCH   4  15
HETATM   15  N   UNK N   1      16.955  19.527  11.762  0.00  0.00    -0.399 N 
HETATM   16  H   UNK N   1      16.853  20.502  11.676  0.00  0.00     0.156 HD
HETATM   17  H   UNK N   1      16.599  19.066  12.556  0.00  0.00     0.156 HD
ENDBRANCH   4  15
TORSDOF 3
ENDMDL
MODEL 5
REMARK VINA RESULT:      -5.4     11.046     12.297
REMARK  3 active torsions:
REMARK  status: ('A' for Active; 'I' for Inactive)
REMARK    1  A    between atoms: S_1  and  N_5 
REMARK    2  A    between atoms: S_1  and  C_7 
REMARK       I    between atoms: N_5  and  C_13 
REMARK    3  A    between atoms: N_6  and  C_10 
ROOT
HETATM    1  C   UNK N   1      31.433  17.483   8.140  0.00  0.00     0.080 A 
HETATM    2  C   UNK N   1      30.867  17.019   6.939  0.00  0.00     0.027 A 
HETATM    3  C   UNK N   1      30.673  18.298   8.988  0.00  0.00     0.027 A 
HETATM    4  C   UNK N   1      28.793  18.140   7.455  0.00  0.00     0.025 A 
HETATM    5  C   UNK N   1      29.552  17.341   6.602  0.00  0.00     0.030 A 
HETATM    6  C   UNK N   1      29.352  18.625   8.645  0.00  0.00     0.030 A 
ENDROOT
BRANCH   1   7
HETATM    7  S   UNK N   1      33.143  17.056   8.526  0.00  0.00     0.265 S 
HETATM    8  O   UNK N   1      34.063  17.014   7.298  0.00  0.00    -0.200 OA
HETATM    9  O   UNK N   1      32.662  15.643   8.163  0.00  0.00    -0.200 OA
BRANCH   7  10
HETATM   10  N   UNK N   1      33.981  16.217   9.825  0.00  0.00    -0.251 N 
HETATM   11  C   UNK N   1      35.103  16.664  10.425  0.00  0.00     0.227 C 
HETATM   12  O   UNK N   1      35.589  17.743  10.118  0.00  0.00    -0.273 OA
HETATM   13  C   UNK N   1      35.755  15.826  11.470  0.00  0.00     0.118 C 
HETATM   14  H   UNK N   1      33.605  15.360  10.134  0.00  0.00     0.181 HD
ENDBRANCH   7  10
ENDBRANCH   1   7
BRANCH   4  15
HETATM   15  N   UNK N   1      27.464  18.459   7.114  0.00  0.00    -0.399 N 
HETATM   16  H   UNK N   1      27.189  18.512   6.170  0.00  0.00     0.156 HD
HETATM   17  H   UNK N   1      26.805  18.631   7.825  0.00  0.00     0.156 HD
ENDBRANCH   4  15
TORSDOF 3
ENDMDL
MODEL 6
REMARK VINA RESULT:      -5.2     14.866     16.326
REMARK  3 active torsions:
REMARK  status: ('A' for Active; 'I' for Inactive)
REMARK    1  A    between atoms: S_1  and  N_5 
REMARK    2  A    between atoms: S_1  and  C_7 
REMARK       I    between atoms: N_5  and  C_13 
REMARK    3  A    between atoms: N_6  and  C_10 
ROOT
HETATM    1  C   UNK N   1      35.291  12.065  16.234  0.00  0.00     0.080 A 
HETATM    2  C   UNK N   1      35.190  13.390  16.694  0.00  0.00     0.027 A 
HETATM    3  C   UNK N   1      35.386  11.020  17.160  0.00  0.00     0.027 A 
HETATM    4  C   UNK N   1      35.234  12.622  18.983  0.00  0.00     0.025 A 
HETATM    5  C   UNK N   1      35.155  13.665  18.061  0.00  0.00     0.030 A 
HETATM    6  C   UNK N   1      35.355  11.300  18.535  0.00  0.00     0.030 A 
ENDROOT
BRANCH   1   7
HETATM    7  S   UNK N   1      35.351  11.757  14.456  0.00  0.00     0.265 S 
HETATM    8  O   UNK N   1      36.492  12.492  13.739  0.00  0.00    -0.200 OA
HETATM    9  O   UNK N   1      34.536  13.058  14.406  0.00  0.00    -0.200 OA
BRANCH   7  10
HETATM   10  N   UNK N   1      34.216  11.237  13.218  0.00  0.00    -0.251 N 
HETATM   11  C   UNK N   1      34.404  10.178  12.405  0.00  0.00     0.227 C 
HETATM   12  O   UNK N   1      35.391   9.467  12.522  0.00  0.00    -0.273 OA
HETATM   13  C   UNK N   1      33.395   9.880  11.349  0.00  0.00     0.118 C 
HETATM   14  H   UNK N   1      33.385  11.756  13.111  0.00  0.00     0.181 HD
ENDBRANCH   7  10
ENDBRANCH   1   7
BRANCH   4  15
HETATM   15  N   UNK N   1      35.193  12.903  20.362  0.00  0.00    -0.399 N 
HETATM   16  H   UNK N   1      35.101  12.175  21.018  0.00  0.00     0.156 HD
HETATM   17  H   UNK N   1      35.257  13.836  20.673  0.00  0.00     0.156 HD
ENDBRANCH   4  15
TORSDOF 3
ENDMDL
MODEL 7
REMARK VINA RESULT:      -5.2     15.395     16.507
REMARK  3 active torsions:
REMARK  status: ('A' for Active; 'I' for Inactive)
REMARK    1  A    between atoms: S_1  and  N_5 
REMARK    2  A    between atoms: S_1  and  C_7 
REMARK       I    between atoms: N_5  and  C_13 
REMARK    3  A    between atoms: N_6  and  C_10 
ROOT
HETATM    1  C   UNK N   1      35.588  12.500  16.401  0.00  0.00     0.080 A 
HETATM    2  C   UNK N   1      35.318  13.607  17.225  0.00  0.00     0.027 A 
HETATM    3  C   UNK N   1      35.712  11.229  16.975  0.00  0.00     0.027 A 
HETATM    4  C   UNK N   1      35.255  12.175  19.168  0.00  0.00     0.025 A 
HETATM    5  C   UNK N   1      35.146  13.444  18.600  0.00  0.00     0.030 A 
HETATM    6  C   UNK N   1      35.543  11.067  18.359  0.00  0.00     0.030 A 
ENDROOT
BRANCH   1   7
HETATM    7  S   UNK N   1      35.820  12.762  14.631  0.00  0.00     0.265 S 
HETATM    8  O   UNK N   1      36.208  11.491  13.862  0.00  0.00    -0.200 OA
HETATM    9  O   UNK N   1      37.291  12.909  15.049  0.00  0.00    -0.200 OA
BRANCH   7  10
HETATM   10  N   UNK N   1      36.193  14.128  13.587  0.00  0.00    -0.251 N 
HETATM   11  C   UNK N   1      35.486  14.465  12.489  0.00  0.00     0.227 C 
HETATM   12  O   UNK N   1      34.481  13.843  12.176  0.00  0.00    -0.273 OA
HETATM   13  C   UNK N   1      35.944  15.608  11.650  0.00  0.00     0.118 C 
HETATM   14  H   UNK N   1      36.972  14.684  13.820  0.00  0.00     0.181 HD
ENDBRANCH   7  10
ENDBRANCH   1   7
BRANCH   4  15
HETATM   15  N   UNK N   1      35.076  12.013  20.556  0.00  0.00    -0.399 N 
HETATM   16  H   UNK N   1      35.024  11.113  20.951  0.00  0.00     0.156 HD
HETATM   17  H   UNK N   1      35.002  12.806  21.135  0.00  0.00     0.156 HD
ENDBRANCH   4  15
TORSDOF 3
ENDMDL
MODEL 8
REMARK VINA RESULT:      -5.2     15.608     16.396
REMARK  3 active torsions:
REMARK  status: ('A' for Active; 'I' for Inactive)
REMARK    1  A    between atoms: S_1  and  N_5 
REMARK    2  A    between atoms: S_1  and  C_7 
REMARK       I    between atoms: N_5  and  C_13 
REMARK    3  A    between atoms: N_6  and  C_10 
ROOT
HETATM    1  C   UNK N   1      34.907  12.090  16.273  0.00  0.00     0.080 A 
HETATM    2  C   UNK N   1      35.141  10.985  17.110  0.00  0.00     0.027 A 
HETATM    3  C   UNK N   1      34.880  13.377  16.823  0.00  0.00     0.027 A 
HETATM    4  C   UNK N   1      35.364  12.448  19.017  0.00  0.00     0.025 A 
HETATM    5  C   UNK N   1      35.375  11.165  18.474  0.00  0.00     0.030 A 
HETATM    6  C   UNK N   1      35.111  13.555  18.196  0.00  0.00     0.030 A 
ENDROOT
BRANCH   1   7
HETATM    7  S   UNK N   1      34.591  11.808  14.518  0.00  0.00     0.265 S 
HETATM    8  O   UNK N   1      33.598  10.671  14.242  0.00  0.00    -0.200 OA
HETATM    9  O   UNK N   1      35.691  10.751  14.695  0.00  0.00    -0.200 OA
BRANCH   7  10
HETATM   10  N   UNK N   1      35.432  12.135  13.008  0.00  0.00    -0.251 N 
HETATM   11  C   UNK N   1      36.290  13.157  12.817  0.00  0.00     0.227 C 
HETATM   12  O   UNK N   1      36.577  13.913  13.733  0.00  0.00    -0.273 OA
HETATM   13  C   UNK N   1      36.888  13.364  11.468  0.00  0.00     0.118 C 
HETATM   14  H   UNK N   1      35.263  11.529  12.249  0.00  0.00     0.181 HD
ENDBRANCH   7  10
ENDBRANCH   1   7
BRANCH   4  15
HETATM   15  N   UNK N   1      35.605  12.626  20.394  0.00  0.00    -0.399 N 
HETATM   16  H   UNK N   1      36.244  12.047  20.868  0.00  0.00     0.156 HD
HETATM   17  H   UNK N   1      35.131  13.336  20.885  0.00  0.00     0.156 HD
ENDBRANCH   4  15
TORSDOF 3
ENDMDL
MODEL 9
REMARK VINA RESULT:      -5.1     12.939     14.353
REMARK  3 active torsions:
REMARK  status: ('A' for Active; 'I' for Inactive)
REMARK    1  A    between atoms: S_1  and  N_5 
REMARK    2  A    between atoms: S_1  and  C_7 
REMARK       I    between atoms: N_5  and  C_13 
REMARK    3  A    between atoms: N_6  and  C_10 
ROOT
HETATM    1  C   UNK N   1      34.195  15.471   9.485  0.00  0.00     0.080 A 
HETATM    2  C   UNK N   1      33.246  16.320   8.888  0.00  0.00     0.027 A 
HETATM    3  C   UNK N   1      34.268  14.131   9.084  0.00  0.00     0.027 A 
HETATM    4  C   UNK N   1      32.486  14.515   7.476  0.00  0.00     0.025 A 
HETATM    5  C   UNK N   1      32.401  15.845   7.884  0.00  0.00     0.030 A 
HETATM    6  C   UNK N   1      33.414  13.655   8.078  0.00  0.00     0.030 A 
ENDROOT
BRANCH   1   7
HETATM    7  S   UNK N   1      35.254  16.124  10.792  0.00  0.00     0.265 S 
HETATM    8  O   UNK N   1      35.869  17.492  10.466  0.00  0.00    -0.200 OA
HETATM    9  O   UNK N   1      36.359  15.471   9.947  0.00  0.00    -0.200 OA
BRANCH   7  10
HETATM   10  N   UNK N   1      36.171  15.456  12.136  0.00  0.00    -0.251 N 
HETATM   11  C   UNK N   1      35.756  14.432  12.910  0.00  0.00     0.227 C 
HETATM   12  O   UNK N   1      34.701  13.860  12.679  0.00  0.00    -0.273 OA
HETATM   13  C   UNK N   1      36.597  14.001  14.062  0.00  0.00     0.118 C 
HETATM   14  H   UNK N   1      37.048  15.858  12.338  0.00  0.00     0.181 HD
ENDBRANCH   7  10
ENDBRANCH   1   7
BRANCH   4  15
HETATM   15  N   UNK N   1      31.634  14.041   6.459  0.00  0.00    -0.399 N 
HETATM   16  H   UNK N   1      30.661  14.003   6.599  0.00  0.00     0.156 HD
HETATM   17  H   UNK N   1      32.016  13.744   5.600  0.00  0.00     0.156 HD
ENDBRANCH   4  15
TORSDOF 3
ENDMDL
