REMARK  3 active torsions:
REMARK  status: ('A' for Active; 'I' for Inactive)
REMARK    1  A    between atoms: S_1  and  N_5 
REMARK    2  A    between atoms: S_1  and  C_7 
REMARK       I    between atoms: N_5  and  C_13 
REMARK    3  A    between atoms: N_6  and  C_10 
ROOT
HETATM    1  C   UNK N   1       2.085  -0.442   0.005  0.00  0.00     0.080 A 
HETATM    2  C   UNK N   1       1.056  -1.367  -0.246  0.00  0.00     0.027 A 
HETATM    3  C   UNK N   1       3.405  -0.895   0.117  0.00  0.00     0.027 A 
HETATM    4  C   UNK N   1       2.661  -3.169  -0.316  0.00  0.00     0.025 A 
HETATM    5  C   UNK N   1       1.344  -2.722  -0.412  0.00  0.00     0.030 A 
HETATM    6  C   UNK N   1       3.692  -2.259  -0.046  0.00  0.00     0.030 A 
ENDROOT
BRANCH   1   7
HETATM    7  S   UNK N   1       1.663   1.298   0.231  0.00  0.00     0.265 S 
HETATM    8  O   UNK N   1       0.192   1.536   0.599  0.00  0.00    -0.200 OA
HETATM    9  O   UNK N   1       1.234   1.178  -1.239  0.00  0.00    -0.200 OA
BRANCH   7  10
HETATM   10  N   UNK N   1       2.317   2.843  -0.298  0.00  0.00    -0.251 N 
HETATM   11  C   UNK N   1       3.497   3.353   0.110  0.00  0.00     0.227 C 
HETATM   12  O   UNK N   1       4.225   2.722   0.862  0.00  0.00    -0.273 OA
HETATM   13  C   UNK N   1       3.909   4.705  -0.362  0.00  0.00     0.118 C 
HETATM   14  H   UNK N   1       1.784   3.372  -0.936  0.00  0.00     0.181 HD
ENDBRANCH   7  10
ENDBRANCH   1   7
BRANCH   4  15
HETATM   15  N   UNK N   1       2.949  -4.537  -0.489  0.00  0.00    -0.399 N 
HETATM   16  H   UNK N   1       2.222  -5.189  -0.610  0.00  0.00     0.156 HD
HETATM   17  H   UNK N   1       3.885  -4.843  -0.489  0.00  0.00     0.156 HD
ENDBRANCH   4  15
TORSDOF 3
