MODEL 1
REMARK VINA RESULT:      -7.9      0.000      0.000
REMARK  3 active torsions:
REMARK  status: ('A' for Active; 'I' for Inactive)
REMARK    1  A    between atoms: O_4  and  C_24 
REMARK    2  A    between atoms: C_10  and  C_20 
REMARK    3  A    between atoms: C_20  and  C_24 
ROOT
HETATM    1  O   UNK N   1      25.892  24.007  -4.033  0.00  0.00    -0.381 OA
HETATM    2  O   UNK N   1      31.011  24.429  -2.858  0.00  0.00    -0.297 OA
HETATM    3  O   UNK N   1      34.755  19.408  -4.046  0.00  0.00    -0.289 OA
HETATM    4  C   UNK N   1      28.116  24.628  -4.724  0.00  0.00     0.005 C 
HETATM    5  C   UNK N   1      28.207  23.285  -5.467  0.00  0.00     0.002 C 
HETATM    6  C   UNK N   1      29.659  22.791  -5.607  0.00  0.00     0.003 C 
HETATM    7  C   UNK N   1      30.234  22.571  -4.170  0.00  0.00     0.076 C 
HETATM    8  C   UNK N   1      26.596  24.899  -4.853  0.00  0.00     0.128 C 
HETATM    9  C   UNK N   1      27.428  23.545  -6.746  0.00  0.00     0.009 C 
HETATM   10  C   UNK N   1      28.677  24.474  -3.298  0.00  0.00     0.091 C 
HETATM   11  C   UNK N   1      26.321  24.523  -6.321  0.00  0.00     0.047 C 
HETATM   12  C   UNK N   1      31.675  21.992  -4.263  0.00  0.00     0.008 C 
HETATM   13  C   UNK N   1      29.720  21.533  -6.495  0.00  0.00     0.010 C 
HETATM   14  C   UNK N   1      30.062  23.863  -3.379  0.00  0.00     0.133 C 
HETATM   15  C   UNK N   1      28.927  25.717  -5.459  0.00  0.00     0.019 C 
HETATM   16  C   UNK N   1      30.426  20.326  -5.882  0.00  0.00     0.036 C 
HETATM   17  C   UNK N   1      31.644  20.704  -5.092  0.00  0.00    -0.063 C 
HETATM   18  C   UNK N   1      32.603  22.976  -4.983  0.00  0.00     0.025 C 
HETATM   19  C   UNK N   1      32.318  21.720  -2.916  0.00  0.00    -0.008 C 
HETATM   20  C   UNK N   1      32.670  19.841  -5.030  0.00  0.00     0.058 C 
HETATM   21  C   UNK N   1      33.387  20.902  -2.845  0.00  0.00     0.052 C 
HETATM   22  C   UNK N   1      33.719  20.054  -4.016  0.00  0.00     0.171 C 
HETATM   23  H   UNK N   1      25.431  23.391  -3.442  0.00  0.00     0.211 HD
ENDROOT
BRANCH   8  24
HETATM   24  C   UNK N   1      26.107  26.302  -4.539  0.00  0.00     0.184 C 
HETATM   25  O   UNK N   1      25.621  27.006  -5.409  0.00  0.00    -0.292 OA
BRANCH  24  26
HETATM   26  C   UNK N   1      26.250  26.861  -3.153  0.00  0.00     0.245 C 
BRANCH  26  27
HETATM   27  O   UNK N   1      25.439  27.986  -2.989  0.00  0.00    -0.393 OA
HETATM   28  H   UNK N   1      25.480  28.589  -2.230  0.00  0.00     0.209 HD
ENDBRANCH  26  27
ENDBRANCH  24  26
ENDBRANCH   8  24
TORSDOF 3
ENDMDL
MODEL 2
REMARK VINA RESULT:      -7.8      4.223      6.221
REMARK  3 active torsions:
REMARK  status: ('A' for Active; 'I' for Inactive)
REMARK    1  A    between atoms: O_4  and  C_24 
REMARK    2  A    between atoms: C_10  and  C_20 
REMARK    3  A    between atoms: C_20  and  C_24 
ROOT
HETATM    1  O   UNK N   1      25.938  29.522  -3.439  0.00  0.00    -0.381 OA
HETATM    2  O   UNK N   1      26.993  24.372  -3.800  0.00  0.00    -0.297 OA
HETATM    3  O   UNK N   1      25.268  21.354  -9.143  0.00  0.00    -0.289 OA
HETATM    4  C   UNK N   1      27.473  27.777  -4.078  0.00  0.00     0.005 C 
HETATM    5  C   UNK N   1      27.016  27.975  -5.532  0.00  0.00     0.002 C 
HETATM    6  C   UNK N   1      27.179  26.696  -6.375  0.00  0.00     0.003 C 
HETATM    7  C   UNK N   1      26.275  25.585  -5.746  0.00  0.00     0.076 C 
HETATM    8  C   UNK N   1      27.303  29.224  -3.549  0.00  0.00     0.128 C 
HETATM    9  C   UNK N   1      27.787  29.208  -5.973  0.00  0.00     0.009 C 
HETATM   10  C   UNK N   1      26.620  26.685  -3.406  0.00  0.00     0.091 C 
HETATM   11  C   UNK N   1      27.889  30.063  -4.700  0.00  0.00     0.047 C 
HETATM   12  C   UNK N   1      26.345  24.297  -6.615  0.00  0.00     0.008 C 
HETATM   13  C   UNK N   1      26.866  26.981  -7.857  0.00  0.00     0.010 C 
HETATM   14  C   UNK N   1      26.643  25.442  -4.273  0.00  0.00     0.133 C 
HETATM   15  C   UNK N   1      28.956  27.350  -4.022  0.00  0.00     0.019 C 
HETATM   16  C   UNK N   1      25.822  26.069  -8.497  0.00  0.00     0.036 C 
HETATM   17  C   UNK N   1      25.945  24.640  -8.053  0.00  0.00    -0.063 C 
HETATM   18  C   UNK N   1      27.777  23.754  -6.656  0.00  0.00     0.025 C 
HETATM   19  C   UNK N   1      25.482  23.160  -6.101  0.00  0.00    -0.008 C 
HETATM   20  C   UNK N   1      25.592  23.665  -8.904  0.00  0.00     0.058 C 
HETATM   21  C   UNK N   1      25.167  22.141  -6.926  0.00  0.00     0.052 C 
HETATM   22  C   UNK N   1      25.405  22.298  -8.381  0.00  0.00     0.171 C 
HETATM   23  H   UNK N   1      24.987  29.695  -3.355  0.00  0.00     0.211 HD
ENDROOT
BRANCH   8  24
HETATM   24  C   UNK N   1      27.959  29.565  -2.223  0.00  0.00     0.184 C 
HETATM   25  O   UNK N   1      27.487  29.166  -1.169  0.00  0.00    -0.292 OA
BRANCH  24  26
HETATM   26  C   UNK N   1      29.182  30.433  -2.183  0.00  0.00     0.245 C 
BRANCH  26  27
HETATM   27  O   UNK N   1      30.276  29.722  -1.686  0.00  0.00    -0.393 OA
HETATM   28  H   UNK N   1      30.636  28.913  -2.083  0.00  0.00     0.209 HD
ENDBRANCH  26  27
ENDBRANCH  24  26
ENDBRANCH   8  24
TORSDOF 3
ENDMDL
MODEL 3
REMARK VINA RESULT:      -7.6     14.074     14.896
REMARK  3 active torsions:
REMARK  status: ('A' for Active; 'I' for Inactive)
REMARK    1  A    between atoms: O_4  and  C_24 
REMARK    2  A    between atoms: C_10  and  C_20 
REMARK    3  A    between atoms: C_20  and  C_24 
ROOT
HETATM    1  O   UNK N   1      18.799  18.396   2.530  0.00  0.00    -0.381 OA
HETATM    2  O   UNK N   1      21.841  17.821   6.794  0.00  0.00    -0.297 OA
HETATM    3  O   UNK N   1      21.647  12.231   9.851  0.00  0.00    -0.289 OA
HETATM    4  C   UNK N   1      20.926  17.756   3.469  0.00  0.00     0.005 C 
HETATM    5  C   UNK N   1      20.475  16.290   3.364  0.00  0.00     0.002 C 
HETATM    6  C   UNK N   1      21.164  15.391   4.407  0.00  0.00     0.003 C 
HETATM    7  C   UNK N   1      20.762  15.904   5.828  0.00  0.00     0.076 C 
HETATM    8  C   UNK N   1      20.173  18.351   2.252  0.00  0.00     0.128 C 
HETATM    9  C   UNK N   1      20.702  15.963   1.897  0.00  0.00     0.009 C 
HETATM   10  C   UNK N   1      20.560  18.316   4.856  0.00  0.00     0.091 C 
HETATM   11  C   UNK N   1      20.411  17.284   1.168  0.00  0.00     0.047 C 
HETATM   12  C   UNK N   1      21.370  14.972   6.915  0.00  0.00     0.008 C 
HETATM   13  C   UNK N   1      20.812  13.910   4.163  0.00  0.00     0.010 C 
HETATM   14  C   UNK N   1      21.108  17.386   5.921  0.00  0.00     0.133 C 
HETATM   15  C   UNK N   1      22.453  17.876   3.274  0.00  0.00     0.019 C 
HETATM   16  C   UNK N   1      20.243  13.161   5.366  0.00  0.00     0.036 C 
HETATM   17  C   UNK N   1      20.914  13.534   6.655  0.00  0.00    -0.063 C 
HETATM   18  C   UNK N   1      22.900  14.988   6.839  0.00  0.00     0.025 C 
HETATM   19  C   UNK N   1      21.019  15.373   8.336  0.00  0.00    -0.008 C 
HETATM   20  C   UNK N   1      21.009  12.612   7.626  0.00  0.00     0.058 C 
HETATM   21  C   UNK N   1      21.166  14.477   9.333  0.00  0.00     0.052 C 
HETATM   22  C   UNK N   1      21.369  13.049   8.988  0.00  0.00     0.171 C 
HETATM   23  H   UNK N   1      17.857  18.433   2.756  0.00  0.00     0.211 HD
ENDROOT
BRANCH   8  24
HETATM   24  C   UNK N   1      20.594  19.730   1.776  0.00  0.00     0.184 C 
HETATM   25  O   UNK N   1      20.951  19.914   0.624  0.00  0.00    -0.292 OA
BRANCH  24  26
HETATM   26  C   UNK N   1      20.614  20.888   2.731  0.00  0.00     0.245 C 
BRANCH  26  27
HETATM   27  O   UNK N   1      21.846  21.543   2.688  0.00  0.00    -0.393 OA
HETATM   28  H   UNK N   1      22.279  21.850   1.876  0.00  0.00     0.209 HD
ENDBRANCH  26  27
ENDBRANCH  24  26
ENDBRANCH   8  24
TORSDOF 3
ENDMDL
MODEL 4
REMARK VINA RESULT:      -7.6      3.915      7.484
REMARK  3 active torsions:
REMARK  status: ('A' for Active; 'I' for Inactive)
REMARK    1  A    between atoms: O_4  and  C_24 
REMARK    2  A    between atoms: C_10  and  C_20 
REMARK    3  A    between atoms: C_20  and  C_24 
ROOT
HETATM    1  O   UNK N   1      25.873  20.639  -8.704  0.00  0.00    -0.381 OA
HETATM    2  O   UNK N   1      25.723  25.905  -8.633  0.00  0.00    -0.297 OA
HETATM    3  O   UNK N   1      25.917  28.806  -2.960  0.00  0.00    -0.289 OA
HETATM    4  C   UNK N   1      27.069  22.731  -8.752  0.00  0.00     0.005 C 
HETATM    5  C   UNK N   1      27.374  22.534  -7.258  0.00  0.00     0.002 C 
HETATM    6  C   UNK N   1      27.589  23.872  -6.524  0.00  0.00     0.003 C 
HETATM    7  C   UNK N   1      26.265  24.697  -6.627  0.00  0.00     0.076 C 
HETATM    8  C   UNK N   1      27.028  21.251  -9.209  0.00  0.00     0.128 C 
HETATM    9  C   UNK N   1      28.529  21.547  -7.268  0.00  0.00     0.009 C 
HETATM   10  C   UNK N   1      25.774  23.548  -8.917  0.00  0.00     0.091 C 
HETATM   11  C   UNK N   1      28.248  20.652  -8.486  0.00  0.00     0.047 C 
HETATM   12  C   UNK N   1      26.409  26.024  -5.828  0.00  0.00     0.008 C 
HETATM   13  C   UNK N   1      28.052  23.626  -5.075  0.00  0.00     0.010 C 
HETATM   14  C   UNK N   1      25.887  24.819  -8.100  0.00  0.00     0.133 C 
HETATM   15  C   UNK N   1      28.221  23.485  -9.452  0.00  0.00     0.019 C 
HETATM   16  C   UNK N   1      27.223  24.314  -3.993  0.00  0.00     0.036 C 
HETATM   17  C   UNK N   1      26.792  25.698  -4.381  0.00  0.00    -0.063 C 
HETATM   18  C   UNK N   1      27.533  26.884  -6.415  0.00  0.00     0.025 C 
HETATM   19  C   UNK N   1      25.165  26.892  -5.847  0.00  0.00    -0.008 C 
HETATM   20  C   UNK N   1      26.637  26.622  -3.420  0.00  0.00     0.058 C 
HETATM   21  C   UNK N   1      25.022  27.865  -4.925  0.00  0.00     0.052 C 
HETATM   22  C   UNK N   1      25.918  27.869  -3.742  0.00  0.00     0.171 C 
HETATM   23  H   UNK N   1      25.057  20.245  -8.357  0.00  0.00     0.211 HD
ENDROOT
BRANCH   8  24
HETATM   24  C   UNK N   1      27.080  20.980 -10.703  0.00  0.00     0.184 C 
HETATM   25  O   UNK N   1      28.086  20.524 -11.223  0.00  0.00    -0.292 OA
BRANCH  24  26
HETATM   26  C   UNK N   1      25.902  21.307 -11.573  0.00  0.00     0.245 C 
BRANCH  26  27
HETATM   27  O   UNK N   1      24.818  20.482 -11.267  0.00  0.00    -0.393 OA
HETATM   28  H   UNK N   1      24.783  19.875 -10.511  0.00  0.00     0.209 HD
ENDBRANCH  26  27
ENDBRANCH  24  26
ENDBRANCH   8  24
TORSDOF 3
ENDMDL
MODEL 5
REMARK VINA RESULT:      -7.6     18.320     21.600
REMARK  3 active torsions:
REMARK  status: ('A' for Active; 'I' for Inactive)
REMARK    1  A    between atoms: O_4  and  C_24 
REMARK    2  A    between atoms: C_10  and  C_20 
REMARK    3  A    between atoms: C_20  and  C_24 
ROOT
HETATM    1  O   UNK N   1      33.395  14.632  10.193  0.00  0.00    -0.381 OA
HETATM    2  O   UNK N   1      36.697  14.665  14.300  0.00  0.00    -0.297 OA
HETATM    3  O   UNK N   1      35.480  10.679  19.122  0.00  0.00    -0.289 OA
HETATM    4  C   UNK N   1      35.391  13.770  11.234  0.00  0.00     0.005 C 
HETATM    5  C   UNK N   1      34.576  12.538  11.662  0.00  0.00     0.002 C 
HETATM    6  C   UNK N   1      35.140  11.877  12.934  0.00  0.00     0.003 C 
HETATM    7  C   UNK N   1      35.059  12.919  14.097  0.00  0.00     0.076 C 
HETATM    8  C   UNK N   1      34.667  14.117   9.909  0.00  0.00     0.128 C 
HETATM    9  C   UNK N   1      34.530  11.698  10.397  0.00  0.00     0.009 C 
HETATM   10  C   UNK N   1      35.353  14.833  12.348  0.00  0.00     0.091 C 
HETATM   11  C   UNK N   1      34.493  12.732   9.260  0.00  0.00     0.047 C 
HETATM   12  C   UNK N   1      35.542  12.266  15.423  0.00  0.00     0.008 C 
HETATM   13  C   UNK N   1      34.399  10.559  13.233  0.00  0.00     0.010 C 
HETATM   14  C   UNK N   1      35.775  14.191  13.655  0.00  0.00     0.133 C 
HETATM   15  C   UNK N   1      36.863  13.388  10.966  0.00  0.00     0.019 C 
HETATM   16  C   UNK N   1      33.812  10.437  14.637  0.00  0.00     0.036 C 
HETATM   17  C   UNK N   1      34.710  11.010  15.695  0.00  0.00    -0.063 C 
HETATM   18  C   UNK N   1      37.005  11.828  15.302  0.00  0.00     0.025 C 
HETATM   19  C   UNK N   1      35.481  13.192  16.623  0.00  0.00    -0.008 C 
HETATM   20  C   UNK N   1      34.689  10.470  16.924  0.00  0.00     0.058 C 
HETATM   21  C   UNK N   1      35.520  12.670  17.865  0.00  0.00     0.052 C 
HETATM   22  C   UNK N   1      35.313  11.212  18.037  0.00  0.00     0.171 C 
HETATM   23  H   UNK N   1      32.528  15.003  10.419  0.00  0.00     0.211 HD
ENDROOT
BRANCH   8  24
HETATM   24  C   UNK N   1      35.360  15.088   8.969  0.00  0.00     0.184 C 
HETATM   25  O   UNK N   1      36.288  14.724   8.264  0.00  0.00    -0.292 OA
BRANCH  24  26
HETATM   26  C   UNK N   1      34.937  16.527   8.919  0.00  0.00     0.245 C 
BRANCH  26  27
HETATM   27  O   UNK N   1      35.294  17.187  10.097  0.00  0.00    -0.393 OA
HETATM   28  H   UNK N   1      35.952  16.865  10.732  0.00  0.00     0.209 HD
ENDBRANCH  26  27
ENDBRANCH  24  26
ENDBRANCH   8  24
TORSDOF 3
ENDMDL
MODEL 6
REMARK VINA RESULT:      -7.6     11.334     14.808
REMARK  3 active torsions:
REMARK  status: ('A' for Active; 'I' for Inactive)
REMARK    1  A    between atoms: O_4  and  C_24 
REMARK    2  A    between atoms: C_10  and  C_20 
REMARK    3  A    between atoms: C_20  and  C_24 
ROOT
HETATM    1  O   UNK N   1      34.871  17.931   7.546  0.00  0.00    -0.381 OA
HETATM    2  O   UNK N   1      29.697  17.612   8.491  0.00  0.00    -0.297 OA
HETATM    3  O   UNK N   1      25.757  17.620   3.481  0.00  0.00    -0.289 OA
HETATM    4  C   UNK N   1      32.922  16.552   7.874  0.00  0.00     0.005 C 
HETATM    5  C   UNK N   1      32.841  16.388   6.347  0.00  0.00     0.002 C 
HETATM    6  C   UNK N   1      31.405  16.115   5.864  0.00  0.00     0.003 C 
HETATM    7  C   UNK N   1      30.522  17.346   6.250  0.00  0.00     0.076 C 
HETATM    8  C   UNK N   1      34.455  16.688   8.044  0.00  0.00     0.128 C 
HETATM    9  C   UNK N   1      33.893  15.330   6.057  0.00  0.00     0.009 C 
HETATM   10  C   UNK N   1      32.062  17.751   8.316  0.00  0.00     0.091 C 
HETATM   11  C   UNK N   1      34.987  15.590   7.105  0.00  0.00     0.047 C 
HETATM   12  C   UNK N   1      29.078  17.148   5.706  0.00  0.00     0.008 C 
HETATM   13  C   UNK N   1      31.393  15.795   4.356  0.00  0.00     0.010 C 
HETATM   14  C   UNK N   1      30.665  17.590   7.748  0.00  0.00     0.133 C 
HETATM   15  C   UNK N   1      32.406  15.284   8.589  0.00  0.00     0.019 C 
HETATM   16  C   UNK N   1      30.447  16.644   3.510  0.00  0.00     0.036 C 
HETATM   17  C   UNK N   1      29.139  16.916   4.194  0.00  0.00    -0.063 C 
HETATM   18  C   UNK N   1      28.434  15.908   6.334  0.00  0.00     0.025 C 
HETATM   19  C   UNK N   1      28.143  18.304   6.011  0.00  0.00    -0.008 C 
HETATM   20  C   UNK N   1      28.035  17.064   3.446  0.00  0.00     0.058 C 
HETATM   21  C   UNK N   1      26.999  18.433   5.309  0.00  0.00     0.052 C 
HETATM   22  C   UNK N   1      26.827  17.640   4.067  0.00  0.00     0.171 C 
HETATM   23  H   UNK N   1      35.128  18.805   7.213  0.00  0.00     0.211 HD
ENDROOT
BRANCH   8  24
HETATM   24  C   UNK N   1      35.018  16.540   9.447  0.00  0.00     0.184 C 
HETATM   25  O   UNK N   1      34.873  17.423  10.277  0.00  0.00    -0.292 OA
BRANCH  24  26
HETATM   26  C   UNK N   1      35.800  15.316   9.825  0.00  0.00     0.245 C 
BRANCH  26  27
HETATM   27  O   UNK N   1      36.924  15.660  10.578  0.00  0.00    -0.393 OA
HETATM   28  H   UNK N   1      36.950  16.373  11.235  0.00  0.00     0.209 HD
ENDBRANCH  26  27
ENDBRANCH  24  26
ENDBRANCH   8  24
TORSDOF 3
ENDMDL
MODEL 7
REMARK VINA RESULT:      -7.5     13.194     17.245
REMARK  3 active torsions:
REMARK  status: ('A' for Active; 'I' for Inactive)
REMARK    1  A    between atoms: O_4  and  C_24 
REMARK    2  A    between atoms: C_10  and  C_20 
REMARK    3  A    between atoms: C_20  and  C_24 
ROOT
HETATM    1  O   UNK N   1      33.857  14.249  11.809  0.00  0.00    -0.381 OA
HETATM    2  O   UNK N   1      34.274  12.858   6.744  0.00  0.00    -0.297 OA
HETATM    3  O   UNK N   1      32.163  16.966   2.351  0.00  0.00    -0.289 OA
HETATM    4  C   UNK N   1      35.165  14.224   9.784  0.00  0.00     0.005 C 
HETATM    5  C   UNK N   1      34.726  15.677   9.541  0.00  0.00     0.002 C 
HETATM    6  C   UNK N   1      34.726  16.046   8.046  0.00  0.00     0.003 C 
HETATM    7  C   UNK N   1      33.698  15.119   7.319  0.00  0.00     0.076 C 
HETATM    8  C   UNK N   1      35.175  14.207  11.333  0.00  0.00     0.128 C 
HETATM    9  C   UNK N   1      35.639  16.472  10.460  0.00  0.00     0.009 C 
HETATM   10  C   UNK N   1      34.189  13.260   9.083  0.00  0.00     0.091 C 
HETATM   11  C   UNK N   1      35.852  15.548  11.670  0.00  0.00     0.047 C 
HETATM   12  C   UNK N   1      33.605  15.512   5.818  0.00  0.00     0.008 C 
HETATM   13  C   UNK N   1      34.442  17.549   7.859  0.00  0.00     0.010 C 
HETATM   14  C   UNK N   1      34.054  13.668   7.629  0.00  0.00     0.133 C 
HETATM   15  C   UNK N   1      36.585  13.979   9.228  0.00  0.00     0.019 C 
HETATM   16  C   UNK N   1      33.291  17.889   6.915  0.00  0.00     0.036 C 
HETATM   17  C   UNK N   1      33.242  16.996   5.710  0.00  0.00    -0.063 C 
HETATM   18  C   UNK N   1      34.960  15.322   5.128  0.00  0.00     0.025 C 
HETATM   19  C   UNK N   1      32.613  14.682   5.024  0.00  0.00    -0.008 C 
HETATM   20  C   UNK N   1      32.767  17.490   4.556  0.00  0.00     0.058 C 
HETATM   21  C   UNK N   1      32.172  15.136   3.834  0.00  0.00     0.052 C 
HETATM   22  C   UNK N   1      32.419  16.554   3.471  0.00  0.00     0.171 C 
HETATM   23  H   UNK N   1      32.935  14.259  12.110  0.00  0.00     0.211 HD
ENDROOT
BRANCH   8  24
HETATM   24  C   UNK N   1      35.876  13.044  12.015  0.00  0.00     0.184 C 
HETATM   25  O   UNK N   1      36.998  13.174  12.478  0.00  0.00    -0.292 OA
BRANCH  24  26
HETATM   26  C   UNK N   1      35.212  11.701  12.095  0.00  0.00     0.245 C 
BRANCH  26  27
HETATM   27  O   UNK N   1      34.258  11.682  13.115  0.00  0.00    -0.393 OA
HETATM   28  H   UNK N   1      34.084  12.419  13.721  0.00  0.00     0.209 HD
ENDBRANCH  26  27
ENDBRANCH  24  26
ENDBRANCH   8  24
TORSDOF 3
ENDMDL
MODEL 8
REMARK VINA RESULT:      -7.5      1.400      6.942
REMARK  3 active torsions:
REMARK  status: ('A' for Active; 'I' for Inactive)
REMARK    1  A    between atoms: O_4  and  C_24 
REMARK    2  A    between atoms: C_10  and  C_20 
REMARK    3  A    between atoms: C_20  and  C_24 
ROOT
HETATM    1  O   UNK N   1      32.895  21.817  -6.137  0.00  0.00    -0.381 OA
HETATM    2  O   UNK N   1      29.930  24.453  -2.669  0.00  0.00    -0.297 OA
HETATM    3  O   UNK N   1      24.992  27.798  -4.920  0.00  0.00    -0.289 OA
HETATM    4  C   UNK N   1      31.005  21.835  -4.642  0.00  0.00     0.005 C 
HETATM    5  C   UNK N   1      30.101  22.059  -5.866  0.00  0.00     0.002 C 
HETATM    6  C   UNK N   1      28.798  22.795  -5.503  0.00  0.00     0.003 C 
HETATM    7  C   UNK N   1      29.179  24.202  -4.938  0.00  0.00     0.076 C 
HETATM    8  C   UNK N   1      32.131  20.996  -5.296  0.00  0.00     0.128 C 
HETATM    9  C   UNK N   1      29.978  20.668  -6.464  0.00  0.00     0.009 C 
HETATM   10  C   UNK N   1      31.408  23.192  -4.036  0.00  0.00     0.091 C 
HETATM   11  C   UNK N   1      31.337  20.011  -6.174  0.00  0.00     0.047 C 
HETATM   12  C   UNK N   1      27.887  25.014  -4.635  0.00  0.00     0.008 C 
HETATM   13  C   UNK N   1      27.853  22.854  -6.720  0.00  0.00     0.010 C 
HETATM   14  C   UNK N   1      30.156  24.009  -3.784  0.00  0.00     0.133 C 
HETATM   15  C   UNK N   1      30.270  21.010  -3.562  0.00  0.00     0.019 C 
HETATM   16  C   UNK N   1      27.355  24.246  -7.101  0.00  0.00     0.036 C 
HETATM   17  C   UNK N   1      27.038  25.098  -5.907  0.00  0.00    -0.063 C 
HETATM   18  C   UNK N   1      27.045  24.305  -3.570  0.00  0.00     0.025 C 
HETATM   19  C   UNK N   1      28.149  26.410  -4.100  0.00  0.00    -0.008 C 
HETATM   20  C   UNK N   1      26.067  26.019  -6.008  0.00  0.00     0.058 C 
HETATM   21  C   UNK N   1      27.164  27.329  -4.138  0.00  0.00     0.052 C 
HETATM   22  C   UNK N   1      25.964  27.061  -4.969  0.00  0.00     0.171 C 
HETATM   23  H   UNK N   1      33.418  22.412  -6.697  0.00  0.00     0.211 HD
ENDROOT
BRANCH   8  24
HETATM   24  C   UNK N   1      33.087  20.267  -4.368  0.00  0.00     0.184 C 
HETATM   25  O   UNK N   1      33.206  19.053  -4.419  0.00  0.00    -0.292 OA
BRANCH  24  26
HETATM   26  C   UNK N   1      33.876  21.027  -3.343  0.00  0.00     0.245 C 
BRANCH  26  27
HETATM   27  O   UNK N   1      33.253  20.964  -2.095  0.00  0.00    -0.393 OA
HETATM   28  H   UNK N   1      33.674  21.209  -1.255  0.00  0.00     0.209 HD
ENDBRANCH  26  27
ENDBRANCH  24  26
ENDBRANCH   8  24
TORSDOF 3
ENDMDL
MODEL 9
REMARK VINA RESULT:      -7.5     13.418     17.426
REMARK  3 active torsions:
REMARK  status: ('A' for Active; 'I' for Inactive)
REMARK    1  A    between atoms: O_4  and  C_24 
REMARK    2  A    between atoms: C_10  and  C_20 
REMARK    3  A    between atoms: C_20  and  C_24 
ROOT
HETATM    1  O   UNK N   1      37.002  15.643  10.894  0.00  0.00    -0.381 OA
HETATM    2  O   UNK N   1      31.880  15.016   9.825  0.00  0.00    -0.297 OA
HETATM    3  O   UNK N   1      29.616  17.657   4.484  0.00  0.00    -0.289 OA
HETATM    4  C   UNK N   1      35.263  14.336   9.857  0.00  0.00     0.005 C 
HETATM    5  C   UNK N   1      35.656  14.970   8.512  0.00  0.00     0.002 C 
HETATM    6  C   UNK N   1      34.479  15.014   7.520  0.00  0.00     0.003 C 
HETATM    7  C   UNK N   1      33.353  15.902   8.145  0.00  0.00     0.076 C 
HETATM    8  C   UNK N   1      36.643  14.329  10.559  0.00  0.00     0.128 C 
HETATM    9  C   UNK N   1      36.887  14.179   8.104  0.00  0.00     0.009 C 
HETATM   10  C   UNK N   1      34.147  15.166  10.519  0.00  0.00     0.091 C 
HETATM   11  C   UNK N   1      37.579  13.846   9.436  0.00  0.00     0.047 C 
HETATM   12  C   UNK N   1      32.175  16.042   7.140  0.00  0.00     0.008 C 
HETATM   13  C   UNK N   1      34.954  15.503   6.138  0.00  0.00     0.010 C 
HETATM   14  C   UNK N   1      33.016  15.350   9.527  0.00  0.00     0.133 C 
HETATM   15  C   UNK N   1      34.750  12.893   9.653  0.00  0.00     0.019 C 
HETATM   16  C   UNK N   1      34.183  16.687   5.557  0.00  0.00     0.036 C 
HETATM   17  C   UNK N   1      32.708  16.607   5.820  0.00  0.00    -0.063 C 
HETATM   18  C   UNK N   1      31.562  14.671   6.837  0.00  0.00     0.025 C 
HETATM   19  C   UNK N   1      31.035  16.907   7.645  0.00  0.00    -0.008 C 
HETATM   20  C   UNK N   1      31.861  17.141   4.926  0.00  0.00     0.058 C 
HETATM   21  C   UNK N   1      30.140  17.402   6.766  0.00  0.00     0.052 C 
HETATM   22  C   UNK N   1      30.454  17.352   5.317  0.00  0.00     0.171 C 
HETATM   23  H   UNK N   1      37.216  16.558  11.132  0.00  0.00     0.211 HD
ENDROOT
BRANCH   8  24
HETATM   24  C   UNK N   1      36.788  13.477  11.808  0.00  0.00     0.184 C 
HETATM   25  O   UNK N   1      37.421  12.434  11.785  0.00  0.00    -0.292 OA
BRANCH  24  26
HETATM   26  C   UNK N   1      36.119  13.888  13.087  0.00  0.00     0.245 C 
BRANCH  26  27
HETATM   27  O   UNK N   1      36.790  14.963  13.673  0.00  0.00    -0.393 OA
HETATM   28  H   UNK N   1      37.728  15.170  13.532  0.00  0.00     0.209 HD
ENDBRANCH  26  27
ENDBRANCH  24  26
ENDBRANCH   8  24
TORSDOF 3
ENDMDL
