MODEL 1
REMARK VINA RESULT:      -5.6      0.000      0.000
REMARK  5 active torsions:
REMARK  status: ('A' for Active; 'I' for Inactive)
REMARK    1  A    between atoms: O_2  and  C_5 
REMARK    2  A    between atoms: O_2  and  C_9 
REMARK    3  A    between atoms: O_3  and  C_8 
REMARK    4  A    between atoms: O_3  and  C_10 
REMARK    5  A    between atoms: C_5  and  C_8 
ROOT
HETATM    1  O   UNK N   1      25.961  28.634  -3.324  0.00  0.00    -0.331 OA
ENDROOT
BRANCH   1   2
HETATM    2  C   UNK N   1      26.916  29.648  -3.411  0.00  0.00     0.148 C 
HETATM    3  C   UNK N   1      27.500  29.562  -4.813  0.00  0.00     0.057 C 
HETATM    4  C   UNK N   1      26.363  31.062  -3.262  0.00  0.00     0.057 C 
BRANCH   2   5
HETATM    5  C   UNK N   1      28.012  29.446  -2.392  0.00  0.00     0.293 C 
HETATM    6  O   UNK N   1      29.126  29.086  -2.756  0.00  0.00    -0.262 OA
BRANCH   5   7
HETATM    7  O   UNK N   1      27.743  29.631  -1.073  0.00  0.00    -0.319 OA
BRANCH   7   8
HETATM    8  C   UNK N   1      28.696  29.971  -0.145  0.00  0.00     0.174 C 
HETATM    9  C   UNK N   1      28.008  30.338   1.155  0.00  0.00     0.034 C 
ENDBRANCH   7   8
ENDBRANCH   5   7
ENDBRANCH   2   5
ENDBRANCH   1   2
BRANCH   1  10
HETATM   10  C   UNK N   1      25.965  27.413  -3.929  0.00  0.00     0.070 A 
HETATM   11  C   UNK N   1      26.588  26.286  -3.365  0.00  0.00     0.038 A 
HETATM   12  C   UNK N   1      26.484  25.037  -3.986  0.00  0.00     0.026 A 
HETATM   13  C   UNK N   1      25.754  24.906  -5.171  0.00  0.00     0.034 A 
HETATM   14 Cl   UNK N   1      25.564  23.334  -5.917  0.00  0.00    -0.084 Cl
HETATM   15  C   UNK N   1      25.162  26.027  -5.754  0.00  0.00     0.026 A 
HETATM   16  C   UNK N   1      25.276  27.276  -5.139  0.00  0.00     0.038 A 
ENDBRANCH   1  10
TORSDOF 5
ENDMDL
MODEL 2
REMARK VINA RESULT:      -5.4      1.296      3.385
REMARK  5 active torsions:
REMARK  status: ('A' for Active; 'I' for Inactive)
REMARK    1  A    between atoms: O_2  and  C_5 
REMARK    2  A    between atoms: O_2  and  C_9 
REMARK    3  A    between atoms: O_3  and  C_8 
REMARK    4  A    between atoms: O_3  and  C_10 
REMARK    5  A    between atoms: C_5  and  C_8 
ROOT
HETATM    1  O   UNK N   1      25.923  28.809  -3.326  0.00  0.00    -0.331 OA
ENDROOT
BRANCH   1   2
HETATM    2  C   UNK N   1      27.041  29.642  -3.280  0.00  0.00     0.148 C 
HETATM    3  C   UNK N   1      26.520  31.062  -3.442  0.00  0.00     0.057 C 
HETATM    4  C   UNK N   1      27.807  29.614  -1.960  0.00  0.00     0.057 C 
BRANCH   2   5
HETATM    5  C   UNK N   1      27.999  29.323  -4.402  0.00  0.00     0.293 C 
HETATM    6  O   UNK N   1      29.039  28.718  -4.165  0.00  0.00    -0.262 OA
BRANCH   5   7
HETATM    7  O   UNK N   1      27.718  29.741  -5.664  0.00  0.00    -0.319 OA
BRANCH   7   8
HETATM    8  C   UNK N   1      28.464  29.393  -6.764  0.00  0.00     0.174 C 
HETATM    9  C   UNK N   1      27.921  28.100  -7.337  0.00  0.00     0.034 C 
ENDBRANCH   7   8
ENDBRANCH   5   7
ENDBRANCH   2   5
ENDBRANCH   1   2
BRANCH   1  10
HETATM   10  C   UNK N   1      25.801  27.588  -3.918  0.00  0.00     0.070 A 
HETATM   11  C   UNK N   1      25.133  27.397  -5.140  0.00  0.00     0.038 A 
HETATM   12  C   UNK N   1      25.117  26.136  -5.746  0.00  0.00     0.026 A 
HETATM   13  C   UNK N   1      25.771  25.061  -5.137  0.00  0.00     0.034 A 
HETATM   14 Cl   UNK N   1      25.812  23.498  -5.923  0.00  0.00    -0.084 Cl
HETATM   15  C   UNK N   1      26.408  25.236  -3.908  0.00  0.00     0.026 A 
HETATM   16  C   UNK N   1      26.414  26.493  -3.298  0.00  0.00     0.038 A 
ENDBRANCH   1  10
TORSDOF 5
ENDMDL
MODEL 3
REMARK VINA RESULT:      -5.4      1.170      2.128
REMARK  5 active torsions:
REMARK  status: ('A' for Active; 'I' for Inactive)
REMARK    1  A    between atoms: O_2  and  C_5 
REMARK    2  A    between atoms: O_2  and  C_9 
REMARK    3  A    between atoms: O_3  and  C_8 
REMARK    4  A    between atoms: O_3  and  C_10 
REMARK    5  A    between atoms: C_5  and  C_8 
ROOT
HETATM    1  O   UNK N   1      25.922  28.656  -3.376  0.00  0.00    -0.331 OA
ENDROOT
BRANCH   1   2
HETATM    2  C   UNK N   1      26.893  29.635  -3.592  0.00  0.00     0.148 C 
HETATM    3  C   UNK N   1      27.505  29.335  -4.952  0.00  0.00     0.057 C 
HETATM    4  C   UNK N   1      26.357  31.062  -3.668  0.00  0.00     0.057 C 
BRANCH   2   5
HETATM    5  C   UNK N   1      27.965  29.577  -2.531  0.00  0.00     0.293 C 
HETATM    6  O   UNK N   1      27.667  29.295  -1.375  0.00  0.00    -0.262 OA
BRANCH   5   7
HETATM    7  O   UNK N   1      29.250  29.873  -2.858  0.00  0.00    -0.319 OA
BRANCH   7   8
HETATM    8  C   UNK N   1      30.334  29.175  -2.385  0.00  0.00     0.174 C 
HETATM    9  C   UNK N   1      30.459  27.877  -3.159  0.00  0.00     0.034 C 
ENDBRANCH   7   8
ENDBRANCH   5   7
ENDBRANCH   2   5
ENDBRANCH   1   2
BRANCH   1  10
HETATM   10  C   UNK N   1      25.808  27.433  -3.966  0.00  0.00     0.070 A 
HETATM   11  C   UNK N   1      25.127  27.233  -5.179  0.00  0.00     0.038 A 
HETATM   12  C   UNK N   1      25.120  25.972  -5.784  0.00  0.00     0.026 A 
HETATM   13  C   UNK N   1      25.794  24.905  -5.184  0.00  0.00     0.034 A 
HETATM   14 Cl   UNK N   1      25.844  23.342  -5.969  0.00  0.00    -0.084 Cl
HETATM   15  C   UNK N   1      26.444  25.090  -3.963  0.00  0.00     0.026 A 
HETATM   16  C   UNK N   1      26.442  26.346  -3.353  0.00  0.00     0.038 A 
ENDBRANCH   1  10
TORSDOF 5
ENDMDL
MODEL 4
REMARK VINA RESULT:      -5.3     23.869     25.589
REMARK  5 active torsions:
REMARK  status: ('A' for Active; 'I' for Inactive)
REMARK    1  A    between atoms: O_2  and  C_5 
REMARK    2  A    between atoms: O_2  and  C_9 
REMARK    3  A    between atoms: O_3  and  C_8 
REMARK    4  A    between atoms: O_3  and  C_10 
REMARK    5  A    between atoms: C_5  and  C_8 
ROOT
HETATM    1  O   UNK N   1      34.728  13.076  14.788  0.00  0.00    -0.331 OA
ENDROOT
BRANCH   1   2
HETATM    2  C   UNK N   1      35.692  13.212  13.788  0.00  0.00     0.148 C 
HETATM    3  C   UNK N   1      36.424  14.513  14.078  0.00  0.00     0.057 C 
HETATM    4  C   UNK N   1      36.755  12.117  13.770  0.00  0.00     0.057 C 
BRANCH   2   5
HETATM    5  C   UNK N   1      35.049  13.285  12.424  0.00  0.00     0.293 C 
HETATM    6  O   UNK N   1      35.062  12.305  11.689  0.00  0.00    -0.262 OA
BRANCH   5   7
HETATM    7  O   UNK N   1      34.491  14.452  12.008  0.00  0.00    -0.319 OA
BRANCH   7   8
HETATM    8  C   UNK N   1      34.722  15.006  10.772  0.00  0.00     0.174 C 
HETATM    9  C   UNK N   1      35.317  16.388  10.955  0.00  0.00     0.034 C 
ENDBRANCH   7   8
ENDBRANCH   5   7
ENDBRANCH   2   5
ENDBRANCH   1   2
BRANCH   1  10
HETATM   10  C   UNK N   1      34.875  12.557  16.039  0.00  0.00     0.070 A 
HETATM   11  C   UNK N   1      34.989  11.177  16.283  0.00  0.00     0.038 A 
HETATM   12  C   UNK N   1      35.228  10.707  17.578  0.00  0.00     0.026 A 
HETATM   13  C   UNK N   1      35.358  11.611  18.637  0.00  0.00     0.034 A 
HETATM   14 Cl   UNK N   1      35.724  11.033  20.247  0.00  0.00    -0.084 Cl
HETATM   15  C   UNK N   1      35.213  12.980  18.407  0.00  0.00     0.026 A 
HETATM   16  C   UNK N   1      34.963  13.448  17.115  0.00  0.00     0.038 A 
ENDBRANCH   1  10
TORSDOF 5
ENDMDL
MODEL 5
REMARK VINA RESULT:      -5.2     16.455     17.705
REMARK  5 active torsions:
REMARK  status: ('A' for Active; 'I' for Inactive)
REMARK    1  A    between atoms: O_2  and  C_5 
REMARK    2  A    between atoms: O_2  and  C_9 
REMARK    3  A    between atoms: O_3  and  C_8 
REMARK    4  A    between atoms: O_3  and  C_10 
REMARK    5  A    between atoms: C_5  and  C_8 
ROOT
HETATM    1  O   UNK N   1      32.794  16.522   8.720  0.00  0.00    -0.331 OA
ENDROOT
BRANCH   1   2
HETATM    2  C   UNK N   1      34.115  16.912   8.498  0.00  0.00     0.148 C 
HETATM    3  C   UNK N   1      34.616  16.073   7.332  0.00  0.00     0.057 C 
HETATM    4  C   UNK N   1      34.292  18.370   8.085  0.00  0.00     0.057 C 
BRANCH   2   5
HETATM    5  C   UNK N   1      34.968  16.646   9.715  0.00  0.00     0.293 C 
HETATM    6  O   UNK N   1      35.522  17.578  10.288  0.00  0.00    -0.262 OA
BRANCH   5   7
HETATM    7  O   UNK N   1      35.144  15.370  10.146  0.00  0.00    -0.319 OA
BRANCH   7   8
HETATM    8  C   UNK N   1      34.615  14.883  11.316  0.00  0.00     0.174 C 
HETATM    9  C   UNK N   1      35.741  14.640  12.301  0.00  0.00     0.034 C 
ENDBRANCH   7   8
ENDBRANCH   5   7
ENDBRANCH   2   5
ENDBRANCH   1   2
BRANCH   1  10
HETATM   10  C   UNK N   1      31.661  17.004   8.137  0.00  0.00     0.070 A 
HETATM   11  C   UNK N   1      31.253  16.636   6.843  0.00  0.00     0.038 A 
HETATM   12  C   UNK N   1      30.034  17.092   6.330  0.00  0.00     0.026 A 
HETATM   13  C   UNK N   1      29.213  17.914   7.108  0.00  0.00     0.034 A 
HETATM   14 Cl   UNK N   1      27.657  18.432   6.498  0.00  0.00    -0.084 Cl
HETATM   15  C   UNK N   1      29.627  18.309   8.381  0.00  0.00     0.026 A 
HETATM   16  C   UNK N   1      30.850  17.863   8.888  0.00  0.00     0.038 A 
ENDBRANCH   1  10
TORSDOF 5
ENDMDL
MODEL 6
REMARK VINA RESULT:      -5.1     20.061     21.512
REMARK  5 active torsions:
REMARK  status: ('A' for Active; 'I' for Inactive)
REMARK    1  A    between atoms: O_2  and  C_5 
REMARK    2  A    between atoms: O_2  and  C_9 
REMARK    3  A    between atoms: O_3  and  C_8 
REMARK    4  A    between atoms: O_3  and  C_10 
REMARK    5  A    between atoms: C_5  and  C_8 
ROOT
HETATM    1  O   UNK N   1      36.273  15.040  10.210  0.00  0.00    -0.331 OA
ENDROOT
BRANCH   1   2
HETATM    2  C   UNK N   1      35.114  15.346   9.495  0.00  0.00     0.148 C 
HETATM    3  C   UNK N   1      35.379  14.927   8.057  0.00  0.00     0.057 C 
HETATM    4  C   UNK N   1      33.867  14.588   9.941  0.00  0.00     0.057 C 
BRANCH   2   5
HETATM    5  C   UNK N   1      34.824  16.827   9.546  0.00  0.00     0.293 C 
HETATM    6  O   UNK N   1      35.580  17.578  10.151  0.00  0.00    -0.262 OA
BRANCH   5   7
HETATM    7  O   UNK N   1      33.703  17.312   8.949  0.00  0.00    -0.319 OA
BRANCH   7   8
HETATM    8  C   UNK N   1      33.719  18.287   7.983  0.00  0.00     0.174 C 
HETATM    9  C   UNK N   1      33.546  17.637   6.625  0.00  0.00     0.034 C 
ENDBRANCH   7   8
ENDBRANCH   5   7
ENDBRANCH   2   5
ENDBRANCH   1   2
BRANCH   1  10
HETATM   10  C   UNK N   1      36.406  14.229  11.297  0.00  0.00     0.070 A 
HETATM   11  C   UNK N   1      37.050  12.981  11.241  0.00  0.00     0.038 A 
HETATM   12  C   UNK N   1      37.239  12.231  12.407  0.00  0.00     0.026 A 
HETATM   13  C   UNK N   1      36.789  12.725  13.635  0.00  0.00     0.034 A 
HETATM   14 Cl   UNK N   1      37.081  11.823  15.106  0.00  0.00    -0.084 Cl
HETATM   15  C   UNK N   1      36.119  13.948  13.692  0.00  0.00     0.026 A 
HETATM   16  C   UNK N   1      35.921  14.691  12.526  0.00  0.00     0.038 A 
ENDBRANCH   1  10
TORSDOF 5
ENDMDL
MODEL 7
REMARK VINA RESULT:      -5.0     24.102     25.536
REMARK  5 active torsions:
REMARK  status: ('A' for Active; 'I' for Inactive)
REMARK    1  A    between atoms: O_2  and  C_5 
REMARK    2  A    between atoms: O_2  and  C_9 
REMARK    3  A    between atoms: O_3  and  C_8 
REMARK    4  A    between atoms: O_3  and  C_10 
REMARK    5  A    between atoms: C_5  and  C_8 
ROOT
HETATM    1  O   UNK N   1      34.493  13.137  13.515  0.00  0.00    -0.331 OA
ENDROOT
BRANCH   1   2
HETATM    2  C   UNK N   1      35.442  13.657  12.635  0.00  0.00     0.148 C 
HETATM    3  C   UNK N   1      34.663  14.392  11.555  0.00  0.00     0.057 C 
HETATM    4  C   UNK N   1      36.393  14.680  13.250  0.00  0.00     0.057 C 
BRANCH   2   5
HETATM    5  C   UNK N   1      36.259  12.554  12.007  0.00  0.00     0.293 C 
HETATM    6  O   UNK N   1      35.842  11.976  11.009  0.00  0.00    -0.262 OA
BRANCH   5   7
HETATM    7  O   UNK N   1      37.436  12.184  12.576  0.00  0.00    -0.319 OA
BRANCH   7   8
HETATM    8  C   UNK N   1      37.716  10.900  12.976  0.00  0.00     0.174 C 
HETATM    9  C   UNK N   1      38.149  10.922  14.428  0.00  0.00     0.034 C 
ENDBRANCH   7   8
ENDBRANCH   5   7
ENDBRANCH   2   5
ENDBRANCH   1   2
BRANCH   1  10
HETATM   10  C   UNK N   1      34.694  12.341  14.602  0.00  0.00     0.070 A 
HETATM   11  C   UNK N   1      35.243  12.819  15.805  0.00  0.00     0.038 A 
HETATM   12  C   UNK N   1      35.343  11.978  16.918  0.00  0.00     0.026 A 
HETATM   13  C   UNK N   1      34.891  10.658  16.839  0.00  0.00     0.034 A 
HETATM   14 Cl   UNK N   1      34.952   9.621  18.248  0.00  0.00    -0.084 Cl
HETATM   15  C   UNK N   1      34.375  10.168  15.638  0.00  0.00     0.026 A 
HETATM   16  C   UNK N   1      34.287  11.004  14.523  0.00  0.00     0.038 A 
ENDBRANCH   1  10
TORSDOF 5
ENDMDL
MODEL 8
REMARK VINA RESULT:      -5.0      4.143      6.533
REMARK  5 active torsions:
REMARK  status: ('A' for Active; 'I' for Inactive)
REMARK    1  A    between atoms: O_2  and  C_5 
REMARK    2  A    between atoms: O_2  and  C_9 
REMARK    3  A    between atoms: O_3  and  C_8 
REMARK    4  A    between atoms: O_3  and  C_10 
REMARK    5  A    between atoms: C_5  and  C_8 
ROOT
HETATM    1  O   UNK N   1      25.321  24.028  -5.909  0.00  0.00    -0.331 OA
ENDROOT
BRANCH   1   2
HETATM    2  C   UNK N   1      25.971  23.565  -7.054  0.00  0.00     0.148 C 
HETATM    3  C   UNK N   1      25.586  22.100  -7.197  0.00  0.00     0.057 C 
HETATM    4  C   UNK N   1      25.547  24.249  -8.351  0.00  0.00     0.057 C 
BRANCH   2   5
HETATM    5  C   UNK N   1      27.469  23.683  -6.911  0.00  0.00     0.293 C 
HETATM    6  O   UNK N   1      28.073  24.563  -7.514  0.00  0.00    -0.262 OA
BRANCH   5   7
HETATM    7  O   UNK N   1      28.142  22.789  -6.140  0.00  0.00    -0.319 OA
BRANCH   7   8
HETATM    8  C   UNK N   1      29.232  22.078  -6.579  0.00  0.00     0.174 C 
HETATM    9  C   UNK N   1      29.975  21.526  -5.379  0.00  0.00     0.034 C 
ENDBRANCH   7   8
ENDBRANCH   5   7
ENDBRANCH   2   5
ENDBRANCH   1   2
BRANCH   1  10
HETATM   10  C   UNK N   1      25.525  25.193  -5.234  0.00  0.00     0.070 A 
HETATM   11  C   UNK N   1      26.279  25.266  -4.049  0.00  0.00     0.038 A 
HETATM   12  C   UNK N   1      26.531  26.504  -3.448  0.00  0.00     0.026 A 
HETATM   13  C   UNK N   1      26.035  27.675  -4.028  0.00  0.00     0.034 A 
HETATM   14 Cl   UNK N   1      26.404  29.232  -3.317  0.00  0.00    -0.084 Cl
HETATM   15  C   UNK N   1      25.258  27.607  -5.185  0.00  0.00     0.026 A 
HETATM   16  C   UNK N   1      24.997  26.370  -5.778  0.00  0.00     0.038 A 
ENDBRANCH   1  10
TORSDOF 5
ENDMDL
MODEL 9
REMARK VINA RESULT:      -5.0     21.208     22.677
REMARK  5 active torsions:
REMARK  status: ('A' for Active; 'I' for Inactive)
REMARK    1  A    between atoms: O_2  and  C_5 
REMARK    2  A    between atoms: O_2  and  C_9 
REMARK    3  A    between atoms: O_3  and  C_8 
REMARK    4  A    between atoms: O_3  and  C_10 
REMARK    5  A    between atoms: C_5  and  C_8 
ROOT
HETATM    1  O   UNK N   1      34.547  13.642  11.979  0.00  0.00    -0.331 OA
ENDROOT
BRANCH   1   2
HETATM    2  C   UNK N   1      35.581  13.036  12.694  0.00  0.00     0.148 C 
HETATM    3  C   UNK N   1      35.268  11.548  12.714  0.00  0.00     0.057 C 
HETATM    4  C   UNK N   1      36.964  13.176  12.064  0.00  0.00     0.057 C 
BRANCH   2   5
HETATM    5  C   UNK N   1      35.639  13.560  14.109  0.00  0.00     0.293 C 
HETATM    6  O   UNK N   1      36.599  14.229  14.474  0.00  0.00    -0.262 OA
BRANCH   5   7
HETATM    7  O   UNK N   1      34.640  13.254  14.979  0.00  0.00    -0.319 OA
BRANCH   7   8
HETATM    8  C   UNK N   1      34.829  13.112  16.332  0.00  0.00     0.174 C 
HETATM    9  C   UNK N   1      35.361  11.721  16.611  0.00  0.00     0.034 C 
ENDBRANCH   7   8
ENDBRANCH   5   7
ENDBRANCH   2   5
ENDBRANCH   1   2
BRANCH   1  10
HETATM   10  C   UNK N   1      34.629  14.643  11.058  0.00  0.00     0.070 A 
HETATM   11  C   UNK N   1      34.085  14.535   9.766  0.00  0.00     0.038 A 
HETATM   12  C   UNK N   1      34.119  15.628   8.893  0.00  0.00     0.026 A 
HETATM   13  C   UNK N   1      34.694  16.834   9.306  0.00  0.00     0.034 A 
HETATM   14 Cl   UNK N   1      34.680  18.224   8.242  0.00  0.00    -0.084 Cl
HETATM   15  C   UNK N   1      35.265  16.936  10.575  0.00  0.00     0.026 A 
HETATM   16  C   UNK N   1      35.241  15.842  11.442  0.00  0.00     0.038 A 
ENDBRANCH   1  10
TORSDOF 5
ENDMDL
