REMARK  7 active torsions:
REMARK  status: ('A' for Active; 'I' for Inactive)
REMARK    1  A    between atoms: O_2  and  C_31 
REMARK    2  A    between atoms: N_3  and  C_13 
REMARK    3  A    between atoms: N_4  and  C_8 
REMARK       I    between atoms: N_4  and  C_15 
REMARK    4  A    between atoms: N_5  and  C_18 
REMARK    5  A    between atoms: C_13  and  C_14 
REMARK    6  A    between atoms: C_14  and  C_16 
REMARK    7  A    between atoms: C_18  and  C_21 
ROOT
HETATM    1  N   UNK N   1       5.376   0.915   0.734  0.00  0.00    -0.221 N 
HETATM    2  N   UNK N   1       3.193   1.684  -0.150  0.00  0.00    -0.177 N 
HETATM    3  N   UNK N   1       3.248  -0.153   1.171  0.00  0.00    -0.190 N 
ATOM      4  HN  UNK N   1       3.581  -0.888   1.794  1.00  0.00     0.184 HD
HETATM    5  C   UNK N   1       3.965   0.854   0.611  0.00  0.00     0.682 A 
HETATM    6  C   UNK N   1       1.963   1.142  -0.089  0.00  0.00     0.079 A 
HETATM    7  C   UNK N   1       2.001   0.041   0.715  0.00  0.00     0.076 A 
HETATM    8  C   UNK N   1       0.792   1.537  -0.735  0.00  0.00     0.032 A 
HETATM    9  C   UNK N   1       0.879  -0.747   0.947  0.00  0.00     0.032 A 
HETATM   10  C   UNK N   1      -0.365   0.767  -0.521  0.00  0.00     0.002 A 
HETATM   11  C   UNK N   1      -0.322  -0.370   0.318  0.00  0.00     0.002 A 
HETATM   12  H   UNK N   1       5.788   0.583   1.564  0.00  0.00     0.178 HD
ENDROOT
BRANCH   1  13
HETATM   13  C   UNK N   1       6.239   1.440  -0.298  0.00  0.00     0.102 C 
HETATM   14  C   UNK N   1       6.001   0.695  -1.615  0.00  0.00     0.056 C 
HETATM   15  C   UNK N   1       6.284  -0.810  -1.461  0.00  0.00     0.274 C 
HETATM   16  N   UNK N   1       7.494  -1.123  -0.677  0.00  0.00     0.088 N 
HETATM   17  C   UNK N   1       8.392   0.025  -0.480  0.00  0.00     0.274 C 
HETATM   18  C   UNK N   1       7.699   1.262   0.133  0.00  0.00     0.056 C 
BRANCH  16  19
HETATM   19  C   UNK N   1       7.125  -1.697   0.615  0.00  0.00     0.277 C 
BRANCH  19  20
HETATM   20  C   UNK N   1       6.833  -3.194   0.486  0.00  0.00     0.068 C 
BRANCH  20  21
HETATM   21  C   UNK N   1       8.051  -4.066   0.334  0.00  0.00    -0.056 A 
HETATM   22  C   UNK N   1       9.350  -3.534   0.321  0.00  0.00     0.010 A 
HETATM   23  C   UNK N   1      10.456  -4.377   0.174  0.00  0.00     0.037 A 
HETATM   24  C   UNK N   1      10.277  -5.765   0.040  0.00  0.00     0.068 A 
HETATM   25  C   UNK N   1       8.982  -6.293   0.058  0.00  0.00     0.037 A 
HETATM   26  C   UNK N   1       7.876  -5.448   0.204  0.00  0.00     0.010 A 
BRANCH  24  27
HETATM   27  O   UNK N   1      11.328  -6.606  -0.107  0.00  0.00    -0.356 OA
HETATM   28  C   UNK N   1      12.637  -6.179  -0.142  0.00  0.00     0.210 C 
ENDBRANCH  24  27
ENDBRANCH  20  21
ENDBRANCH  19  20
ENDBRANCH  16  19
ENDBRANCH   1  13
BRANCH   2  29
HETATM   29  C   UNK N   1       3.599   2.865  -0.925  0.00  0.00     0.186 C 
BRANCH  29  30
HETATM   30  C   UNK N   1       2.995   4.163  -0.433  0.00  0.00    -0.039 A 
HETATM   31  C   UNK N   1       1.620   4.282  -0.189  0.00  0.00     0.012 A 
HETATM   32  C   UNK N   1       1.060   5.506   0.183  0.00  0.00     0.043 A 
HETATM   33  C   UNK N   1       1.870   6.636   0.296  0.00  0.00     0.116 A 
HETATM   34  F   UNK N   1       1.322   7.830   0.632  0.00  0.00    -0.206 F 
HETATM   35  C   UNK N   1       3.244   6.535   0.050  0.00  0.00     0.043 A 
HETATM   36  C   UNK N   1       3.805   5.302  -0.313  0.00  0.00     0.012 A 
ENDBRANCH  29  30
ENDBRANCH   2  29
TORSDOF 7
