MODEL 1
REMARK VINA RESULT:      -8.5      0.000      0.000
REMARK  7 active torsions:
REMARK  status: ('A' for Active; 'I' for Inactive)
REMARK    1  A    between atoms: O_2  and  C_31 
REMARK    2  A    between atoms: N_3  and  C_13 
REMARK    3  A    between atoms: N_4  and  C_8 
REMARK       I    between atoms: N_4  and  C_15 
REMARK    4  A    between atoms: N_5  and  C_18 
REMARK    5  A    between atoms: C_13  and  C_14 
REMARK    6  A    between atoms: C_14  and  C_16 
REMARK    7  A    between atoms: C_18  and  C_21 
ROOT
HETATM    1  N   UNK N   1      23.760  15.025   5.874  0.00  0.00    -0.221 N 
HETATM    2  N   UNK N   1      21.845  14.547   7.373  0.00  0.00    -0.177 N 
HETATM    3  N   UNK N   1      22.091  16.643   6.554  0.00  0.00    -0.190 N 
ATOM      4  HN  UNK N   1      22.436  17.438   6.018  1.00  0.00     0.184 HD
HETATM    5  C   UNK N   1      22.567  15.372   6.559  0.00  0.00     0.682 A 
HETATM    6  C   UNK N   1      20.917  15.352   7.921  0.00  0.00     0.079 A 
HETATM    7  C   UNK N   1      21.065  16.610   7.417  0.00  0.00     0.076 A 
HETATM    8  C   UNK N   1      19.950  15.057   8.882  0.00  0.00     0.032 A 
HETATM    9  C   UNK N   1      20.260  17.670   7.821  0.00  0.00     0.032 A 
HETATM   10  C   UNK N   1      19.114  16.103   9.312  0.00  0.00     0.002 A 
HETATM   11  C   UNK N   1      19.268  17.404   8.782  0.00  0.00     0.002 A 
HETATM   12  H   UNK N   1      23.973  15.498   5.038  0.00  0.00     0.178 HD
ENDROOT
BRANCH   1  13
HETATM   13  C   UNK N   1      24.676  14.013   6.344  0.00  0.00     0.102 C 
HETATM   14  C   UNK N   1      25.745  14.643   7.242  0.00  0.00     0.056 C 
HETATM   15  C   UNK N   1      26.548  15.714   6.482  0.00  0.00     0.274 C 
HETATM   16  N   UNK N   1      26.912  15.336   5.103  0.00  0.00     0.088 N 
HETATM   17  C   UNK N   1      26.756  13.902   4.816  0.00  0.00     0.274 C 
HETATM   18  C   UNK N   1      25.349  13.350   5.136  0.00  0.00     0.056 C 
BRANCH  16  19
HETATM   19  C   UNK N   1      26.144  16.125   4.142  0.00  0.00     0.277 C 
BRANCH  19  20
HETATM   20  C   UNK N   1      26.534  17.603   4.212  0.00  0.00     0.068 C 
BRANCH  20  21
HETATM   21  C   UNK N   1      25.449  18.564   3.803  0.00  0.00    -0.056 A 
HETATM   22  C   UNK N   1      25.731  19.762   3.129  0.00  0.00     0.010 A 
HETATM   23  C   UNK N   1      24.695  20.630   2.770  0.00  0.00     0.037 A 
HETATM   24  C   UNK N   1      23.362  20.309   3.078  0.00  0.00     0.068 A 
HETATM   25  C   UNK N   1      23.083  19.113   3.746  0.00  0.00     0.037 A 
HETATM   26  C   UNK N   1      24.120  18.245   4.106  0.00  0.00     0.010 A 
BRANCH  24  27
HETATM   27  O   UNK N   1      22.338  21.131   2.746  0.00  0.00    -0.356 OA
HETATM   28  C   UNK N   1      21.147  20.679   2.222  0.00  0.00     0.210 C 
ENDBRANCH  24  27
ENDBRANCH  20  21
ENDBRANCH  19  20
ENDBRANCH  16  19
ENDBRANCH   1  13
BRANCH   2  29
HETATM   29  C   UNK N   1      22.055  13.121   7.658  0.00  0.00     0.186 C 
BRANCH  29  30
HETATM   30  C   UNK N   1      22.406  12.825   9.100  0.00  0.00    -0.039 A 
HETATM   31  C   UNK N   1      23.739  12.756   9.528  0.00  0.00     0.012 A 
HETATM   32  C   UNK N   1      24.055  12.399  10.841  0.00  0.00     0.043 A 
HETATM   33  C   UNK N   1      23.036  12.085  11.740  0.00  0.00     0.116 A 
HETATM   34  F   UNK N   1      23.344  11.714  13.008  0.00  0.00    -0.206 F 
HETATM   35  C   UNK N   1      21.700  12.143  11.327  0.00  0.00     0.043 A 
HETATM   36  C   UNK N   1      21.386  12.512  10.011  0.00  0.00     0.012 A 
ENDBRANCH  29  30
ENDBRANCH   2  29
TORSDOF 7
ENDMDL
MODEL 2
REMARK VINA RESULT:      -8.3      5.945      8.976
REMARK  7 active torsions:
REMARK  status: ('A' for Active; 'I' for Inactive)
REMARK    1  A    between atoms: O_2  and  C_31 
REMARK    2  A    between atoms: N_3  and  C_13 
REMARK    3  A    between atoms: N_4  and  C_8 
REMARK       I    between atoms: N_4  and  C_15 
REMARK    4  A    between atoms: N_5  and  C_18 
REMARK    5  A    between atoms: C_13  and  C_14 
REMARK    6  A    between atoms: C_14  and  C_16 
REMARK    7  A    between atoms: C_18  and  C_21 
ROOT
HETATM    1  N   UNK N   1      29.355  15.901   4.149  0.00  0.00    -0.221 N 
HETATM    2  N   UNK N   1      28.166  16.957   6.049  0.00  0.00    -0.177 N 
HETATM    3  N   UNK N   1      30.429  16.912   6.068  0.00  0.00    -0.190 N 
ATOM      4  HN  UNK N   1      31.397  16.776   5.780  1.00  0.00     0.184 HD
HETATM    5  C   UNK N   1      29.302  16.611   5.375  0.00  0.00     0.682 A 
HETATM    6  C   UNK N   1      28.611  17.452   7.218  0.00  0.00     0.079 A 
HETATM    7  C   UNK N   1      29.975  17.430   7.220  0.00  0.00     0.076 A 
HETATM    8  C   UNK N   1      27.884  17.896   8.322  0.00  0.00     0.032 A 
HETATM    9  C   UNK N   1      30.722  17.856   8.313  0.00  0.00     0.032 A 
HETATM   10  C   UNK N   1      28.605  18.340   9.445  0.00  0.00     0.002 A 
HETATM   11  C   UNK N   1      30.019  18.321   9.440  0.00  0.00     0.002 A 
HETATM   12  H   UNK N   1      30.127  16.049   3.556  0.00  0.00     0.178 HD
ENDROOT
BRANCH   1  13
HETATM   13  C   UNK N   1      28.333  14.973   3.726  0.00  0.00     0.102 C 
HETATM   14  C   UNK N   1      28.438  13.671   4.525  0.00  0.00     0.056 C 
HETATM   15  C   UNK N   1      29.812  13.007   4.327  0.00  0.00     0.274 C 
HETATM   16  N   UNK N   1      30.301  13.027   2.935  0.00  0.00     0.088 N 
HETATM   17  C   UNK N   1      29.266  13.354   1.943  0.00  0.00     0.274 C 
HETATM   18  C   UNK N   1      28.517  14.673   2.234  0.00  0.00     0.056 C 
BRANCH  16  19
HETATM   19  C   UNK N   1      31.426  13.950   2.807  0.00  0.00     0.277 C 
BRANCH  19  20
HETATM   20  C   UNK N   1      32.487  13.672   3.875  0.00  0.00     0.068 C 
BRANCH  20  21
HETATM   21  C   UNK N   1      32.980  14.889   4.611  0.00  0.00    -0.056 A 
HETATM   22  C   UNK N   1      33.109  16.137   3.982  0.00  0.00     0.010 A 
HETATM   23  C   UNK N   1      33.574  17.244   4.699  0.00  0.00     0.037 A 
HETATM   24  C   UNK N   1      33.915  17.117   6.057  0.00  0.00     0.068 A 
HETATM   25  C   UNK N   1      33.781  15.873   6.683  0.00  0.00     0.037 A 
HETATM   26  C   UNK N   1      33.317  14.766   5.963  0.00  0.00     0.010 A 
BRANCH  24  27
HETATM   27  O   UNK N   1      34.371  18.169   6.777  0.00  0.00    -0.356 OA
HETATM   28  C   UNK N   1      34.487  18.151   8.149  0.00  0.00     0.210 C 
ENDBRANCH  24  27
ENDBRANCH  20  21
ENDBRANCH  19  20
ENDBRANCH  16  19
ENDBRANCH   1  13
BRANCH   2  29
HETATM   29  C   UNK N   1      26.765  16.778   5.643  0.00  0.00     0.186 C 
BRANCH  29  30
HETATM   30  C   UNK N   1      26.231  17.889   4.764  0.00  0.00    -0.039 A 
HETATM   31  C   UNK N   1      27.080  18.866   4.225  0.00  0.00     0.012 A 
HETATM   32  C   UNK N   1      26.567  19.934   3.486  0.00  0.00     0.043 A 
HETATM   33  C   UNK N   1      25.190  20.049   3.293  0.00  0.00     0.116 A 
HETATM   34  F   UNK N   1      24.691  21.100   2.597  0.00  0.00    -0.206 F 
HETATM   35  C   UNK N   1      24.329  19.085   3.829  0.00  0.00     0.043 A 
HETATM   36  C   UNK N   1      24.848  18.008   4.562  0.00  0.00     0.012 A 
ENDBRANCH  29  30
ENDBRANCH   2  29
TORSDOF 7
ENDMDL
MODEL 3
REMARK VINA RESULT:      -7.9      2.448      4.546
REMARK  7 active torsions:
REMARK  status: ('A' for Active; 'I' for Inactive)
REMARK    1  A    between atoms: O_2  and  C_31 
REMARK    2  A    between atoms: N_3  and  C_13 
REMARK    3  A    between atoms: N_4  and  C_8 
REMARK       I    between atoms: N_4  and  C_15 
REMARK    4  A    between atoms: N_5  and  C_18 
REMARK    5  A    between atoms: C_13  and  C_14 
REMARK    6  A    between atoms: C_14  and  C_16 
REMARK    7  A    between atoms: C_18  and  C_21 
ROOT
HETATM    1  N   UNK N   1      24.281  13.941   6.061  0.00  0.00    -0.221 N 
HETATM    2  N   UNK N   1      22.756  13.462   7.953  0.00  0.00    -0.177 N 
HETATM    3  N   UNK N   1      24.986  13.251   8.271  0.00  0.00    -0.190 N 
ATOM      4  HN  UNK N   1      25.994  13.282   8.117  1.00  0.00     0.184 HD
HETATM    5  C   UNK N   1      23.999  13.599   7.407  0.00  0.00     0.682 A 
HETATM    6  C   UNK N   1      22.986  12.970   9.184  0.00  0.00     0.079 A 
HETATM    7  C   UNK N   1      24.331  12.853   9.373  0.00  0.00     0.076 A 
HETATM    8  C   UNK N   1      22.072  12.574  10.161  0.00  0.00     0.032 A 
HETATM    9  C   UNK N   1      24.874  12.343  10.547  0.00  0.00     0.032 A 
HETATM   10  C   UNK N   1      22.584  12.058  11.364  0.00  0.00     0.002 A 
HETATM   11  C   UNK N   1      23.980  11.944  11.557  0.00  0.00     0.002 A 
HETATM   12  H   UNK N   1      25.128  14.401   5.862  0.00  0.00     0.178 HD
ENDROOT
BRANCH   1  13
HETATM   13  C   UNK N   1      23.387  13.646   4.965  0.00  0.00     0.102 C 
HETATM   14  C   UNK N   1      23.886  12.422   4.192  0.00  0.00     0.056 C 
HETATM   15  C   UNK N   1      25.295  12.661   3.621  0.00  0.00     0.274 C 
HETATM   16  N   UNK N   1      25.493  14.000   3.034  0.00  0.00     0.088 N 
HETATM   17  C   UNK N   1      24.243  14.734   2.785  0.00  0.00     0.274 C 
HETATM   18  C   UNK N   1      23.332  14.856   4.026  0.00  0.00     0.056 C 
BRANCH  16  19
HETATM   19  C   UNK N   1      26.380  14.796   3.879  0.00  0.00     0.277 C 
BRANCH  19  20
HETATM   20  C   UNK N   1      26.924  16.006   3.116  0.00  0.00     0.068 C 
BRANCH  20  21
HETATM   21  C   UNK N   1      26.689  17.335   3.783  0.00  0.00    -0.056 A 
HETATM   22  C   UNK N   1      25.568  18.127   3.490  0.00  0.00     0.010 A 
HETATM   23  C   UNK N   1      25.386  19.357   4.129  0.00  0.00     0.037 A 
HETATM   24  C   UNK N   1      26.324  19.811   5.073  0.00  0.00     0.068 A 
HETATM   25  C   UNK N   1      27.438  19.018   5.367  0.00  0.00     0.037 A 
HETATM   26  C   UNK N   1      27.618  17.787   4.726  0.00  0.00     0.010 A 
BRANCH  24  27
HETATM   27  O   UNK N   1      26.177  20.999   5.706  0.00  0.00    -0.356 OA
HETATM   28  C   UNK N   1      27.226  21.685   6.276  0.00  0.00     0.210 C 
ENDBRANCH  24  27
ENDBRANCH  20  21
ENDBRANCH  19  20
ENDBRANCH  16  19
ENDBRANCH   1  13
BRANCH   2  29
HETATM   29  C   UNK N   1      21.446  13.718   7.336  0.00  0.00     0.186 C 
BRANCH  29  30
HETATM   30  C   UNK N   1      20.873  15.084   7.651  0.00  0.00    -0.039 A 
HETATM   31  C   UNK N   1      21.252  16.220   6.923  0.00  0.00     0.012 A 
HETATM   32  C   UNK N   1      20.783  17.487   7.275  0.00  0.00     0.043 A 
HETATM   33  C   UNK N   1      19.942  17.637   8.378  0.00  0.00     0.116 A 
HETATM   34  F   UNK N   1      19.507  18.870   8.735  0.00  0.00    -0.206 F 
HETATM   35  C   UNK N   1      19.559  16.513   9.119  0.00  0.00     0.043 A 
HETATM   36  C   UNK N   1      20.024  15.240   8.756  0.00  0.00     0.012 A 
ENDBRANCH  29  30
ENDBRANCH   2  29
TORSDOF 7
ENDMDL
MODEL 4
REMARK VINA RESULT:      -7.8      3.841      8.242
REMARK  7 active torsions:
REMARK  status: ('A' for Active; 'I' for Inactive)
REMARK    1  A    between atoms: O_2  and  C_31 
REMARK    2  A    between atoms: N_3  and  C_13 
REMARK    3  A    between atoms: N_4  and  C_8 
REMARK       I    between atoms: N_4  and  C_15 
REMARK    4  A    between atoms: N_5  and  C_18 
REMARK    5  A    between atoms: C_13  and  C_14 
REMARK    6  A    between atoms: C_14  and  C_16 
REMARK    7  A    between atoms: C_18  and  C_21 
ROOT
HETATM    1  N   UNK N   1      23.962  16.286   5.737  0.00  0.00    -0.221 N 
HETATM    2  N   UNK N   1      23.923  18.247   4.223  0.00  0.00    -0.177 N 
HETATM    3  N   UNK N   1      22.008  17.634   5.264  0.00  0.00    -0.190 N 
ATOM      4  HN  UNK N   1      21.351  17.156   5.878  1.00  0.00     0.184 HD
HETATM    5  C   UNK N   1      23.335  17.393   5.112  0.00  0.00     0.682 A 
HETATM    6  C   UNK N   1      22.910  19.014   3.780  0.00  0.00     0.079 A 
HETATM    7  C   UNK N   1      21.761  18.646   4.417  0.00  0.00     0.076 A 
HETATM    8  C   UNK N   1      22.919  20.012   2.807  0.00  0.00     0.032 A 
HETATM    9  C   UNK N   1      20.537  19.245   4.144  0.00  0.00     0.032 A 
HETATM   10  C   UNK N   1      21.700  20.645   2.507  0.00  0.00     0.002 A 
HETATM   11  C   UNK N   1      20.513  20.264   3.174  0.00  0.00     0.002 A 
HETATM   12  H   UNK N   1      23.630  15.996   6.617  0.00  0.00     0.178 HD
ENDROOT
BRANCH   1  13
HETATM   13  C   UNK N   1      25.064  15.563   5.147  0.00  0.00     0.102 C 
HETATM   14  C   UNK N   1      24.573  14.730   3.959  0.00  0.00     0.056 C 
HETATM   15  C   UNK N   1      23.501  13.715   4.397  0.00  0.00     0.274 C 
HETATM   16  N   UNK N   1      23.799  13.030   5.670  0.00  0.00     0.088 N 
HETATM   17  C   UNK N   1      25.194  13.171   6.112  0.00  0.00     0.274 C 
HETATM   18  C   UNK N   1      25.676  14.636   6.202  0.00  0.00     0.056 C 
BRANCH  16  19
HETATM   19  C   UNK N   1      22.892  13.495   6.717  0.00  0.00     0.277 C 
BRANCH  19  20
HETATM   20  C   UNK N   1      22.323  12.317   7.511  0.00  0.00     0.068 C 
BRANCH  20  21
HETATM   21  C   UNK N   1      22.786  12.234   8.942  0.00  0.00    -0.056 A 
HETATM   22  C   UNK N   1      21.883  12.226  10.017  0.00  0.00     0.010 A 
HETATM   23  C   UNK N   1      22.353  12.152  11.332  0.00  0.00     0.037 A 
HETATM   24  C   UNK N   1      23.733  12.083  11.589  0.00  0.00     0.068 A 
HETATM   25  C   UNK N   1      24.630  12.087  10.516  0.00  0.00     0.037 A 
HETATM   26  C   UNK N   1      24.159  12.162   9.200  0.00  0.00     0.010 A 
BRANCH  24  27
HETATM   27  O   UNK N   1      24.218  12.014  12.851  0.00  0.00    -0.356 OA
HETATM   28  C   UNK N   1      23.450  12.255  13.969  0.00  0.00     0.210 C 
ENDBRANCH  24  27
ENDBRANCH  20  21
ENDBRANCH  19  20
ENDBRANCH  16  19
ENDBRANCH   1  13
BRANCH   2  29
HETATM   29  C   UNK N   1      25.323  18.294   3.781  0.00  0.00     0.186 C 
BRANCH  29  30
HETATM   30  C   UNK N   1      26.198  19.220   4.600  0.00  0.00    -0.039 A 
HETATM   31  C   UNK N   1      27.092  18.722   5.557  0.00  0.00     0.012 A 
HETATM   32  C   UNK N   1      27.832  19.587   6.367  0.00  0.00     0.043 A 
HETATM   33  C   UNK N   1      27.670  20.967   6.241  0.00  0.00     0.116 A 
HETATM   34  F   UNK N   1      28.370  21.805   7.044  0.00  0.00    -0.206 F 
HETATM   35  C   UNK N   1      26.777  21.479   5.293  0.00  0.00     0.043 A 
HETATM   36  C   UNK N   1      26.043  20.609   4.475  0.00  0.00     0.012 A 
ENDBRANCH  29  30
ENDBRANCH   2  29
TORSDOF 7
ENDMDL
MODEL 5
REMARK VINA RESULT:      -7.7      3.744      6.154
REMARK  7 active torsions:
REMARK  status: ('A' for Active; 'I' for Inactive)
REMARK    1  A    between atoms: O_2  and  C_31 
REMARK    2  A    between atoms: N_3  and  C_13 
REMARK    3  A    between atoms: N_4  and  C_8 
REMARK       I    between atoms: N_4  and  C_15 
REMARK    4  A    between atoms: N_5  and  C_18 
REMARK    5  A    between atoms: C_13  and  C_14 
REMARK    6  A    between atoms: C_14  and  C_16 
REMARK    7  A    between atoms: C_18  and  C_21 
ROOT
HETATM    1  N   UNK N   1      25.125  14.533   6.843  0.00  0.00    -0.221 N 
HETATM    2  N   UNK N   1      23.191  13.663   8.124  0.00  0.00    -0.177 N 
HETATM    3  N   UNK N   1      25.252  13.555   9.054  0.00  0.00    -0.190 N 
ATOM      4  HN  UNK N   1      26.252  13.678   9.209  1.00  0.00     0.184 HD
HETATM    5  C   UNK N   1      24.515  13.967   7.991  0.00  0.00     0.682 A 
HETATM    6  C   UNK N   1      23.118  13.001   9.294  0.00  0.00     0.079 A 
HETATM    7  C   UNK N   1      24.361  12.947   9.853  0.00  0.00     0.076 A 
HETATM    8  C   UNK N   1      22.016  12.397   9.898  0.00  0.00     0.032 A 
HETATM    9  C   UNK N   1      24.604  12.298  11.058  0.00  0.00     0.032 A 
HETATM   10  C   UNK N   1      22.223  11.734  11.121  0.00  0.00     0.002 A 
HETATM   11  C   UNK N   1      23.512  11.686  11.700  0.00  0.00     0.002 A 
HETATM   12  H   UNK N   1      25.938  15.075   6.964  0.00  0.00     0.178 HD
ENDROOT
BRANCH   1  13
HETATM   13  C   UNK N   1      24.613  14.353   5.505  0.00  0.00     0.102 C 
HETATM   14  C   UNK N   1      25.589  13.514   4.674  0.00  0.00     0.056 C 
HETATM   15  C   UNK N   1      26.967  14.193   4.583  0.00  0.00     0.274 C 
HETATM   16  N   UNK N   1      26.912  15.650   4.356  0.00  0.00     0.088 N 
HETATM   17  C   UNK N   1      25.596  16.137   3.916  0.00  0.00     0.274 C 
HETATM   18  C   UNK N   1      24.435  15.727   4.850  0.00  0.00     0.056 C 
BRANCH  16  19
HETATM   19  C   UNK N   1      27.335  16.365   5.557  0.00  0.00     0.277 C 
BRANCH  19  20
HETATM   20  C   UNK N   1      28.420  17.394   5.229  0.00  0.00     0.068 C 
BRANCH  20  21
HETATM   21  C   UNK N   1      29.571  17.431   6.199  0.00  0.00    -0.056 A 
HETATM   22  C   UNK N   1      29.407  17.833   7.534  0.00  0.00     0.010 A 
HETATM   23  C   UNK N   1      30.503  17.857   8.402  0.00  0.00     0.037 A 
HETATM   24  C   UNK N   1      31.778  17.478   7.947  0.00  0.00     0.068 A 
HETATM   25  C   UNK N   1      31.938  17.074   6.618  0.00  0.00     0.037 A 
HETATM   26  C   UNK N   1      30.841  17.051   5.749  0.00  0.00     0.010 A 
BRANCH  24  27
HETATM   27  O   UNK N   1      32.858  17.495   8.764  0.00  0.00    -0.356 OA
HETATM   28  C   UNK N   1      33.954  16.682   8.581  0.00  0.00     0.210 C 
ENDBRANCH  24  27
ENDBRANCH  20  21
ENDBRANCH  19  20
ENDBRANCH  16  19
ENDBRANCH   1  13
BRANCH   2  29
HETATM   29  C   UNK N   1      22.088  13.924   7.188  0.00  0.00     0.186 C 
BRANCH  29  30
HETATM   30  C   UNK N   1      21.230  15.113   7.563  0.00  0.00    -0.039 A 
HETATM   31  C   UNK N   1      21.437  16.373   6.986  0.00  0.00     0.012 A 
HETATM   32  C   UNK N   1      20.697  17.483   7.400  0.00  0.00     0.043 A 
HETATM   33  C   UNK N   1      19.750  17.349   8.415  0.00  0.00     0.116 A 
HETATM   34  F   UNK N   1      19.050  18.432   8.835  0.00  0.00    -0.206 F 
HETATM   35  C   UNK N   1      19.536  16.098   9.006  0.00  0.00     0.043 A 
HETATM   36  C   UNK N   1      20.273  14.984   8.581  0.00  0.00     0.012 A 
ENDBRANCH  29  30
ENDBRANCH   2  29
TORSDOF 7
ENDMDL
MODEL 6
REMARK VINA RESULT:      -7.7      4.073      7.213
REMARK  7 active torsions:
REMARK  status: ('A' for Active; 'I' for Inactive)
REMARK    1  A    between atoms: O_2  and  C_31 
REMARK    2  A    between atoms: N_3  and  C_13 
REMARK    3  A    between atoms: N_4  and  C_8 
REMARK       I    between atoms: N_4  and  C_15 
REMARK    4  A    between atoms: N_5  and  C_18 
REMARK    5  A    between atoms: C_13  and  C_14 
REMARK    6  A    between atoms: C_14  and  C_16 
REMARK    7  A    between atoms: C_18  and  C_21 
ROOT
HETATM    1  N   UNK N   1      26.525  14.929   4.365  0.00  0.00    -0.221 N 
HETATM    2  N   UNK N   1      24.736  16.595   4.766  0.00  0.00    -0.177 N 
HETATM    3  N   UNK N   1      24.708  14.662   5.943  0.00  0.00    -0.190 N 
ATOM      4  HN  UNK N   1      24.980  13.756   6.324  1.00  0.00     0.184 HD
HETATM    5  C   UNK N   1      25.372  15.416   5.030  0.00  0.00     0.682 A 
HETATM    6  C   UNK N   1      23.618  16.544   5.513  0.00  0.00     0.079 A 
HETATM    7  C   UNK N   1      23.611  15.381   6.226  0.00  0.00     0.076 A 
HETATM    8  C   UNK N   1      22.563  17.453   5.585  0.00  0.00     0.032 A 
HETATM    9  C   UNK N   1      22.563  15.035   7.071  0.00  0.00     0.032 A 
HETATM   10  C   UNK N   1      21.486  17.140   6.433  0.00  0.00     0.002 A 
HETATM   11  C   UNK N   1      21.486  15.936   7.175  0.00  0.00     0.002 A 
HETATM   12  H   UNK N   1      27.127  14.324   4.856  0.00  0.00     0.178 HD
ENDROOT
BRANCH   1  13
HETATM   13  C   UNK N   1      26.860  15.275   3.004  0.00  0.00     0.102 C 
HETATM   14  C   UNK N   1      27.019  14.006   2.160  0.00  0.00     0.056 C 
HETATM   15  C   UNK N   1      28.131  13.102   2.722  0.00  0.00     0.274 C 
HETATM   16  N   UNK N   1      29.343  13.826   3.151  0.00  0.00     0.088 N 
HETATM   17  C   UNK N   1      29.418  15.210   2.659  0.00  0.00     0.274 C 
HETATM   18  C   UNK N   1      28.175  16.061   2.997  0.00  0.00     0.056 C 
BRANCH  16  19
HETATM   19  C   UNK N   1      29.453  13.806   4.608  0.00  0.00     0.277 C 
BRANCH  19  20
HETATM   20  C   UNK N   1      30.823  14.320   5.061  0.00  0.00     0.068 C 
BRANCH  20  21
HETATM   21  C   UNK N   1      30.780  15.386   6.123  0.00  0.00    -0.056 A 
HETATM   22  C   UNK N   1      29.715  16.295   6.221  0.00  0.00     0.010 A 
HETATM   23  C   UNK N   1      29.714  17.274   7.220  0.00  0.00     0.037 A 
HETATM   24  C   UNK N   1      30.778  17.355   8.136  0.00  0.00     0.068 A 
HETATM   25  C   UNK N   1      31.835  16.444   8.038  0.00  0.00     0.037 A 
HETATM   26  C   UNK N   1      31.835  15.466   7.037  0.00  0.00     0.010 A 
BRANCH  24  27
HETATM   27  O   UNK N   1      30.806  18.293   9.111  0.00  0.00    -0.356 OA
HETATM   28  C   UNK N   1      29.687  18.688   9.811  0.00  0.00     0.210 C 
ENDBRANCH  24  27
ENDBRANCH  20  21
ENDBRANCH  19  20
ENDBRANCH  16  19
ENDBRANCH   1  13
BRANCH   2  29
HETATM   29  C   UNK N   1      25.125  17.662   3.833  0.00  0.00     0.186 C 
BRANCH  29  30
HETATM   30  C   UNK N   1      25.887  18.799   4.479  0.00  0.00    -0.039 A 
HETATM   31  C   UNK N   1      26.804  18.568   5.514  0.00  0.00     0.012 A 
HETATM   32  C   UNK N   1      27.439  19.630   6.161  0.00  0.00     0.043 A 
HETATM   33  C   UNK N   1      27.148  20.944   5.792  0.00  0.00     0.116 A 
HETATM   34  F   UNK N   1      27.745  21.976   6.438  0.00  0.00    -0.206 F 
HETATM   35  C   UNK N   1      26.230  21.191   4.765  0.00  0.00     0.043 A 
HETATM   36  C   UNK N   1      25.602  20.122   4.110  0.00  0.00     0.012 A 
ENDBRANCH  29  30
ENDBRANCH   2  29
TORSDOF 7
ENDMDL
MODEL 7
REMARK VINA RESULT:      -7.6     11.882     14.326
REMARK  7 active torsions:
REMARK  status: ('A' for Active; 'I' for Inactive)
REMARK    1  A    between atoms: O_2  and  C_31 
REMARK    2  A    between atoms: N_3  and  C_13 
REMARK    3  A    between atoms: N_4  and  C_8 
REMARK       I    between atoms: N_4  and  C_15 
REMARK    4  A    between atoms: N_5  and  C_18 
REMARK    5  A    between atoms: C_13  and  C_14 
REMARK    6  A    between atoms: C_14  and  C_16 
REMARK    7  A    between atoms: C_18  and  C_21 
ROOT
HETATM    1  N   UNK N   1      34.978  12.565  13.358  0.00  0.00    -0.221 N 
HETATM    2  N   UNK N   1      34.935  11.184  15.415  0.00  0.00    -0.177 N 
HETATM    3  N   UNK N   1      34.987  13.438  15.616  0.00  0.00    -0.190 N 
ATOM      4  HN  UNK N   1      34.974  14.431  15.387  1.00  0.00     0.184 HD
HETATM    5  C   UNK N   1      34.926  12.384  14.763  0.00  0.00     0.682 A 
HETATM    6  C   UNK N   1      35.047  11.513  16.715  0.00  0.00     0.079 A 
HETATM    7  C   UNK N   1      35.070  12.872  16.830  0.00  0.00     0.076 A 
HETATM    8  C   UNK N   1      35.171  10.681  17.827  0.00  0.00     0.032 A 
HETATM    9  C   UNK N   1      35.208  13.510  18.058  0.00  0.00     0.032 A 
HETATM   10  C   UNK N   1      35.308  11.290  19.087  0.00  0.00     0.002 A 
HETATM   11  C   UNK N   1      35.324  12.699  19.202  0.00  0.00     0.002 A 
HETATM   12  H   UNK N   1      34.571  13.376  12.976  0.00  0.00     0.178 HD
ENDROOT
BRANCH   1  13
HETATM   13  C   UNK N   1      35.597  11.619  12.460  0.00  0.00     0.102 C 
HETATM   14  C   UNK N   1      37.056  12.010  12.204  0.00  0.00     0.056 C 
HETATM   15  C   UNK N   1      37.153  13.413  11.579  0.00  0.00     0.274 C 
HETATM   16  N   UNK N   1      36.152  13.681  10.529  0.00  0.00     0.088 N 
HETATM   17  C   UNK N   1      35.477  12.475  10.026  0.00  0.00     0.274 C 
HETATM   18  C   UNK N   1      34.829  11.614  11.133  0.00  0.00     0.056 C 
BRANCH  16  19
HETATM   19  C   UNK N   1      35.164  14.645  11.006  0.00  0.00     0.277 C 
BRANCH  19  20
HETATM   20  C   UNK N   1      35.311  15.985  10.281  0.00  0.00     0.068 C 
BRANCH  20  21
HETATM   21  C   UNK N   1      34.156  16.352   9.388  0.00  0.00    -0.056 A 
HETATM   22  C   UNK N   1      34.108  17.574   8.698  0.00  0.00     0.010 A 
HETATM   23  C   UNK N   1      33.015  17.880   7.881  0.00  0.00     0.037 A 
HETATM   24  C   UNK N   1      31.957  16.966   7.740  0.00  0.00     0.068 A 
HETATM   25  C   UNK N   1      32.009  15.747   8.424  0.00  0.00     0.037 A 
HETATM   26  C   UNK N   1      33.103  15.443   9.243  0.00  0.00     0.010 A 
BRANCH  24  27
HETATM   27  O   UNK N   1      30.884  17.235   6.959  0.00  0.00    -0.356 OA
HETATM   28  C   UNK N   1      29.662  17.621   7.462  0.00  0.00     0.210 C 
ENDBRANCH  24  27
ENDBRANCH  20  21
ENDBRANCH  19  20
ENDBRANCH  16  19
ENDBRANCH   1  13
BRANCH   2  29
HETATM   29  C   UNK N   1      34.900   9.829  14.848  0.00  0.00     0.186 C 
BRANCH  29  30
HETATM   30  C   UNK N   1      36.139   9.008  15.135  0.00  0.00    -0.039 A 
HETATM   31  C   UNK N   1      36.054   7.742  15.732  0.00  0.00     0.012 A 
HETATM   32  C   UNK N   1      37.206   7.029  16.070  0.00  0.00     0.043 A 
HETATM   33  C   UNK N   1      38.463   7.585  15.833  0.00  0.00     0.116 A 
HETATM   34  F   UNK N   1      39.581   6.904  16.186  0.00  0.00    -0.206 F 
HETATM   35  C   UNK N   1      38.565   8.851  15.244  0.00  0.00     0.043 A 
HETATM   36  C   UNK N   1      37.406   9.560  14.895  0.00  0.00     0.012 A 
ENDBRANCH  29  30
ENDBRANCH   2  29
TORSDOF 7
ENDMDL
MODEL 8
REMARK VINA RESULT:      -7.6     12.059     16.084
REMARK  7 active torsions:
REMARK  status: ('A' for Active; 'I' for Inactive)
REMARK    1  A    between atoms: O_2  and  C_31 
REMARK    2  A    between atoms: N_3  and  C_13 
REMARK    3  A    between atoms: N_4  and  C_8 
REMARK       I    between atoms: N_4  and  C_15 
REMARK    4  A    between atoms: N_5  and  C_18 
REMARK    5  A    between atoms: C_13  and  C_14 
REMARK    6  A    between atoms: C_14  and  C_16 
REMARK    7  A    between atoms: C_18  and  C_21 
ROOT
HETATM    1  N   UNK N   1      34.979  12.946  11.775  0.00  0.00    -0.221 N 
HETATM    2  N   UNK N   1      35.024  12.660   9.315  0.00  0.00    -0.177 N 
HETATM    3  N   UNK N   1      33.673  11.322  10.543  0.00  0.00    -0.190 N 
ATOM      4  HN  UNK N   1      33.165  10.920  11.330  1.00  0.00     0.184 HD
HETATM    5  C   UNK N   1      34.548  12.360  10.559  0.00  0.00     0.682 A 
HETATM    6  C   UNK N   1      34.452  11.745   8.511  0.00  0.00     0.079 A 
HETATM    7  C   UNK N   1      33.633  10.948   9.255  0.00  0.00     0.076 A 
HETATM    8  C   UNK N   1      34.632  11.536   7.144  0.00  0.00     0.032 A 
HETATM    9  C   UNK N   1      32.924   9.889   8.700  0.00  0.00     0.032 A 
HETATM   10  C   UNK N   1      33.928  10.476   6.546  0.00  0.00     0.002 A 
HETATM   11  C   UNK N   1      33.076   9.656   7.320  0.00  0.00     0.002 A 
HETATM   12  H   UNK N   1      34.345  12.985  12.527  0.00  0.00     0.178 HD
ENDROOT
BRANCH   1  13
HETATM   13  C   UNK N   1      36.303  13.490  11.967  0.00  0.00     0.102 C 
HETATM   14  C   UNK N   1      37.292  12.368  12.298  0.00  0.00     0.056 C 
HETATM   15  C   UNK N   1      36.879  11.625  13.581  0.00  0.00     0.274 C 
HETATM   16  N   UNK N   1      36.413  12.506  14.670  0.00  0.00     0.088 N 
HETATM   17  C   UNK N   1      36.746  13.925  14.474  0.00  0.00     0.274 C 
HETATM   18  C   UNK N   1      36.267  14.497  13.121  0.00  0.00     0.056 C 
BRANCH  16  19
HETATM   19  C   UNK N   1      34.974  12.351  14.864  0.00  0.00     0.277 C 
BRANCH  19  20
HETATM   20  C   UNK N   1      34.520  13.031  16.158  0.00  0.00     0.068 C 
BRANCH  20  21
HETATM   21  C   UNK N   1      34.961  12.344  17.423  0.00  0.00    -0.056 A 
HETATM   22  C   UNK N   1      35.130  13.043  18.629  0.00  0.00     0.010 A 
HETATM   23  C   UNK N   1      35.545  12.369  19.782  0.00  0.00     0.037 A 
HETATM   24  C   UNK N   1      35.795  10.986  19.744  0.00  0.00     0.068 A 
HETATM   25  C   UNK N   1      35.622  10.292  18.542  0.00  0.00     0.037 A 
HETATM   26  C   UNK N   1      35.207  10.967  17.389  0.00  0.00     0.010 A 
BRANCH  24  27
HETATM   27  O   UNK N   1      36.201  10.307  20.843  0.00  0.00    -0.356 OA
HETATM   28  C   UNK N   1      37.467  10.420  21.375  0.00  0.00     0.210 C 
ENDBRANCH  24  27
ENDBRANCH  20  21
ENDBRANCH  19  20
ENDBRANCH  16  19
ENDBRANCH   1  13
BRANCH   2  29
HETATM   29  C   UNK N   1      35.992  13.694   8.924  0.00  0.00     0.186 C 
BRANCH  29  30
HETATM   30  C   UNK N   1      35.365  15.029   8.582  0.00  0.00    -0.039 A 
HETATM   31  C   UNK N   1      35.104  15.988   9.570  0.00  0.00     0.012 A 
HETATM   32  C   UNK N   1      34.449  17.180   9.257  0.00  0.00     0.043 A 
HETATM   33  C   UNK N   1      34.026  17.420   7.950  0.00  0.00     0.116 A 
HETATM   34  F   UNK N   1      33.367  18.567   7.652  0.00  0.00    -0.206 F 
HETATM   35  C   UNK N   1      34.274  16.470   6.953  0.00  0.00     0.043 A 
HETATM   36  C   UNK N   1      34.942  15.278   7.268  0.00  0.00     0.012 A 
ENDBRANCH  29  30
ENDBRANCH   2  29
TORSDOF 7
ENDMDL
MODEL 9
REMARK VINA RESULT:      -7.6     14.461     17.742
REMARK  7 active torsions:
REMARK  status: ('A' for Active; 'I' for Inactive)
REMARK    1  A    between atoms: O_2  and  C_31 
REMARK    2  A    between atoms: N_3  and  C_13 
REMARK    3  A    between atoms: N_4  and  C_8 
REMARK       I    between atoms: N_4  and  C_15 
REMARK    4  A    between atoms: N_5  and  C_18 
REMARK    5  A    between atoms: C_13  and  C_14 
REMARK    6  A    between atoms: C_14  and  C_16 
REMARK    7  A    between atoms: C_18  and  C_21 
ROOT
HETATM    1  N   UNK N   1      27.791  23.384  -7.472  0.00  0.00    -0.221 N 
HETATM    2  N   UNK N   1      27.923  23.653  -5.013  0.00  0.00    -0.177 N 
HETATM    3  N   UNK N   1      29.760  22.951  -6.133  0.00  0.00    -0.190 N 
ATOM      4  HN  UNK N   1      30.397  22.701  -6.889  1.00  0.00     0.184 HD
HETATM    5  C   UNK N   1      28.475  23.374  -6.230  0.00  0.00     0.682 A 
HETATM    6  C   UNK N   1      28.894  23.350  -4.132  0.00  0.00     0.079 A 
HETATM    7  C   UNK N   1      30.000  22.936  -4.813  0.00  0.00     0.076 A 
HETATM    8  C   UNK N   1      28.860  23.379  -2.738  0.00  0.00     0.032 A 
HETATM    9  C   UNK N   1      31.161  22.528  -4.165  0.00  0.00     0.032 A 
HETATM   10  C   UNK N   1      30.017  22.977  -2.047  0.00  0.00     0.002 A 
HETATM   11  C   UNK N   1      31.164  22.554  -2.758  0.00  0.00     0.002 A 
HETATM   12  H   UNK N   1      28.307  23.574  -8.289  0.00  0.00     0.178 HD
ENDROOT
BRANCH   1  13
HETATM   13  C   UNK N   1      26.375  23.130  -7.599  0.00  0.00     0.102 C 
HETATM   14  C   UNK N   1      26.126  22.043  -8.649  0.00  0.00     0.056 C 
HETATM   15  C   UNK N   1      26.672  22.464 -10.025  0.00  0.00     0.274 C 
HETATM   16  N   UNK N   1      26.401  23.871 -10.381  0.00  0.00     0.088 N 
HETATM   17  C   UNK N   1      25.380  24.514  -9.540  0.00  0.00     0.274 C 
HETATM   18  C   UNK N   1      25.671  24.423  -8.026  0.00  0.00     0.056 C 
BRANCH  16  19
HETATM   19  C   UNK N   1      27.638  24.647 -10.349  0.00  0.00     0.277 C 
BRANCH  19  20
HETATM   20  C   UNK N   1      27.364  26.126 -10.635  0.00  0.00     0.068 C 
BRANCH  20  21
HETATM   21  C   UNK N   1      27.952  27.084  -9.634  0.00  0.00    -0.056 A 
HETATM   22  C   UNK N   1      27.480  27.164  -8.314  0.00  0.00     0.010 A 
HETATM   23  C   UNK N   1      28.051  28.070  -7.415  0.00  0.00     0.037 A 
HETATM   24  C   UNK N   1      29.104  28.908  -7.823  0.00  0.00     0.068 A 
HETATM   25  C   UNK N   1      29.575  28.823  -9.137  0.00  0.00     0.037 A 
HETATM   26  C   UNK N   1      29.002  27.916 -10.037  0.00  0.00     0.010 A 
BRANCH  24  27
HETATM   27  O   UNK N   1      29.674  29.797  -6.976  0.00  0.00    -0.356 OA
HETATM   28  C   UNK N   1      28.967  30.480  -6.012  0.00  0.00     0.210 C 
ENDBRANCH  24  27
ENDBRANCH  20  21
ENDBRANCH  19  20
ENDBRANCH  16  19
ENDBRANCH   1  13
BRANCH   2  29
HETATM   29  C   UNK N   1      26.562  24.113  -4.703  0.00  0.00     0.186 C 
BRANCH  29  30
HETATM   30  C   UNK N   1      26.427  25.618  -4.608  0.00  0.00    -0.039 A 
HETATM   31  C   UNK N   1      27.327  26.386  -3.857  0.00  0.00     0.012 A 
HETATM   32  C   UNK N   1      27.145  27.762  -3.706  0.00  0.00     0.043 A 
HETATM   33  C   UNK N   1      26.044  28.387  -4.291  0.00  0.00     0.116 A 
HETATM   34  F   UNK N   1      25.853  29.719  -4.122  0.00  0.00    -0.206 F 
HETATM   35  C   UNK N   1      25.132  27.633  -5.039  0.00  0.00     0.043 A 
HETATM   36  C   UNK N   1      25.324  26.253  -5.197  0.00  0.00     0.012 A 
ENDBRANCH  29  30
ENDBRANCH   2  29
TORSDOF 7
ENDMDL
