REMARK  5 active torsions:
REMARK  status: ('A' for Active; 'I' for Inactive)
REMARK    1  A    between atoms: N_3  and  C_13 
REMARK    2  A    between atoms: N_4  and  C_16 
REMARK    3  A    between atoms: N_5  and  C_15 
REMARK    4  A    between atoms: C_13  and  C_14 
REMARK    5  A    between atoms: C_14  and  C_15 
ROOT
HETATM    1  C   UNK N   1       6.395   2.432   1.862  0.00  0.00     0.274 C 
ENDROOT
BRANCH   1   2
HETATM    2  N   UNK N   1       7.169   1.258   1.432  0.00  0.00     0.091 N 
HETATM    3  C   UNK N   1       6.213   0.200   1.056  0.00  0.00     0.292 C 
HETATM    4  C   UNK N   1       6.561  -0.505  -0.252  0.00  0.00     0.153 C 
HETATM    5  N   UNK N   1       7.988  -0.733  -0.310  0.00  0.00    -0.377 N 
HETATM    6  C   UNK N   1       8.894   0.383  -0.119  0.00  0.00     0.153 C 
HETATM    7  C   UNK N   1       8.155   1.611   0.392  0.00  0.00     0.292 C 
BRANCH   5   8
HETATM    8  C   UNK N   1       8.507  -2.054  -0.411  0.00  0.00     0.031 A 
HETATM    9  C   UNK N   1       7.650  -3.166  -0.366  0.00  0.00     0.053 A 
HETATM   10  C   UNK N   1       8.172  -4.461  -0.404  0.00  0.00     0.036 A 
HETATM   11 Cl   UNK N   1       7.100  -5.839  -0.304  0.00  0.00    -0.084 Cl
HETATM   12  C   UNK N   1       9.552  -4.657  -0.497  0.00  0.00     0.024 A 
HETATM   13  C   UNK N   1      10.412  -3.559  -0.554  0.00  0.00     0.004 A 
HETATM   14  C   UNK N   1       9.893  -2.264  -0.502  0.00  0.00     0.029 A 
ENDBRANCH   5   8
ENDBRANCH   1   2
BRANCH   1  15
HETATM   15  C   UNK N   1       6.116   3.461   0.752  0.00  0.00     0.052 C 
BRANCH  15  16
HETATM   16  C   UNK N   1       5.496   2.829  -0.490  0.00  0.00     0.156 C 
BRANCH  16  17
HETATM   17  N   UNK N   1       4.072   2.644  -0.298  0.00  0.00    -0.240 N 
HETATM   18  N   UNK N   1       3.464   1.463  -0.216  0.00  0.00    -0.279 N 
HETATM   19  C   UNK N   1       2.154   1.729  -0.022  0.00  0.00     0.130 A 
ATOM     20  HN  UNK N   1       3.900   0.543  -0.285  1.00  0.00     0.189 HD
HETATM   21  N   UNK N   1       1.917   3.053   0.015  0.00  0.00    -0.258 N 
HETATM   22  C   UNK N   1       1.125   0.809   0.137  0.00  0.00     0.050 A 
HETATM   23  C   UNK N   1       3.131   3.610  -0.163  0.00  0.00     0.349 A 
HETATM   24  C   UNK N   1       0.691   3.593   0.203  0.00  0.00     0.103 A 
HETATM   25  O   UNK N   1       3.352   4.809  -0.192  0.00  0.00    -0.244 OA
HETATM   26  C   UNK N   1      -0.392   2.716   0.370  0.00  0.00     0.018 A 
HETATM   27  C   UNK N   1      -0.170   1.322   0.338  0.00  0.00     0.005 A 
ENDBRANCH  16  17
ENDBRANCH  15  16
ENDBRANCH   1  15
TORSDOF 5
