REMARK  1 active torsions:
REMARK  status: ('A' for Active; 'I' for Inactive)
REMARK    1  A    between atoms: N_1  and  C_3 
ROOT
HETATM    1  C   UNK N   1       2.018   0.763  -0.031  0.00  0.00    -0.019 C 
HETATM    2  C   UNK N   1       2.898  -0.541  -0.144  0.00  0.00     0.032 C 
HETATM    3  C   UNK N   1       3.049   1.833   0.395  0.00  0.00    -0.004 C 
HETATM    4  C   UNK N   1       4.318   0.011   0.127  0.00  0.00     0.014 C 
HETATM    5  C   UNK N   1       4.022   1.019   1.212  0.00  0.00     0.012 C 
HETATM    6  C   UNK N   1       3.945   2.189  -0.793  0.00  0.00     0.006 C 
HETATM    7  C   UNK N   1       4.769   0.928  -1.009  0.00  0.00     0.007 C 
HETATM    8  C   UNK N   1       1.303   1.181  -1.319  0.00  0.00     0.018 C 
HETATM    9  C   UNK N   1       0.940   0.662   1.047  0.00  0.00     0.018 C 
HETATM   10  C   UNK N   1       2.794  -1.235  -1.512  0.00  0.00     0.039 C 
ENDROOT
BRANCH   2  11
HETATM   11  N   UNK N   1       2.547  -1.504   0.915  0.00  0.00    -0.416 N 
HETATM   12  C   UNK N   1       3.460  -2.647   0.932  0.00  0.00     0.140 C 
HETATM   13  H   UNK N   1       1.764  -1.388   1.558  0.00  0.00     0.153 HD
ENDBRANCH   2  11
TORSDOF 1
