REMARK  3 active torsions:
REMARK  status: ('A' for Active; 'I' for Inactive)
REMARK    1  A    between atoms: O_2  and  C_7 
REMARK    2  A    between atoms: O_2  and  C_9 
REMARK    3  A    between atoms: C_5  and  C_7 
ROOT
HETATM    1  O   UNK N   1       2.941  -0.309  -0.000  0.00  0.00    -0.349 OA
ENDROOT
BRANCH   1   2
HETATM    2  C   UNK N   1       4.156   0.340   0.000  0.00  0.00     0.210 C 
BRANCH   2   3
HETATM    3  C   UNK N   1       3.997   1.842  -0.000  0.00  0.00     0.175 A 
HETATM    4  O   UNK N   1       5.107   2.645  -0.000  0.00  0.00    -0.295 OA
HETATM    5  C   UNK N   1       4.688   3.908   0.000  0.00  0.00     0.361 A 
HETATM    6  O   UNK N   1       5.448   4.862   0.000  0.00  0.00    -0.239 OA
HETATM    7  N   UNK N   1       3.356   4.037   0.000  0.00  0.00    -0.334 N 
HETATM    8  C   UNK N   1       2.744   2.730   0.000  0.00  0.00     0.159 A 
HETATM    9  H   UNK N   1       2.868   4.892   0.000  0.00  0.00     0.164 HD
ENDBRANCH   2   3
ENDBRANCH   1   2
BRANCH   1  10
HETATM   10  C   UNK N   1       2.869  -1.661  -0.000  0.00  0.00     0.069 A 
HETATM   11  C   UNK N   1       4.036  -2.447   0.000  0.00  0.00     0.043 A 
HETATM   12  C   UNK N   1       3.955  -3.836   0.000  0.00  0.00    -0.059 A 
HETATM   13  C   UNK N   1       2.706  -4.461   0.000  0.00  0.00     0.013 A 
HETATM   14  C   UNK N   1       5.200  -4.646   0.000  0.00  0.00     0.048 C 
HETATM   15  C   UNK N   1       1.538  -3.690  -0.000  0.00  0.00    -0.059 A 
HETATM   16  C   UNK N   1       1.619  -2.292  -0.000  0.00  0.00     0.043 A 
HETATM   17  C   UNK N   1       0.212  -4.359  -0.000  0.00  0.00     0.048 C 
ENDBRANCH   1  10
TORSDOF 3
