REMARK  3 active torsions:
REMARK  status: ('A' for Active; 'I' for Inactive)
REMARK    1  A    between atoms: N_8  and  C_16 
REMARK    2  A    between atoms: N_10  and  C_20 
REMARK    3  A    between atoms: C_19  and  C_22 
ROOT
HETATM    1  C   UNK N   1       4.645  -0.672   0.015  0.00  0.00     0.048 A 
HETATM    2  C   UNK N   1       4.713   0.721   0.048  0.00  0.00     0.049 A 
HETATM    3  C   UNK N   1       3.383  -1.277   0.010  0.00  0.00     0.032 A 
HETATM    4  C   UNK N   1       3.576   1.532   0.052  0.00  0.00     0.083 A 
HETATM    5  C   UNK N   1       2.288   0.911   0.030  0.00  0.00     0.118 A 
HETATM    6  C   UNK N   1       2.224  -0.496   0.023  0.00  0.00     0.039 A 
ENDROOT
BRANCH   1   7
HETATM    7  N   UNK N   1       5.857  -1.445  -0.053  0.00  0.00    -0.232 N 
HETATM    8  C   UNK N   1       5.961  -2.787  -0.146  0.00  0.00     0.260 A 
HETATM    9  O   UNK N   1       5.007  -3.551  -0.172  0.00  0.00    -0.270 OA
HETATM   10  C   UNK N   1       7.410  -3.209  -0.225  0.00  0.00     0.109 A 
HETATM   11  N   UNK N   1       8.051  -1.908  -0.157  0.00  0.00    -0.325 N 
HETATM   12  C   UNK N   1       7.732  -3.895  -1.539  0.00  0.00     0.049 C 
HETATM   13  C   UNK N   1       7.820  -4.069   0.955  0.00  0.00     0.049 C 
HETATM   14  C   UNK N   1       7.109  -0.952  -0.062  0.00  0.00     0.331 A 
HETATM   15  H   UNK N   1       9.022  -1.750  -0.178  0.00  0.00     0.165 HD
HETATM   16  O   UNK N   1       7.384   0.237   0.003  0.00  0.00    -0.246 OA
ENDBRANCH   1   7
BRANCH   4  17
HETATM   17  C   UNK N   1       3.808   3.027   0.060  0.00  0.00     0.419 C 
HETATM   18  F   UNK N   1       3.187   3.609   1.150  0.00  0.00    -0.166 F 
HETATM   19  F   UNK N   1       5.163   3.315   0.147  0.00  0.00    -0.166 F 
HETATM   20  F   UNK N   1       3.333   3.581  -1.114  0.00  0.00    -0.166 F 
ENDBRANCH   4  17
BRANCH   5  21
HETATM   21  N   UNK N   1       1.056   1.644   0.013  0.00  0.00    -0.115 N 
HETATM   22  O   UNK N   1      -0.090   0.997   0.037  0.00  0.00    -0.532 OA
HETATM   23  O   UNK N   1       1.042   2.835  -0.054  0.00  0.00    -0.532 OA
ENDBRANCH   5  21
TORSDOF 3
