REMARK  4 active torsions:
REMARK  status: ('A' for Active; 'I' for Inactive)
REMARK    1  A    between atoms: C_7  and  C_11 
REMARK    2  A    between atoms: C_13  and  C_15 
REMARK    3  A    between atoms: C_14  and  C_16 
REMARK    4  A    between atoms: C_18  and  C_19 
ROOT
HETATM    1  O   UNK N   1       4.210  -1.442   0.000  0.00  0.00    -0.341 OA
HETATM    2  O   UNK N   1       7.359  -1.557   0.000  0.00  0.00    -0.392 OA
HETATM    3  O   UNK N   1       2.443  -1.064   0.000  0.00  0.00    -0.353 OA
HETATM    4  N   UNK N   1       5.541   1.324   0.000  0.00  0.00    -0.413 N 
HETATM    5  C   UNK N   1       5.129  -0.483   0.000  0.00  0.00     0.036 A 
HETATM    6  C   UNK N   1       5.811  -0.019   0.000  0.00  0.00     0.148 A 
HETATM    7  C   UNK N   1       4.386  -0.125   0.000  0.00  0.00     0.001 A 
HETATM    8  C   UNK N   1       5.872  -0.125   0.000  0.00  0.00     0.040 A 
HETATM    9  C   UNK N   1       6.554  -0.377   0.000  0.00  0.00     0.069 A 
HETATM   10  C   UNK N   1       5.191  -1.306   0.000  0.00  0.00    -0.011 A 
HETATM   11  C   UNK N   1       3.820  -0.720   0.000  0.00  0.00     0.110 A 
HETATM   12  C   UNK N   1       6.056   0.679   0.000  0.00  0.00     0.118 A 
HETATM   13  C   UNK N   1       4.202   0.679   0.000  0.00  0.00    -0.030 A 
HETATM   14  C   UNK N   1       6.615  -1.199   0.000  0.00  0.00     0.143 A 
HETATM   15  C   UNK N   1       4.716   1.324   0.000  0.00  0.00     0.155 A 
HETATM   16  C   UNK N   1       5.934  -1.664   0.000  0.00  0.00     0.002 A 
HETATM   17  C   UNK N   1       3.037  -0.490   0.000  0.00  0.00     0.102 A 
HETATM   18  C   UNK N   1       3.410   0.879   0.000  0.00  0.00     0.012 A 
HETATM   19  C   UNK N   1       2.833   0.301   0.000  0.00  0.00     0.040 A 
HETATM   20  C   UNK N   1       5.899   2.067   0.000  0.00  0.00     0.143 A 
HETATM   21  C   UNK N   1       1.650  -0.837   0.000  0.00  0.00     0.210 A 
HETATM   22  H   UNK N   1       7.431  -2.525   0.000  0.00  0.00     0.210 HD
ENDROOT
TORSDOF 4
