REMARK  9 active torsions:
REMARK  status: ('A' for Active; 'I' for Inactive)
REMARK    1  A    between atoms: O_2  and  C_20 
REMARK    2  A    between atoms: N_3  and  C_14 
REMARK    3  A    between atoms: C_12  and  C_13 
REMARK    4  A    between atoms: C_13  and  C_15 
REMARK    5  A    between atoms: C_14  and  C_17 
REMARK    6  A    between atoms: C_15  and  C_18 
REMARK    7  A    between atoms: C_16  and  C_20 
REMARK    8  A    between atoms: C_23  and  C_27 
REMARK    9  A    between atoms: C_28  and  C_32 
ROOT
HETATM    1  C   UNK N   1       5.420  -0.025  -0.076  0.00  0.00    -0.040 A 
HETATM    2  C   UNK N   1       5.687  -1.383  -0.212  0.00  0.00     0.010 A 
HETATM    3  C   UNK N   1       6.488   0.860   0.065  0.00  0.00     0.010 A 
HETATM    4  C   UNK N   1       8.097  -0.950  -0.056  0.00  0.00    -0.025 A 
HETATM    5  C   UNK N   1       7.010  -1.844  -0.197  0.00  0.00     0.013 A 
HETATM    6  C   UNK N   1       7.801   0.400   0.078  0.00  0.00     0.013 A 
ENDROOT
BRANCH   1   7
HETATM    7  C   UNK N   1       4.062   0.604  -0.062  0.00  0.00     0.169 C 
BRANCH   7   8
HETATM    8  N   UNK N   1       2.756  -0.082  -0.054  0.00  0.00    -0.331 N 
HETATM    9  C   UNK N   1       1.637   0.671   0.050  0.00  0.00     0.085 A 
HETATM   10  N   UNK N   1       0.506  -0.068   0.040  0.00  0.00    -0.335 N 
HETATM   11  C   UNK N   1       0.929  -1.339  -0.080  0.00  0.00     0.130 A 
ATOM     12  HN  UNK N   1      -0.455   0.265   0.109  1.00  0.00     0.168 HD
HETATM   13 Cl   UNK N   1      -0.151  -2.721  -0.142  0.00  0.00    -0.062 Cl
HETATM   14  C   UNK N   1       2.309  -1.361  -0.142  0.00  0.00     0.075 A 
BRANCH   9  15
HETATM   15  C   UNK N   1       1.683   2.169   0.149  0.00  0.00     0.076 C 
BRANCH  15  16
HETATM   16  C   UNK N   1       0.346   2.870   0.092  0.00  0.00     0.007 C 
BRANCH  16  17
HETATM   17  C   UNK N   1       0.636   4.357   0.031  0.00  0.00    -0.004 C 
HETATM   18  C   UNK N   1      -0.654   5.143  -0.013  0.00  0.00     0.005 C 
ENDBRANCH  16  17
ENDBRANCH  15  16
ENDBRANCH   9  15
BRANCH  14  19
HETATM   19  C   UNK N   1       3.109  -2.609  -0.307  0.00  0.00     0.224 C 
BRANCH  19  20
HETATM   20  O   UNK N   1       3.646  -3.002   0.918  0.00  0.00    -0.395 OA
HETATM   21  H   UNK N   1       3.596  -3.463   1.770  0.00  0.00     0.209 HD
ENDBRANCH  19  20
ENDBRANCH  14  19
ENDBRANCH   7   8
ENDBRANCH   1   7
BRANCH   4  22
HETATM   22  C   UNK N   1       9.504  -1.492  -0.033  0.00  0.00    -0.012 A 
HETATM   23  C   UNK N   1      10.752  -0.746   0.007  0.00  0.00     0.021 A 
HETATM   24  C   UNK N   1      11.955  -1.478   0.037  0.00  0.00     0.016 A 
HETATM   25  C   UNK N   1      11.985  -2.866   0.027  0.00  0.00     0.001 A 
HETATM   26  C   UNK N   1      10.801  -3.578  -0.018  0.00  0.00     0.001 A 
HETATM   27  C   UNK N   1       9.589  -2.901  -0.048  0.00  0.00     0.013 A 
BRANCH  23  28
HETATM   28  C   UNK N   1      10.961   0.739   0.003  0.00  0.00     0.145 A 
HETATM   29  N   UNK N   1      10.033   1.707  -0.072  0.00  0.00    -0.271 N 
HETATM   30  N   UNK N   1      10.692   2.852  -0.059  0.00  0.00    -0.225 N 
ATOM     31  HN  UNK N   1       9.022   1.583  -0.129  1.00  0.00     0.190 HD
HETATM   32  N   UNK N   1      11.990   2.609   0.018  0.00  0.00    -0.005 NA
HETATM   33  H   UNK N   1      10.281   3.746  -0.099  0.00  0.00     0.205 HD
HETATM   34  N   UNK N   1      12.186   1.304   0.056  0.00  0.00    -0.266 N 
ATOM     35  HN  UNK N   1      13.082   0.820   0.113  1.00  0.00     0.186 HD
ENDBRANCH  23  28
ENDBRANCH   4  22
TORSDOF 9
