REMARK  6 active torsions:
REMARK  status: ('A' for Active; 'I' for Inactive)
REMARK    1  A    between atoms: O_4  and  C_28 
REMARK    2  A    between atoms: O_4  and  C_29 
REMARK    3  A    between atoms: N_6  and  C_9 
REMARK       I    between atoms: N_7  and  C_15 
REMARK    4  A    between atoms: N_8  and  C_23 
REMARK       I    between atoms: N_8  and  C_28 
REMARK    5  A    between atoms: C_9  and  C_12 
REMARK    6  A    between atoms: C_12  and  C_15 
ROOT
HETATM    1  S   UNK N   1       3.982  -4.452   0.173  0.00  0.00    -0.086 SA
HETATM    2  O   UNK N   1       5.426   0.753   0.111  0.00  0.00    -0.273 OA
HETATM    3  N   UNK N   1       4.207  -1.193   0.172  0.00  0.00    -0.280 N 
HETATM    4  C   UNK N   1       4.327   0.216   0.142  0.00  0.00     0.230 C 
HETATM    5  C   UNK N   1       5.420  -2.015   0.158  0.00  0.00     0.062 A 
HETATM    6  C   UNK N   1       2.885  -1.826   0.211  0.00  0.00     0.059 A 
HETATM    7  C   UNK N   1       5.430  -3.434   0.160  0.00  0.00     0.033 A 
HETATM    8  C   UNK N   1       2.692  -3.235   0.216  0.00  0.00     0.033 A 
HETATM    9  C   UNK N   1       6.680  -1.393   0.136  0.00  0.00     0.061 A 
HETATM   10  C   UNK N   1       1.714  -1.038   0.249  0.00  0.00     0.031 A 
HETATM   11  C   UNK N   1       6.653  -4.133   0.142  0.00  0.00     0.023 A 
HETATM   12  C   UNK N   1       7.885  -2.069   0.116  0.00  0.00     0.039 A 
HETATM   13  C   UNK N   1       1.394  -3.769   0.252  0.00  0.00     0.021 A 
HETATM   14  C   UNK N   1       7.879  -3.461   0.121  0.00  0.00     0.031 A 
HETATM   15  C   UNK N   1       0.433  -1.577   0.284  0.00  0.00     0.002 A 
HETATM   16  C   UNK N   1       0.272  -2.951   0.285  0.00  0.00     0.002 A 
ENDROOT
BRANCH   4  17
HETATM   17  C   UNK N   1       3.168   1.172   0.133  0.00  0.00     0.134 C 
BRANCH  17  18
HETATM   18  C   UNK N   1       3.134   1.911  -1.202  0.00  0.00     0.282 C 
BRANCH  18  19
HETATM   19  N   UNK N   1       1.962   2.772  -1.374  0.00  0.00     0.093 N 
HETATM   20  C   UNK N   1       2.062   4.032  -0.618  0.00  0.00     0.298 C 
HETATM   21  C   UNK N   1       1.310   3.958   0.712  0.00  0.00     0.198 C 
HETATM   22  O   UNK N   1      -0.010   3.555   0.474  0.00  0.00    -0.388 OA
HETATM   23  C   UNK N   1       0.079   2.196   0.145  0.00  0.00     0.198 C 
HETATM   24  C   UNK N   1       0.678   2.057  -1.257  0.00  0.00     0.298 C 
ENDBRANCH  18  19
ENDBRANCH  17  18
ENDBRANCH   4  17
BRANCH  12  25
HETATM   25  N   UNK N   1       9.064  -1.279   0.088  0.00  0.00    -0.303 N 
HETATM   26  C   UNK N   1      10.355  -1.681   0.060  0.00  0.00     0.365 C 
HETATM   27  O   UNK N   1      10.650  -2.869   0.058  0.00  0.00    -0.238 OA
HETATM   28  H   UNK N   1       8.922  -0.304   0.090  0.00  0.00     0.171 HD
BRANCH  26  29
HETATM   29  O   UNK N   1      11.313  -0.725   0.034  0.00  0.00    -0.304 OA
BRANCH  29  30
HETATM   30  C   UNK N   1      12.660  -0.984   0.003  0.00  0.00     0.176 C 
HETATM   31  C   UNK N   1      13.404   0.336  -0.016  0.00  0.00     0.034 C 
ENDBRANCH  29  30
ENDBRANCH  26  29
ENDBRANCH  12  25
TORSDOF 6
