REMARK  16 active torsions:
REMARK  status: ('A' for Active; 'I' for Inactive)
REMARK    1  A    between atoms: S_1  and  O_8 
REMARK    2  A    between atoms: S_1  and  O_14 
REMARK    3  A    between atoms: S_2  and  O_9 
REMARK    4  A    between atoms: S_2  and  O_15 
REMARK    5  A    between atoms: S_3  and  O_10 
REMARK    6  A    between atoms: S_3  and  O_16 
REMARK    7  A    between atoms: S_4  and  O_11 
REMARK    8  A    between atoms: S_4  and  O_17 
REMARK    9  A    between atoms: C_26  and  O_5 
REMARK   10  A    between atoms: C_29  and  O_5 
REMARK   11  A    between atoms: C_27  and  O_8 
REMARK   12  A    between atoms: C_28  and  O_9 
REMARK   13  A    between atoms: C_30  and  O_10 
REMARK   14  A    between atoms: C_31  and  O_11 
REMARK   15  A    between atoms: C_32  and  O_12 
REMARK   16  A    between atoms: C_34  and  O_13 
ROOT
HETATM    1  O   UNK N   1       6.407  -0.881   0.221  0.00  0.00    -0.348 OA
ENDROOT
BRANCH   1   2
HETATM    2  C   UNK N   1       5.259  -0.793   1.021  0.00  0.00     0.181 C 
HETATM    3  C   UNK N   1       4.165  -0.017   0.274  0.00  0.00     0.210 C 
HETATM    4  C   UNK N   1       3.030  -0.931  -0.204  0.00  0.00     0.232 C 
HETATM    5  C   UNK N   1       3.556  -2.298  -0.682  0.00  0.00     0.289 C 
HETATM    6  O   UNK N   1       4.524  -2.926   0.160  0.00  0.00    -0.356 OA
HETATM    7  C   UNK N   1       4.757  -2.204   1.350  0.00  0.00     0.205 C 
BRANCH   3   8
HETATM    8  O   UNK N   1       3.637   0.965   1.119  0.00  0.00    -0.253 OA
BRANCH   8   9
HETATM    9  S   UNK N   1       3.737   2.464   0.273  0.00  0.00     0.240 S 
HETATM   10  O   UNK N   1       3.884   3.588   1.309  0.00  0.00    -0.579 OA
HETATM   11  O   UNK N   1       5.041   2.547  -0.534  0.00  0.00    -0.579 OA
BRANCH   9  12
HETATM   12  O   UNK N   1       2.409   2.844  -0.746  0.00  0.00    -0.274 OA
HETATM   13  H   UNK N   1       2.220   3.601  -1.322  0.00  0.00     0.234 HD
ENDBRANCH   9  12
ENDBRANCH   8   9
ENDBRANCH   3   8
BRANCH   4  14
HETATM   14  O   UNK N   1       2.298  -0.302  -1.220  0.00  0.00    -0.251 OA
BRANCH  14  15
HETATM   15  S   UNK N   1       0.692  -0.105  -0.625  0.00  0.00     0.241 S 
HETATM   16  O   UNK N   1       0.706   0.432   0.816  0.00  0.00    -0.579 OA
HETATM   17  O   UNK N   1       0.032   1.030  -1.422  0.00  0.00    -0.579 OA
BRANCH  15  18
HETATM   18  O   UNK N   1      -0.321  -1.487  -0.726  0.00  0.00    -0.274 OA
HETATM   19  H   UNK N   1      -1.284  -1.381  -0.784  0.00  0.00     0.234 HD
ENDBRANCH  15  18
ENDBRANCH  14  15
ENDBRANCH   4  14
BRANCH   5  20
HETATM   20  O   UNK N   1       2.489  -3.169  -0.891  0.00  0.00    -0.368 OA
HETATM   21  H   UNK N   1       1.592  -2.828  -1.036  0.00  0.00     0.212 HD
ENDBRANCH   5  20
ENDBRANCH   1   2
BRANCH   1  22
HETATM   22  C   UNK N   1       7.494  -0.629   1.077  0.00  0.00     0.293 C 
HETATM   23  O   UNK N   1       7.999  -1.830   1.635  0.00  0.00    -0.356 OA
HETATM   24  C   UNK N   1       8.338  -2.743   0.599  0.00  0.00     0.205 C 
HETATM   25  C   UNK N   1       9.215  -2.129  -0.508  0.00  0.00     0.175 C 
HETATM   26  C   UNK N   1       9.753  -0.778  -0.055  0.00  0.00     0.210 C 
HETATM   27  C   UNK N   1       8.609   0.158   0.363  0.00  0.00     0.232 C 
BRANCH  25  28
HETATM   28  O   UNK N   1      10.266  -2.998  -0.804  0.00  0.00    -0.391 OA
HETATM   29  H   UNK N   1      10.109  -3.932  -1.010  0.00  0.00     0.210 HD
ENDBRANCH  25  28
BRANCH  26  30
HETATM   30  O   UNK N   1      10.536  -0.182  -1.049  0.00  0.00    -0.253 OA
BRANCH  30  31
HETATM   31  S   UNK N   1      12.115   0.029  -0.381  0.00  0.00     0.240 S 
HETATM   32  O   UNK N   1      12.705   1.326  -0.953  0.00  0.00    -0.579 OA
HETATM   33  O   UNK N   1      12.044   0.308   1.130  0.00  0.00    -0.579 OA
BRANCH  31  34
HETATM   34  O   UNK N   1      13.227  -1.243  -0.681  0.00  0.00    -0.274 OA
HETATM   35  H   UNK N   1      12.918  -2.147  -0.851  0.00  0.00     0.234 HD
ENDBRANCH  31  34
ENDBRANCH  30  31
ENDBRANCH  26  30
BRANCH  27  36
HETATM   36  O   UNK N   1       9.123   1.136   1.222  0.00  0.00    -0.251 OA
BRANCH  36  37
HETATM   37  S   UNK N   1       9.104   2.615   0.338  0.00  0.00     0.241 S 
HETATM   38  O   UNK N   1       9.671   3.723   1.238  0.00  0.00    -0.579 OA
HETATM   39  O   UNK N   1       7.659   3.061   0.086  0.00  0.00    -0.579 OA
BRANCH  37  40
HETATM   40  O   UNK N   1       9.979   2.633  -1.138  0.00  0.00    -0.274 OA
HETATM   41  H   UNK N   1      10.235   2.209  -1.973  0.00  0.00     0.234 HD
ENDBRANCH  37  40
ENDBRANCH  36  37
ENDBRANCH  27  36
ENDBRANCH   1  22
TORSDOF 16
