REMARK  9 active torsions:
REMARK  status: ('A' for Active; 'I' for Inactive)
REMARK    1  A    between atoms: O_3  and  C_17 
REMARK    2  A    between atoms: O_3  and  C_24 
REMARK    3  A    between atoms: O_4  and  C_19 
REMARK    4  A    between atoms: C_12  and  N_9 
REMARK       I    between atoms: N_9  and  C_18 
REMARK    5  A    between atoms: C_20  and  N_10 
REMARK    6  A    between atoms: C_14  and  C_19 
REMARK    7  A    between atoms: C_15  and  C_17 
REMARK    8  A    between atoms: C_18  and  C_20 
REMARK    9  A    between atoms: C_20  and  C_21 
ROOT
HETATM    1  S   UNK N   1       3.956  -1.664   1.198  0.00  0.00    -0.136 SA
HETATM    2  O   UNK N   1       6.905   1.454   0.847  0.00  0.00    -0.271 OA
HETATM    3  N   UNK N   1       5.231   0.293  -0.155  0.00  0.00    -0.293 N 
HETATM    4  C   UNK N   1       5.237  -1.140   0.013  0.00  0.00     0.187 A 
HETATM    5  C   UNK N   1       6.669  -0.972   0.731  0.00  0.00     0.210 A 
HETATM    6  C   UNK N   1       6.432   0.442   0.351  0.00  0.00     0.251 A 
HETATM    7  C   UNK N   1       4.129   1.211   0.003  0.00  0.00     0.117 C 
HETATM    8  C   UNK N   1       2.894   0.689   0.265  0.00  0.00    -0.013 C 
HETATM    9  C   UNK N   1       2.684  -0.798   0.240  0.00  0.00     0.115 C 
ENDROOT
BRANCH   5  10
HETATM   10  N   UNK N   1       7.778  -1.566   0.022  0.00  0.00    -0.343 N 
HETATM   11  C   UNK N   1       8.998  -1.618   0.625  0.00  0.00     0.245 C 
HETATM   12  O   UNK N   1       9.173  -1.059   1.700  0.00  0.00    -0.271 OA
HETATM   13  H   UNK N   1       7.654  -1.928  -0.885  0.00  0.00     0.163 HD
BRANCH  11  14
HETATM   14  C   UNK N   1      10.121  -2.448   0.055  0.00  0.00     0.201 C 
BRANCH  14  15
HETATM   15  N   UNK N   1       9.732  -3.155  -1.155  0.00  0.00    -0.415 N 
HETATM   16  H   UNK N   1       9.166  -3.166  -2.003  0.00  0.00     0.151 HD
HETATM   17  H   UNK N   1      10.259  -4.028  -1.155  0.00  0.00     0.151 HD
ENDBRANCH  14  15
BRANCH  14  18
HETATM   18  C   UNK N   1      11.437  -1.743  -0.138  0.00  0.00    -0.027 A 
HETATM   19  C   UNK N   1      11.531  -0.343  -0.175  0.00  0.00     0.010 A 
HETATM   20  C   UNK N   1      12.777   0.274  -0.334  0.00  0.00     0.001 A 
HETATM   21  C   UNK N   1      13.934  -0.503  -0.443  0.00  0.00     0.000 A 
HETATM   22  C   UNK N   1      13.847  -1.896  -0.399  0.00  0.00     0.001 A 
HETATM   23  C   UNK N   1      12.602  -2.514  -0.250  0.00  0.00     0.010 A 
ENDBRANCH  14  18
ENDBRANCH  11  14
ENDBRANCH   5  10
BRANCH   7  24
HETATM   24  C   UNK N   1       4.369   2.699  -0.036  0.00  0.00     0.194 C 
HETATM   25  O   UNK N   1       5.444   3.135  -0.410  0.00  0.00    -0.645 OA
BRANCH  24  26
HETATM   26  O   UNK N   1       3.394   3.575   0.275  0.00  0.00    -0.772 OA
HETATM   27  H   UNK N   1       3.583   4.467   0.492  0.00  0.00     0.167 HD
ENDBRANCH  24  26
ENDBRANCH   7  24
BRANCH   8  28
HETATM   28  C   UNK N   1       1.709   1.525   0.649  0.00  0.00     0.216 C 
BRANCH  28  29
HETATM   29  O   UNK N   1       0.998   1.950  -0.447  0.00  0.00    -0.317 OA
BRANCH  29  30
HETATM   30  C   UNK N   1      -0.300   1.609  -0.635  0.00  0.00     0.255 C 
HETATM   31  O   UNK N   1      -0.934   2.139  -1.531  0.00  0.00    -0.266 OA
HETATM   32  C   UNK N   1      -0.977   0.592   0.234  0.00  0.00     0.126 C 
ENDBRANCH  29  30
ENDBRANCH  28  29
ENDBRANCH   8  28
TORSDOF 9
