REMARK  5 active torsions:
REMARK  status: ('A' for Active; 'I' for Inactive)
REMARK    1  A    between atoms: O_1  and  C_19 
REMARK    2  A    between atoms: N_2  and  C_6 
REMARK    3  A    between atoms: N_2  and  C_10 
REMARK    4  A    between atoms: N_2  and  C_11 
REMARK    5  A    between atoms: C_6  and  C_7 
ROOT
HETATM    1  N   UNK N   1       3.447   0.232  -0.410  0.00  0.00    -0.340 N 
ENDROOT
BRANCH   1   2
HETATM    2  C   UNK N   1       2.383   0.973  -1.089  0.00  0.00     0.205 C 
BRANCH   2   3
HETATM    3  C   UNK N   1       1.812   2.120  -0.298  0.00  0.00     0.091 A 
HETATM    4  N   UNK N   1       0.504   2.138   0.176  0.00  0.00    -0.377 N 
HETATM    5  C   UNK N   1       0.248   3.420   0.777  0.00  0.00     0.140 A 
HETATM    6  H   UNK N   1      -0.140   1.397   0.111  0.00  0.00     0.160 HD
HETATM    7  C   UNK N   1       1.593   4.167   0.591  0.00  0.00     0.140 A 
HETATM    8  N   UNK N   1       2.426   3.214  -0.104  0.00  0.00    -0.377 N 
ATOM      9  HN  UNK N   1       3.385   3.397  -0.401  1.00  0.00     0.160 HD
ENDBRANCH   2   3
ENDBRANCH   1   2
BRANCH   1  10
HETATM   10  C   UNK N   1       4.748   0.852  -0.247  0.00  0.00     0.035 A 
HETATM   11  C   UNK N   1       5.825   0.180   0.365  0.00  0.00     0.030 A 
HETATM   12  C   UNK N   1       7.078   0.783   0.493  0.00  0.00     0.009 A 
HETATM   13  C   UNK N   1       7.281   2.076   0.014  0.00  0.00    -0.062 A 
HETATM   14  C   UNK N   1       6.231   2.763  -0.595  0.00  0.00     0.009 A 
HETATM   15  C   UNK N   1       8.613   2.719   0.148  0.00  0.00     0.048 C 
HETATM   16  C   UNK N   1       4.981   2.153  -0.729  0.00  0.00     0.030 A 
ENDBRANCH   1  10
BRANCH   1  17
HETATM   17  C   UNK N   1       3.178  -1.153  -0.079  0.00  0.00     0.037 A 
HETATM   18  C   UNK N   1       1.899  -1.700  -0.312  0.00  0.00     0.066 A 
HETATM   19  C   UNK N   1       1.627  -3.044  -0.037  0.00  0.00     0.067 A 
HETATM   20  C   UNK N   1       2.629  -3.870   0.474  0.00  0.00     0.036 A 
HETATM   21  C   UNK N   1       3.901  -3.351   0.714  0.00  0.00     0.005 A 
HETATM   22  C   UNK N   1       4.170  -2.009   0.440  0.00  0.00     0.030 A 
BRANCH  19  23
HETATM   23  O   UNK N   1       0.403  -3.543  -0.267  0.00  0.00    -0.361 OA
HETATM   24  H   UNK N   1      -0.326  -2.977  -0.428  0.00  0.00     0.217 HD
ENDBRANCH  19  23
ENDBRANCH   1  17
TORSDOF 5
