REMARK  5 active torsions:
REMARK  status: ('A' for Active; 'I' for Inactive)
REMARK    1  A    between atoms: C_9  and  O_2 
REMARK    2  A    between atoms: O_3  and  C_18 
REMARK    3  A    between atoms: O_3  and  C_27 
REMARK    4  A    between atoms: C_12  and  C_18 
REMARK    5  A    between atoms: C_27  and  C_28 
ROOT
HETATM    1  N   UNK N   1       6.174   0.733  -0.127  0.00  0.00     0.092 N 
HETATM    2  N   UNK N   1       7.364  -5.178   0.078  0.00  0.00    -0.360 N 
HETATM    3  C   UNK N   1       4.699  -1.341  -0.002  0.00  0.00     0.120 C 
HETATM    4  C   UNK N   1       6.130  -0.746  -0.318  0.00  0.00     0.265 C 
HETATM    5  C   UNK N   1       3.774  -0.770  -1.104  0.00  0.00     0.054 C 
HETATM    6  C   UNK N   1       4.036   0.704  -1.431  0.00  0.00     0.042 C 
HETATM    7  C   UNK N   1       7.320  -1.484   0.370  0.00  0.00     0.080 C 
HETATM    8  C   UNK N   1       4.714  -2.862  -0.096  0.00  0.00    -0.009 A 
HETATM    9  C   UNK N   1       4.882   1.406  -0.369  0.00  0.00     0.279 C 
HETATM   10  C   UNK N   1       5.919  -3.515   0.000  0.00  0.00     0.008 A 
HETATM   11  C   UNK N   1       7.142  -2.961   0.199  0.00  0.00    -0.027 A 
HETATM   12  C   UNK N   1       6.065  -4.858  -0.064  0.00  0.00     0.045 A 
HETATM   13  C   UNK N   1       6.552   1.095   1.235  0.00  0.00     0.310 C 
HETATM   14  C   UNK N   1       3.560  -3.664  -0.244  0.00  0.00     0.011 A 
HETATM   15  C   UNK N   1       8.052  -4.015   0.251  0.00  0.00     0.099 A 
HETATM   16  C   UNK N   1       4.957  -5.692  -0.236  0.00  0.00     0.030 A 
HETATM   17  C   UNK N   1       3.686  -5.076  -0.322  0.00  0.00     0.003 A 
HETATM   18  C   UNK N   1       7.937  -6.513   0.072  0.00  0.00     0.155 C 
ENDROOT
BRANCH   6  19
HETATM   19  C   UNK N   1       2.733   1.438  -1.723  0.00  0.00     0.185 C 
BRANCH  19  20
HETATM   20  O   UNK N   1       1.699   1.002  -0.916  0.00  0.00    -0.317 OA
BRANCH  20  21
HETATM   21  C   UNK N   1       0.845   1.811  -0.237  0.00  0.00     0.294 C 
HETATM   22  O   UNK N   1      -0.232   1.352   0.112  0.00  0.00    -0.259 OA
BRANCH  21  23
HETATM   23  C   UNK N   1       1.156   3.230   0.085  0.00  0.00     0.056 A 
HETATM   24  C   UNK N   1       2.457   3.734  -0.010  0.00  0.00     0.039 A 
HETATM   25  C   UNK N   1       2.723   5.058   0.329  0.00  0.00     0.027 A 
HETATM   26 Br   UNK N   1       4.505   5.724   0.250  0.00  0.00    -0.050 Br
HETATM   27  C   UNK N   1       1.677   5.880   0.748  0.00  0.00     0.106 A 
HETATM   28  N   UNK N   1       0.414   5.383   0.836  0.00  0.00    -0.373 N 
HETATM   29  C   UNK N   1       0.139   4.086   0.531  0.00  0.00     0.105 A 
ATOM     30  HN  UNK N   1      -0.343   5.996   1.137  1.00  0.00     0.164 HD
ENDBRANCH  21  23
ENDBRANCH  20  21
ENDBRANCH  19  20
ENDBRANCH   6  19
BRANCH   3  31
HETATM   31  O   UNK N   1       4.324  -0.930   1.308  0.00  0.00    -0.378 OA
HETATM   32  C   UNK N   1       2.958  -1.171   1.541  0.00  0.00     0.203 C 
ENDBRANCH   3  31
TORSDOF 5
