REMARK  4 active torsions:
REMARK  status: ('A' for Active; 'I' for Inactive)
REMARK    1  A    between atoms: O_3  and  C_12 
REMARK    2  A    between atoms: C_9  and  N_5 
REMARK    3  A    between atoms: N_8  and  C_16 
REMARK    4  A    between atoms: C_11  and  C_12 
ROOT
HETATM    1  O   UNK N   1       0.973   1.239   0.334  0.00  0.00    -0.246 OA
HETATM    2  N   UNK N   1       3.151   0.656   0.148  0.00  0.00    -0.281 N 
HETATM    3  N   UNK N   1       2.414   2.924   0.040  0.00  0.00    -0.295 N 
ATOM      4  HN  UNK N   1       1.654   3.603   0.059  1.00  0.00     0.172 HD
HETATM    5  C   UNK N   1       4.439   1.079  -0.018  0.00  0.00     0.102 A 
HETATM    6  C   UNK N   1       2.130   1.590   0.178  0.00  0.00     0.330 A 
HETATM    7  C   UNK N   1       4.732   2.434  -0.156  0.00  0.00     0.065 A 
HETATM    8  C   UNK N   1       3.690   3.353  -0.121  0.00  0.00     0.103 A 
ENDROOT
BRANCH   2   9
HETATM    9  C   UNK N   1       2.866  -0.775   0.350  0.00  0.00     0.242 C 
HETATM   10  O   UNK N   1       4.023  -1.563   0.310  0.00  0.00    -0.348 OA
HETATM   11  C   UNK N   1       3.577  -2.891   0.438  0.00  0.00     0.209 C 
HETATM   12  S   UNK N   1       1.898  -3.076  -0.271  0.00  0.00    -0.131 SA
HETATM   13  C   UNK N   1       1.927  -1.331  -0.685  0.00  0.00     0.131 C 
BRANCH  11  14
HETATM   14  C   UNK N   1       4.536  -3.808  -0.301  0.00  0.00     0.207 C 
BRANCH  14  15
HETATM   15  O   UNK N   1       4.240  -5.139  -0.006  0.00  0.00    -0.398 OA
HETATM   16  H   UNK N   1       3.336  -5.424   0.199  0.00  0.00     0.209 HD
ENDBRANCH  14  15
ENDBRANCH  11  14
ENDBRANCH   2   9
BRANCH   8  17
HETATM   17  N   UNK N   1       3.959   4.730  -0.242  0.00  0.00    -0.385 N 
HETATM   18  H   UNK N   1       4.887   5.049  -0.327  0.00  0.00     0.157 HD
HETATM   19  H   UNK N   1       3.217   5.377  -0.242  0.00  0.00     0.157 HD
ENDBRANCH   8  17
TORSDOF 4
