REMARK  5 active torsions:
REMARK  status: ('A' for Active; 'I' for Inactive)
REMARK    1  A    between atoms: O_3  and  C_18 
REMARK    2  A    between atoms: C_14  and  N_8 
REMARK       I    between atoms: N_8  and  C_19 
REMARK    3  A    between atoms: C_13  and  C_18 
REMARK    4  A    between atoms: C_19  and  C_20 
REMARK    5  A    between atoms: C_21  and  C_23 
ROOT
HETATM    1  O   UNK N   1       2.045  -1.180  -0.126  0.00  0.00    -0.267 OA
HETATM    2  N   UNK N   1       3.770   0.032   0.571  0.00  0.00    -0.341 N 
HETATM    3  C   UNK N   1       2.471  -0.097   0.253  0.00  0.00     0.257 C 
HETATM    4  H   UNK N   1       4.022   0.416   1.441  0.00  0.00     0.163 HD
ENDROOT
BRANCH   2   5
HETATM    5  C   UNK N   1       4.795  -0.387  -0.346  0.00  0.00     0.210 A 
HETATM    6  C   UNK N   1       6.262  -0.246   0.310  0.00  0.00     0.183 A 
HETATM    7  S   UNK N   1       7.860   0.170   1.077  0.00  0.00    -0.129 SA
HETATM    8  N   UNK N   1       6.401  -1.629   0.052  0.00  0.00    -0.318 N 
HETATM    9  C   UNK N   1       8.672  -1.054  -0.046  0.00  0.00     0.033 C 
HETATM   10  C   UNK N   1       7.671  -2.236  -0.233  0.00  0.00     0.204 C 
HETATM   11  C   UNK N   1       8.888  -0.373  -1.389  0.00  0.00     0.029 C 
HETATM   12  C   UNK N   1      10.046  -1.440   0.472  0.00  0.00     0.029 C 
HETATM   13  C   UNK N   1       5.201  -1.814  -0.410  0.00  0.00     0.247 A 
HETATM   14  O   UNK N   1       4.849  -2.711  -1.159  0.00  0.00    -0.271 OA
BRANCH  10  15
HETATM   15  C   UNK N   1       7.832  -3.500   0.577  0.00  0.00     0.165 C 
HETATM   16  O   UNK N   1       8.731  -3.630   1.390  0.00  0.00    -0.648 OA
BRANCH  15  17
HETATM   17  O   UNK N   1       6.990  -4.527   0.354  0.00  0.00    -0.775 OA
HETATM   18  H   UNK N   1       6.078  -4.377   0.199  0.00  0.00     0.167 HD
ENDBRANCH  15  17
ENDBRANCH  10  15
ENDBRANCH   2   5
BRANCH   3  19
HETATM   19  C   UNK N   1       1.597   1.109   0.170  0.00  0.00     0.092 A 
HETATM   20  C   UNK N   1       1.908   2.487   0.129  0.00  0.00     0.083 A 
HETATM   21  N   UNK N   1       0.755   3.167  -0.037  0.00  0.00    -0.259 N 
HETATM   22  O   UNK N   1      -0.222   2.307  -0.105  0.00  0.00    -0.241 OA
ATOM     23  HN  UNK N   1       0.663   4.181  -0.099  1.00  0.00     0.195 HD
HETATM   24  C   UNK N   1       0.222   1.081   0.003  0.00  0.00     0.090 A 
HETATM   25  C   UNK N   1      -0.658  -0.121  -0.065  0.00  0.00     0.080 C 
BRANCH  20  26
HETATM   26  C   UNK N   1       3.216   3.217   0.152  0.00  0.00    -0.006 A 
HETATM   27  C   UNK N   1       3.217   4.613  -0.011  0.00  0.00     0.014 A 
HETATM   28  C   UNK N   1       4.418   5.332  -0.035  0.00  0.00     0.001 A 
HETATM   29  C   UNK N   1       5.636   4.664   0.103  0.00  0.00     0.000 A 
HETATM   30  C   UNK N   1       5.651   3.281   0.266  0.00  0.00     0.001 A 
HETATM   31  C   UNK N   1       4.448   2.572   0.287  0.00  0.00     0.014 A 
ENDBRANCH  20  26
ENDBRANCH   3  19
TORSDOF 5
