REMARK  16 active torsions:
REMARK  status: ('A' for Active; 'I' for Inactive)
REMARK    1  A    between atoms: P_1  and  O_5 
REMARK    2  A    between atoms: P_1  and  O_6 
REMARK    3  A    between atoms: P_1  and  C_30 
REMARK    4  A    between atoms: O_2  and  C_29 
REMARK    5  A    between atoms: O_2  and  C_30 
REMARK    6  A    between atoms: O_3  and  C_26 
REMARK    7  A    between atoms: O_3  and  C_32 
REMARK    8  A    between atoms: O_4  and  C_27 
REMARK    9  A    between atoms: O_4  and  C_33 
REMARK   10  A    between atoms: O_5  and  C_32 
REMARK   11  A    between atoms: O_6  and  C_33 
REMARK   12  A    between atoms: N_10  and  C_28 
REMARK   13  A    between atoms: N_17  and  C_36 
REMARK   14  A    between atoms: C_18  and  C_26 
REMARK   15  A    between atoms: C_19  and  C_27 
REMARK   16  A    between atoms: C_28  and  C_29 
ROOT
HETATM    1  P   UNK N   1       5.845  -1.846  -0.305  0.00  0.00     0.355 P 
HETATM    2  O   UNK N   1       5.165  -1.996  -1.689  0.00  0.00    -0.256 OA
ENDROOT
BRANCH   1   3
HETATM    3  O   UNK N   1       7.074  -0.788  -0.967  0.00  0.00    -0.286 OA
BRANCH   3   4
HETATM    4  C   UNK N   1       7.888  -0.365   0.091  0.00  0.00     0.358 C 
BRANCH   4   5
HETATM    5  O   UNK N   1       7.612   0.947   0.394  0.00  0.00    -0.294 OA
BRANCH   5   6
HETATM    6  C   UNK N   1       8.442   2.025   0.358  0.00  0.00     0.268 C 
HETATM    7  O   UNK N   1       7.996   3.091   0.758  0.00  0.00    -0.264 OA
BRANCH   6   8
HETATM    8  C   UNK N   1       9.885   2.002  -0.137  0.00  0.00     0.037 C 
HETATM    9  C   UNK N   1      10.374   0.675  -0.684  0.00  0.00     0.025 C 
HETATM   10  C   UNK N   1      10.043   3.030  -1.244  0.00  0.00     0.025 C 
HETATM   11  C   UNK N   1      10.799   2.393   1.009  0.00  0.00     0.025 C 
ENDBRANCH   6   8
ENDBRANCH   5   6
ENDBRANCH   4   5
ENDBRANCH   3   4
ENDBRANCH   1   3
BRANCH   1  12
HETATM   12  O   UNK N   1       6.304  -3.540  -0.311  0.00  0.00    -0.286 OA
BRANCH  12  13
HETATM   13  C   UNK N   1       7.430  -3.694   0.508  0.00  0.00     0.358 C 
BRANCH  13  14
HETATM   14  O   UNK N   1       8.524  -3.082  -0.066  0.00  0.00    -0.294 OA
BRANCH  14  15
HETATM   15  C   UNK N   1       9.790  -3.567  -0.124  0.00  0.00     0.268 C 
HETATM   16  O   UNK N   1      10.681  -2.796  -0.449  0.00  0.00    -0.264 OA
BRANCH  15  17
HETATM   17  C   UNK N   1      10.136  -5.014   0.189  0.00  0.00     0.037 C 
HETATM   18  C   UNK N   1       9.679  -5.396   1.584  0.00  0.00     0.025 C 
HETATM   19  C   UNK N   1      11.639  -5.249   0.121  0.00  0.00     0.025 C 
HETATM   20  C   UNK N   1       9.476  -5.927  -0.825  0.00  0.00     0.025 C 
ENDBRANCH  15  17
ENDBRANCH  14  15
ENDBRANCH  13  14
ENDBRANCH  12  13
ENDBRANCH   1  12
BRANCH   1  21
HETATM   21  C   UNK N   1       4.226  -1.212   0.413  0.00  0.00     0.299 C 
BRANCH  21  22
HETATM   22  O   UNK N   1       4.358  -0.190   1.375  0.00  0.00    -0.378 OA
BRANCH  22  23
HETATM   23  C   UNK N   1       4.970   0.947   0.806  0.00  0.00     0.188 C 
BRANCH  23  24
HETATM   24  C   UNK N   1       4.358   1.425  -0.509  0.00  0.00     0.157 C 
BRANCH  24  25
HETATM   25  N   UNK N   1       3.726   2.713  -0.323  0.00  0.00    -0.325 N 
HETATM   26  C   UNK N   1       2.422   2.935  -0.200  0.00  0.00     0.140 A 
HETATM   27  N   UNK N   1       1.425   2.018  -0.217  0.00  0.00    -0.336 N 
HETATM   28  C   UNK N   1       2.205   4.250  -0.030  0.00  0.00     0.122 A 
HETATM   29  C   UNK N   1       0.144   2.467  -0.055  0.00  0.00     0.183 A 
ATOM     30  HN  UNK N   1       1.623   1.026  -0.348  1.00  0.00     0.168 HD
HETATM   31  N   UNK N   1      -0.106   3.807   0.121  0.00  0.00    -0.337 N 
HETATM   32  C   UNK N   1       0.913   4.719   0.136  0.00  0.00     0.131 A 
ATOM     33  HN  UNK N   1      -1.067   4.127   0.242  1.00  0.00     0.168 HD
HETATM   34  N   UNK N   1       3.379   4.913  -0.047  0.00  0.00    -0.346 N 
HETATM   35  C   UNK N   1       4.312   3.934  -0.229  0.00  0.00     0.185 A 
ATOM     36  HN  UNK N   1       3.534   5.916   0.053  1.00  0.00     0.167 HD
BRANCH  32  37
HETATM   37  N   UNK N   1       0.649   6.090   0.322  0.00  0.00    -0.383 N 
HETATM   38  H   UNK N   1       1.386   6.729   0.452  0.00  0.00     0.157 HD
HETATM   39  H   UNK N   1      -0.282   6.412   0.322  0.00  0.00     0.157 HD
ENDBRANCH  32  37
ENDBRANCH  24  25
ENDBRANCH  23  24
ENDBRANCH  22  23
ENDBRANCH  21  22
ENDBRANCH   1  21
TORSDOF 16
