REMARK  0 active torsions:
REMARK  status: ('A' for Active; 'I' for Inactive)
ROOT
HETATM    1  N   UNK N   1       4.017  -3.574  -0.270  0.00  0.00     0.084 N 
HETATM    2  N   UNK N   1       1.408   0.570  -0.232  0.00  0.00    -0.365 N 
ATOM      3  HN  UNK N   1       1.534  -0.418  -0.452  1.00  0.00     0.165 HD
HETATM    4  C   UNK N   1       3.970  -0.718  -0.494  0.00  0.00    -0.063 C 
HETATM    5  C   UNK N   1       5.252  -1.495  -0.661  0.00  0.00     0.065 C 
HETATM    6  C   UNK N   1       2.754  -1.557  -0.800  0.00  0.00     0.065 C 
HETATM    7  C   UNK N   1       5.167  -2.779   0.168  0.00  0.00     0.276 C 
HETATM    8  C   UNK N   1       2.792  -2.836   0.027  0.00  0.00     0.276 C 
HETATM    9  C   UNK N   1       3.917   0.637  -0.153  0.00  0.00     0.004 C 
HETATM   10  C   UNK N   1       5.248   1.393   0.061  0.00  0.00    -0.017 A 
HETATM   11  C   UNK N   1       2.531   1.329  -0.039  0.00  0.00     0.049 A 
HETATM   12  C   UNK N   1       5.424   2.783  -0.188  0.00  0.00    -0.047 A 
HETATM   13  C   UNK N   1       4.324   3.652  -0.624  0.00  0.00     0.044 C 
HETATM   14  C   UNK N   1       3.389   3.675   0.537  0.00  0.00     0.045 C 
HETATM   15  C   UNK N   1       2.315   2.703   0.281  0.00  0.00    -0.030 A 
HETATM   16  C   UNK N   1       3.990  -4.788   0.524  0.00  0.00     0.309 C 
HETATM   17  C   UNK N   1       6.391   0.684   0.494  0.00  0.00     0.013 A 
HETATM   18  C   UNK N   1       6.674   3.392  -0.021  0.00  0.00     0.008 A 
HETATM   19  C   UNK N   1       1.012   3.204   0.358  0.00  0.00     0.011 A 
HETATM   20  C   UNK N   1       7.631   1.300   0.666  0.00  0.00     0.001 A 
HETATM   21  C   UNK N   1       7.774   2.655   0.402  0.00  0.00     0.001 A 
HETATM   22  C   UNK N   1      -0.081   2.378   0.143  0.00  0.00     0.018 A 
HETATM   23  C   UNK N   1       0.141   1.044  -0.151  0.00  0.00     0.088 A 
ENDROOT
TORSDOF 0
