REMARK  6 active torsions:
REMARK  status: ('A' for Active; 'I' for Inactive)
REMARK    1  A    between atoms: P_3  and  O_5 
REMARK    2  A    between atoms: P_3  and  O_6 
REMARK    3  A    between atoms: P_3  and  C_11 
REMARK    4  A    between atoms: P_4  and  O_7 
REMARK    5  A    between atoms: P_4  and  O_8 
REMARK    6  A    between atoms: P_4  and  C_11 
ROOT
HETATM    1 Cl   UNK N   1       2.259   1.367   1.674  0.00  0.00    -0.076 Cl
HETATM    2 Cl   UNK N   1       3.927  -0.995   1.862  0.00  0.00    -0.076 Cl
HETATM    3  C   UNK N   1       3.176   0.163   0.741  0.00  0.00     0.305 C 
ENDROOT
BRANCH   3   4
HETATM    4  P   UNK N   1       4.512   1.036  -0.222  0.00  0.00     0.288 P 
HETATM    5  O   UNK N   1       5.352   0.034  -1.061  0.00  0.00    -0.651 OA
BRANCH   4   6
HETATM    6  O   UNK N   1       5.688   1.823   0.784  0.00  0.00    -0.327 OA
HETATM    7  H   UNK N   1       6.397   1.474   1.346  0.00  0.00     0.220 HD
ENDBRANCH   4   6
BRANCH   4   8
HETATM    8  O   UNK N   1       3.973   2.219  -1.371  0.00  0.00    -0.327 OA
HETATM    9  H   UNK N   1       4.394   2.811  -2.013  0.00  0.00     0.220 HD
ENDBRANCH   4   8
ENDBRANCH   3   4
BRANCH   3  10
HETATM   10  P   UNK N   1       2.005  -0.752  -0.385  0.00  0.00     0.288 P 
HETATM   11  O   UNK N   1       2.748  -1.842  -1.204  0.00  0.00    -0.651 OA
BRANCH  10  12
HETATM   12  O   UNK N   1       0.775  -1.636   0.462  0.00  0.00    -0.327 OA
HETATM   13  H   UNK N   1       0.003  -1.288   0.936  0.00  0.00     0.220 HD
ENDBRANCH  10  12
BRANCH  10  14
HETATM   14  O   UNK N   1       1.191   0.208  -1.580  0.00  0.00    -0.327 OA
HETATM   15  H   UNK N   1       1.429   0.870  -2.248  0.00  0.00     0.220 HD
ENDBRANCH  10  14
ENDBRANCH   3  10
TORSDOF 6
