REMARK  8 active torsions:
REMARK  status: ('A' for Active; 'I' for Inactive)
REMARK    1  A    between atoms: O_1  and  N_10 
REMARK    2  A    between atoms: O_1  and  C_13 
REMARK    3  A    between atoms: O_2  and  N_11 
REMARK    4  A    between atoms: O_2  and  C_14 
REMARK    5  A    between atoms: O_3  and  N_12 
REMARK    6  A    between atoms: O_3  and  C_15 
REMARK    7  A    between atoms: C_13  and  C_14 
REMARK    8  A    between atoms: C_13  and  C_15 
ROOT
HETATM    1  C   UNK N   1       4.404   1.027   0.217  0.00  0.00     0.211 C 
ENDROOT
BRANCH   1   2
HETATM    2  O   UNK N   1       5.647   1.431  -0.241  0.00  0.00    -0.211 OA
BRANCH   2   3
HETATM    3  N   UNK N   1       6.779   0.785  -0.004  0.00  0.00     0.005 N 
HETATM    4  O   UNK N   1       7.913   1.303  -0.424  0.00  0.00    -0.511 OA
HETATM    5  O   UNK N   1       6.796  -0.206   0.659  0.00  0.00    -0.511 OA
ENDBRANCH   2   3
ENDBRANCH   1   2
BRANCH   1   6
HETATM    6  C   UNK N   1       3.441   2.169  -0.058  0.00  0.00     0.245 C 
BRANCH   6   7
HETATM    7  O   UNK N   1       2.276   2.040   0.660  0.00  0.00    -0.219 OA
BRANCH   7   8
HETATM    8  N   UNK N   1       1.150   1.729   0.053  0.00  0.00     0.005 N 
HETATM    9  O   UNK N   1       0.879   0.467  -0.198  0.00  0.00    -0.511 OA
HETATM   10  O   UNK N   1       0.273   2.536  -0.003  0.00  0.00    -0.511 OA
ENDBRANCH   7   8
ENDBRANCH   6   7
ENDBRANCH   1   6
BRANCH   1  11
HETATM   11  C   UNK N   1       3.904  -0.195  -0.555  0.00  0.00     0.245 C 
BRANCH  11  12
HETATM   12  O   UNK N   1       4.573  -1.340  -0.187  0.00  0.00    -0.219 OA
BRANCH  12  13
HETATM   13  N   UNK N   1       3.947  -2.489  -0.005  0.00  0.00     0.005 N 
HETATM   14  O   UNK N   1       2.648  -2.587  -0.200  0.00  0.00    -0.511 OA
HETATM   15  O   UNK N   1       4.574  -3.461   0.287  0.00  0.00    -0.511 OA
ENDBRANCH  12  13
ENDBRANCH  11  12
ENDBRANCH   1  11
TORSDOF 8
