REMARK  1 active torsions:
REMARK  status: ('A' for Active; 'I' for Inactive)
REMARK    1  A    between atoms: C_9  and  C_10 
ROOT
HETATM    1  N   UNK N   1       3.612   0.989   0.000  0.00  0.00    -0.339 N 
HETATM    2  N   UNK N   1       3.635  -1.277  -0.000  0.00  0.00    -0.339 N 
ATOM      3  HN  UNK N   1       3.966  -2.242  -0.000  1.00  0.00     0.167 HD
HETATM    4  C   UNK N   1       2.357   0.525   0.000  0.00  0.00     0.060 A 
HETATM    5  C   UNK N   1       2.369  -0.835  -0.000  0.00  0.00     0.060 A 
HETATM    6  C   UNK N   1       4.373  -0.136   0.000  0.00  0.00     0.134 A 
HETATM    7  C   UNK N   1       1.177   1.259   0.000  0.00  0.00     0.032 A 
HETATM    8  C   UNK N   1       1.197  -1.584  -0.000  0.00  0.00     0.032 A 
HETATM    9  C   UNK N   1      -0.032   0.538   0.000  0.00  0.00     0.002 A 
HETATM   10  C   UNK N   1      -0.022  -0.878  -0.000  0.00  0.00     0.002 A 
HETATM   11  H   UNK N   1       3.914   1.926   0.000  0.00  0.00     0.167 HD
ENDROOT
BRANCH   6  12
HETATM   12  C   UNK N   1       5.836  -0.114   0.000  0.00  0.00     0.083 A 
HETATM   13  N   UNK N   1       6.584  -1.271  -0.000  0.00  0.00    -0.357 N 
HETATM   14  C   UNK N   1       7.920  -1.036  -0.000  0.00  0.00     0.138 A 
ATOM     15  HN  UNK N   1       6.175  -2.206  -0.000  1.00  0.00     0.166 HD
HETATM   16  S   UNK N   1       8.147   0.601  -0.000  0.00  0.00    -0.094 SA
HETATM   17  C   UNK N   1       6.566   1.084   0.000  0.00  0.00     0.084 A 
ENDBRANCH   6  12
TORSDOF 1
