REMARK  5 active torsions:
REMARK  status: ('A' for Active; 'I' for Inactive)
REMARK    1  A    between atoms: N_1  and  C_2 
REMARK    2  A    between atoms: N_1  and  C_6 
REMARK    3  A    between atoms: C_2  and  C_3 
REMARK    4  A    between atoms: C_6  and  C_13 
REMARK    5  A    between atoms: C_16  and  C_17 
ROOT
HETATM    1  N   UNK N   1       4.007  -0.087  -0.349  0.00  0.00     0.091 N 
HETATM    2  C   UNK N   1       3.360   0.850  -1.263  0.00  0.00     0.310 C 
ENDROOT
BRANCH   1   3
HETATM    3  C   UNK N   1       4.853   0.532   0.690  0.00  0.00     0.311 C 
BRANCH   3   4
HETATM    4  C   UNK N   1       5.108   2.013   0.557  0.00  0.00    -0.019 A 
HETATM    5  C   UNK N   1       6.385   2.497   0.215  0.00  0.00    -0.018 A 
HETATM    6  C   UNK N   1       6.597   3.893   0.109  0.00  0.00    -0.025 A 
HETATM    7  C   UNK N   1       7.452   1.619  -0.027  0.00  0.00     0.013 A 
HETATM    8  C   UNK N   1       5.546   4.781   0.348  0.00  0.00     0.012 A 
HETATM    9  C   UNK N   1       7.860   4.383  -0.232  0.00  0.00     0.012 A 
HETATM   10  C   UNK N   1       4.283   4.295   0.695  0.00  0.00     0.002 A 
HETATM   11  C   UNK N   1       4.067   2.919   0.803  0.00  0.00     0.010 A 
HETATM   12  C   UNK N   1       8.915   3.498  -0.470  0.00  0.00     0.001 A 
HETATM   13  C   UNK N   1       8.712   2.119  -0.367  0.00  0.00     0.001 A 
ENDBRANCH   3   4
ENDBRANCH   1   3
BRANCH   1  14
HETATM   14  C   UNK N   1       4.812  -0.982  -1.171  0.00  0.00     0.299 C 
BRANCH  14  15
HETATM   15  C   UNK N   1       5.264  -2.213  -0.431  0.00  0.00     0.004 C 
HETATM   16  C   UNK N   1       4.482  -3.217   0.010  0.00  0.00     0.009 C 
BRANCH  16  17
HETATM   17  C   UNK N   1       3.004  -3.315  -0.021  0.00  0.00    -0.036 A 
HETATM   18  C   UNK N   1       2.417  -4.561   0.225  0.00  0.00     0.011 A 
HETATM   19  C   UNK N   1       1.025  -4.700   0.233  0.00  0.00     0.001 A 
HETATM   20  C   UNK N   1       0.210  -3.587   0.011  0.00  0.00     0.000 A 
HETATM   21  C   UNK N   1       0.787  -2.338  -0.225  0.00  0.00     0.001 A 
HETATM   22  C   UNK N   1       2.177  -2.206  -0.244  0.00  0.00     0.011 A 
ENDBRANCH  16  17
ENDBRANCH  14  15
ENDBRANCH   1  14
TORSDOF 5
