REMARK  5 active torsions:
REMARK  status: ('A' for Active; 'I' for Inactive)
REMARK    1  A    between atoms: N_2  and  C_8 
REMARK    2  A    between atoms: N_3  and  C_9 
REMARK    3  A    between atoms: C_8  and  C_10 
REMARK    4  A    between atoms: C_8  and  C_11 
REMARK    5  A    between atoms: C_9  and  C_12 
ROOT
HETATM    1  N   UNK N   1       4.725  -0.924   0.589  0.00  0.00     0.105 N 
HETATM    2  N   UNK N   1       3.758   1.665  -0.394  0.00  0.00     0.096 N 
HETATM    3  C   UNK N   1       3.458  -0.328   1.062  0.00  0.00     0.304 C 
HETATM    4  C   UNK N   1       5.627   0.122   0.098  0.00  0.00     0.304 C 
HETATM    5  C   UNK N   1       2.820   0.624   0.033  0.00  0.00     0.303 C 
HETATM    6  C   UNK N   1       4.944   1.002  -0.955  0.00  0.00     0.303 C 
ENDROOT
BRANCH   1   7
HETATM    7  C   UNK N   1       4.592  -2.002  -0.420  0.00  0.00     0.289 C 
BRANCH   7   8
HETATM    8  C   UNK N   1       3.310  -2.786  -0.266  0.00  0.00    -0.021 A 
HETATM    9  C   UNK N   1       3.018  -3.490   0.915  0.00  0.00     0.011 A 
HETATM   10  C   UNK N   1       1.802  -4.165   1.045  0.00  0.00     0.024 A 
HETATM   11  C   UNK N   1       0.871  -4.138   0.002  0.00  0.00     0.034 A 
HETATM   12 Cl   UNK N   1      -0.657  -4.972   0.171  0.00  0.00    -0.084 Cl
HETATM   13  C   UNK N   1       1.158  -3.439  -1.174  0.00  0.00     0.024 A 
HETATM   14  C   UNK N   1       2.373  -2.763  -1.306  0.00  0.00     0.011 A 
ENDBRANCH   7   8
BRANCH   7  15
HETATM   15  C   UNK N   1       5.850  -2.867  -0.428  0.00  0.00    -0.021 A 
HETATM   16  C   UNK N   1       7.084  -2.289  -0.763  0.00  0.00     0.010 A 
HETATM   17  C   UNK N   1       8.255  -3.051  -0.761  0.00  0.00     0.001 A 
HETATM   18  C   UNK N   1       8.205  -4.405  -0.425  0.00  0.00     0.000 A 
HETATM   19  C   UNK N   1       6.983  -4.998  -0.099  0.00  0.00     0.001 A 
HETATM   20  C   UNK N   1       5.811  -4.235  -0.102  0.00  0.00     0.010 A 
ENDBRANCH   7  15
ENDBRANCH   1   7
BRANCH   2  21
HETATM   21  C   UNK N   1       4.085   2.522   0.760  0.00  0.00     0.311 C 
BRANCH  21  22
HETATM   22  C   UNK N   1       5.251   3.419   0.489  0.00  0.00    -0.030 A 
HETATM   23  C   UNK N   1       6.482   3.130   1.086  0.00  0.00     0.015 A 
HETATM   24  C   UNK N   1       7.602   3.910   0.796  0.00  0.00    -0.061 A 
HETATM   25  C   UNK N   1       7.492   4.989  -0.086  0.00  0.00     0.007 A 
HETATM   26  C   UNK N   1       8.914   3.578   1.410  0.00  0.00     0.048 C 
HETATM   27  C   UNK N   1       6.259   5.285  -0.678  0.00  0.00     0.001 A 
HETATM   28  C   UNK N   1       5.139   4.494  -0.399  0.00  0.00     0.009 A 
ENDBRANCH  21  22
ENDBRANCH   2  21
TORSDOF 5
