REMARK  3 active torsions:
REMARK  status: ('A' for Active; 'I' for Inactive)
REMARK    1  A    between atoms: O_7  and  C_8 
REMARK    2  A    between atoms: O_7  and  C_10 
REMARK    3  A    between atoms: C_8  and  C_9 
ROOT
HETATM    1 Cl   UNK N   1       2.448   1.681   0.735  0.00  0.00    -0.086 Cl
HETATM    2  C   UNK N   1       2.899  -0.018   0.414  0.00  0.00     0.330 C 
ENDROOT
BRANCH   2   3
HETATM    3  O   UNK N   1       3.913  -0.067  -0.546  0.00  0.00    -0.302 OA
BRANCH   3   4
HETATM    4  C   UNK N   1       5.095  -0.177   0.192  0.00  0.00     0.501 C 
HETATM    5  F   UNK N   1       5.778  -1.322  -0.170  0.00  0.00    -0.184 F 
HETATM    6  F   UNK N   1       5.884   0.936  -0.024  0.00  0.00    -0.184 F 
ENDBRANCH   3   4
ENDBRANCH   2   3
BRANCH   2   7
HETATM    7  C   UNK N   1       1.685  -0.829  -0.030  0.00  0.00     0.427 C 
HETATM    8  F   UNK N   1       0.762  -0.875   0.997  0.00  0.00    -0.167 F 
HETATM    9  F   UNK N   1       1.100  -0.250  -1.143  0.00  0.00    -0.167 F 
HETATM   10  F   UNK N   1       2.071  -2.120  -0.342  0.00  0.00    -0.167 F 
ENDBRANCH   2   7
TORSDOF 3
