REMARK  6 active torsions:
REMARK  status: ('A' for Active; 'I' for Inactive)
REMARK    1  A    between atoms: O_1  and  C_22 
REMARK    2  A    between atoms: C_6  and  C_11 
REMARK    3  A    between atoms: C_13  and  C_14 
REMARK    4  A    between atoms: C_16  and  C_17 
REMARK    5  A    between atoms: C_18  and  C_19 
REMARK    6  A    between atoms: C_21  and  C_22 
ROOT
HETATM    1  C   UNK N   1       6.950   1.896   0.045  0.00  0.00    -0.062 C 
HETATM    2  C   UNK N   1       6.900   3.382   0.054  0.00  0.00     0.048 C 
HETATM    3  C   UNK N   1       5.775   1.253   0.067  0.00  0.00     0.007 C 
ENDROOT
BRANCH   1   4
HETATM    4  C   UNK N   1       8.293   1.279   0.001  0.00  0.00     0.007 C 
HETATM    5  C   UNK N   1       8.599  -0.021  -0.004  0.00  0.00     0.009 C 
BRANCH   5   6
HETATM    6  C   UNK N   1      10.030  -0.468  -0.070  0.00  0.00    -0.048 C 
HETATM    7  C   UNK N   1      11.165   0.574  -0.166  0.00  0.00    -0.020 C 
HETATM    8  C   UNK N   1      12.550  -0.044  -0.368  0.00  0.00     0.014 C 
HETATM    9  C   UNK N   1      11.194   1.418   1.099  0.00  0.00     0.020 C 
HETATM   10  C   UNK N   1      10.949   1.491  -1.359  0.00  0.00     0.020 C 
HETATM   11  C   UNK N   1      12.723  -1.286   0.475  0.00  0.00     0.005 C 
HETATM   12  C   UNK N   1      11.728  -2.320  -0.026  0.00  0.00     0.034 C 
HETATM   13  C   UNK N   1      10.312  -1.800  -0.018  0.00  0.00    -0.077 C 
HETATM   14  C   UNK N   1       9.217  -2.817   0.074  0.00  0.00     0.044 C 
ENDBRANCH   5   6
ENDBRANCH   1   4
BRANCH   3  15
HETATM   15  C   UNK N   1       5.522  -0.196   0.056  0.00  0.00     0.001 C 
HETATM   16  C   UNK N   1       4.269  -0.701   0.056  0.00  0.00     0.007 C 
BRANCH  16  17
HETATM   17  C   UNK N   1       2.992   0.080   0.093  0.00  0.00    -0.056 C 
HETATM   18  C   UNK N   1       2.989   1.574   0.245  0.00  0.00     0.048 C 
HETATM   19  C   UNK N   1       1.833  -0.597  -0.010  0.00  0.00     0.087 C 
BRANCH  19  20
HETATM   20  C   UNK N   1       0.469  -0.000  -0.005  0.00  0.00     0.165 C 
HETATM   21  O   UNK N   1       0.300   1.206   0.075  0.00  0.00    -0.647 OA
BRANCH  20  22
HETATM   22  O   UNK N   1      -0.602  -0.810  -0.099  0.00  0.00    -0.773 OA
HETATM   23  H   UNK N   1      -1.463  -0.446  -0.165  0.00  0.00     0.167 HD
ENDBRANCH  20  22
ENDBRANCH  19  20
ENDBRANCH  16  17
ENDBRANCH   3  15
TORSDOF 6
