REMARK WARNING: 32 MAX_TORS EXCEEDED!!!
REMARK  35 active torsions:
REMARK  status: ('A' for Active; 'I' for Inactive)
REMARK    1  A    between atoms: O_4  and  C_53 
REMARK    2  A    between atoms: O_4  and  C_56 
REMARK    3  A    between atoms: O_13  and  C_82 
REMARK    4  A    between atoms: O_14  and  C_93 
REMARK       I    between atoms: N_15  and  C_39 
REMARK    5  A    between atoms: C_40  and  N_16 
REMARK       I    between atoms: N_16  and  C_45 
REMARK    6  A    between atoms: N_17  and  N_19 
REMARK       I    between atoms: N_17  and  C_41 
REMARK    7  A    between atoms: C_44  and  N_18 
REMARK       I    between atoms: N_18  and  C_51 
REMARK       I    between atoms: N_19  and  C_54 
REMARK    8  A    between atoms: N_20  and  C_48 
REMARK    9  A    between atoms: C_52  and  N_22 
REMARK       I    between atoms: N_22  and  C_58 
REMARK   10  A    between atoms: C_61  and  N_24 
REMARK       I    between atoms: N_24  and  C_66 
REMARK       I    between atoms: N_25  and  C_54 
REMARK   11  A    between atoms: C_57  and  N_26 
REMARK       I    between atoms: N_26  and  C_76 
REMARK   12  A    between atoms: C_62  and  N_27 
REMARK       I    between atoms: N_27  and  C_70 
REMARK   13  A    between atoms: C_69  and  N_28 
REMARK       I    between atoms: N_28  and  C_75 
REMARK       I    between atoms: N_29  and  C_59 
REMARK       I    between atoms: N_30  and  C_59 
REMARK   14  A    between atoms: C_35  and  C_41 
REMARK   15  A    between atoms: C_39  and  C_40 
REMARK   16  A    between atoms: C_40  and  C_42 
REMARK   17  A    between atoms: C_42  and  C_43 
REMARK   18  A    between atoms: C_43  and  C_48 
REMARK   19  A    between atoms: C_44  and  C_45 
REMARK   20  A    between atoms: C_44  and  C_46 
REMARK   21  A    between atoms: C_46  and  C_47 
REMARK   22  A    between atoms: C_51  and  C_52 
REMARK   23  A    between atoms: C_52  and  C_53 
REMARK   24  A    between atoms: C_55  and  C_66 
REMARK   25  A    between atoms: C_57  and  C_58 
REMARK   26  A    between atoms: C_57  and  C_64 
REMARK   27  A    between atoms: C_61  and  C_68 
REMARK   28  A    between atoms: C_61  and  C_70 
REMARK   29  A    between atoms: C_62  and  C_65 
REMARK   30  A    between atoms: C_62  and  C_75 
REMARK   31  A    between atoms: C_64  and  C_77 
REMARK   32  A    between atoms: C_65  and  C_74 
REMARK   33  A    between atoms: C_68  and  C_79 
REMARK   34  A    between atoms: C_69  and  C_76 
REMARK   35  A    between atoms: C_69  and  C_82 
ROOT
HETATM    1  C   UNK N   1       9.109   2.954   0.953  0.00  0.00     0.180 C 
ENDROOT
BRANCH   1   2
HETATM    2  N   UNK N   1       9.050   2.907  -0.495  0.00  0.00    -0.346 N 
HETATM    3  C   UNK N   1       8.012   2.508  -1.277  0.00  0.00     0.243 C 
HETATM    4  O   UNK N   1       8.127   2.631  -2.487  0.00  0.00    -0.271 OA
HETATM    5  H   UNK N   1       9.861   3.200  -0.970  0.00  0.00     0.163 HD
BRANCH   3   6
HETATM    6  C   UNK N   1       6.728   1.895  -0.755  0.00  0.00     0.200 C 
BRANCH   6   7
HETATM    7  N   UNK N   1       6.624   1.783   0.687  0.00  0.00    -0.344 N 
HETATM    8  C   UNK N   1       5.420   1.870   1.305  0.00  0.00     0.241 C 
HETATM    9  O   UNK N   1       5.343   1.703   2.512  0.00  0.00    -0.271 OA
HETATM   10  H   UNK N   1       7.437   1.641   1.224  0.00  0.00     0.163 HD
BRANCH   8  11
HETATM   11  C   UNK N   1       4.195   2.189   0.490  0.00  0.00     0.181 C 
BRANCH  11  12
HETATM   12  N   UNK N   1       4.341   3.509  -0.080  0.00  0.00    -0.346 N 
HETATM   13  C   UNK N   1       4.238   4.656   0.629  0.00  0.00     0.241 C 
HETATM   14  O   UNK N   1       3.787   4.653   1.767  0.00  0.00    -0.271 OA
HETATM   15  H   UNK N   1       4.527   3.577  -1.045  0.00  0.00     0.163 HD
BRANCH  13  16
HETATM   16  C   UNK N   1       4.820   5.909   0.045  0.00  0.00     0.182 C 
BRANCH  16  17
HETATM   17  N   UNK N   1       3.884   6.920  -0.430  0.00  0.00    -0.346 N 
HETATM   18  C   UNK N   1       2.537   6.803  -0.575  0.00  0.00     0.241 C 
HETATM   19  O   UNK N   1       1.950   5.782  -0.244  0.00  0.00    -0.271 OA
HETATM   20  H   UNK N   1       4.273   7.790  -0.675  0.00  0.00     0.163 HD
BRANCH  18  21
HETATM   21  C   UNK N   1       1.785   7.929  -1.230  0.00  0.00     0.177 A 
HETATM   22  N   UNK N   1       1.867   9.127  -0.452  0.00  0.00    -0.348 N 
HETATM   23  C   UNK N   1       0.661   9.615  -0.170  0.00  0.00     0.218 A 
HETATM   24  H   UNK N   1       2.712   9.540  -0.161  0.00  0.00     0.163 HD
HETATM   25  O   UNK N   1       0.510  10.643   0.469  0.00  0.00    -0.274 OA
HETATM   26  C   UNK N   1      -0.462   8.818  -0.703  0.00  0.00     0.105 A 
HETATM   27  C   UNK N   1       0.273   7.651  -1.379  0.00  0.00     0.044 A 
ENDBRANCH  18  21
ENDBRANCH  16  17
BRANCH  16  28
HETATM   28  C   UNK N   1       5.843   6.466   1.035  0.00  0.00     0.093 C 
BRANCH  28  29
HETATM   29  C   UNK N   1       6.638   7.608   0.507  0.00  0.00     0.028 A 
HETATM   30  N   UNK N   1       7.916   7.515   0.110  0.00  0.00    -0.354 N 
HETATM   31  C   UNK N   1       8.269   8.773  -0.220  0.00  0.00     0.180 A 
HETATM   32  H   UNK N   1       8.474   6.705   0.069  0.00  0.00     0.166 HD
HETATM   33  N   UNK N   1       7.254   9.644  -0.028  0.00  0.00    -0.360 N 
HETATM   34  C   UNK N   1       6.223   8.914   0.436  0.00  0.00     0.114 A 
ATOM     35  HN  UNK N   1       7.267  10.649  -0.200  1.00  0.00     0.166 HD
ENDBRANCH  28  29
ENDBRANCH  16  28
ENDBRANCH  13  16
ENDBRANCH  11  12
BRANCH  11  36
HETATM   36  C   UNK N   1       2.855   1.914   1.155  0.00  0.00     0.075 C 
BRANCH  36  37
HETATM   37  C   UNK N   1       2.319   0.659   0.548  0.00  0.00    -0.028 A 
HETATM   38  C   UNK N   1       1.161   0.532  -0.169  0.00  0.00    -0.002 A 
HETATM   39  C   UNK N   1       1.093  -0.767  -0.583  0.00  0.00     0.042 A 
HETATM   40  C   UNK N   1       0.179   1.464  -0.494  0.00  0.00     0.014 A 
HETATM   41  N   UNK N   1       2.157  -1.470  -0.154  0.00  0.00    -0.365 N 
HETATM   42  C   UNK N   1       0.036  -1.237  -1.357  0.00  0.00     0.030 A 
HETATM   43  C   UNK N   1       2.924  -0.597   0.549  0.00  0.00     0.096 A 
HETATM   44  H   UNK N   1       2.342  -2.423  -0.316  0.00  0.00     0.165 HD
HETATM   45  C   UNK N   1      -0.978  -0.323  -1.702  0.00  0.00     0.002 A 
HETATM   46  C   UNK N   1      -0.908   1.022  -1.270  0.00  0.00     0.001 A 
ENDBRANCH  36  37
ENDBRANCH  11  36
ENDBRANCH   8  11
ENDBRANCH   6   7
BRANCH   6  47
HETATM   47  C   UNK N   1       6.489   0.545  -1.444  0.00  0.00     0.199 C 
BRANCH  47  48
HETATM   48  O   UNK N   1       5.911  -0.398  -0.590  0.00  0.00    -0.398 OA
HETATM   49  H   UNK N   1       5.144  -0.378   0.003  0.00  0.00     0.209 HD
ENDBRANCH  47  48
ENDBRANCH   6  47
ENDBRANCH   3   6
ENDBRANCH   1   2
BRANCH   1  50
HETATM   50  C   UNK N   1       9.368   1.650   1.715  0.00  0.00     0.241 C 
HETATM   51  O   UNK N   1       9.402   1.717   2.933  0.00  0.00    -0.271 OA
HETATM   52  N   UNK N   1       9.502   0.421   1.144  0.00  0.00    -0.344 N 
HETATM   53  H   UNK N   1       9.625  -0.345   1.751  0.00  0.00     0.163 HD
BRANCH  52  54
HETATM   54  C   UNK N   1       9.479   0.140  -0.271  0.00  0.00     0.200 C 
BRANCH  54  55
HETATM   55  C   UNK N   1       9.097  -1.281  -0.571  0.00  0.00     0.243 C 
HETATM   56  O   UNK N   1       8.861  -1.589  -1.731  0.00  0.00    -0.271 OA
HETATM   57  N   UNK N   1       9.032  -2.217   0.417  0.00  0.00    -0.346 N 
HETATM   58  H   UNK N   1       9.205  -1.934   1.344  0.00  0.00     0.163 HD
BRANCH  57  59
HETATM   59  C   UNK N   1       8.720  -3.614   0.164  0.00  0.00     0.177 C 
BRANCH  59  60
HETATM   60  C   UNK N   1       9.698  -4.175  -0.854  0.00  0.00     0.241 C 
HETATM   61  O   UNK N   1       9.309  -4.496  -1.966  0.00  0.00    -0.271 OA
HETATM   62  N   UNK N   1      11.021  -4.270  -0.561  0.00  0.00    -0.346 N 
HETATM   63  H   UNK N   1      11.654  -4.491  -1.281  0.00  0.00     0.163 HD
BRANCH  62  64
HETATM   64  C   UNK N   1      11.529  -4.057   0.780  0.00  0.00     0.176 C 
BRANCH  64  65
HETATM   65  C   UNK N   1      13.029  -3.839   0.864  0.00  0.00     0.243 C 
HETATM   66  O   UNK N   1      13.434  -3.024   1.680  0.00  0.00    -0.271 OA
HETATM   67  N   UNK N   1      13.927  -4.571   0.132  0.00  0.00    -0.337 N 
HETATM   68  C   UNK N   1      15.352  -4.530   0.362  0.00  0.00     0.181 C 
HETATM   69  C   UNK N   1      13.524  -5.533  -0.853  0.00  0.00     0.127 C 
HETATM   70  C   UNK N   1      15.949  -5.502  -0.641  0.00  0.00     0.037 C 
HETATM   71  C   UNK N   1      14.785  -6.282  -1.236  0.00  0.00     0.022 C 
BRANCH  68  72
HETATM   72  C   UNK N   1      15.992  -3.185   0.188  0.00  0.00     0.259 C 
HETATM   73  O   UNK N   1      15.914  -2.594  -0.880  0.00  0.00    -0.269 OA
HETATM   74  N   UNK N   1      16.721  -2.673   1.211  0.00  0.00    -0.264 N 
HETATM   75  H   UNK N   1      16.701  -3.128   2.083  0.00  0.00     0.190 HD
BRANCH  74  76
HETATM   76  N   UNK N   1      17.489  -1.538   1.069  0.00  0.00    -0.249 N 
HETATM   77  C   UNK N   1      18.560  -1.506   0.236  0.00  0.00     0.332 C 
HETATM   78  O   UNK N   1      18.874  -2.496  -0.410  0.00  0.00    -0.246 OA
HETATM   79  N   UNK N   1      19.297  -0.385   0.136  0.00  0.00    -0.351 N 
HETATM   80  H   UNK N   1      20.277  -0.442   0.063  0.00  0.00     0.160 HD
HETATM   81  H   UNK N   1      18.855   0.494   0.136  0.00  0.00     0.160 HD
HETATM   82  H   UNK N   1      17.256  -0.732   1.585  0.00  0.00     0.192 HD
ENDBRANCH  74  76
ENDBRANCH  68  72
ENDBRANCH  64  65
BRANCH  64  83
HETATM   83  C   UNK N   1      11.065  -5.172   1.732  0.00  0.00     0.036 C 
BRANCH  83  84
HETATM   84  C   UNK N   1      11.595  -6.551   1.351  0.00  0.00     0.023 C 
BRANCH  84  85
HETATM   85  C   UNK N   1      10.756  -7.179   0.250  0.00  0.00     0.138 C 
BRANCH  85  86
HETATM   86  N   UNK N   1      11.597  -7.981  -0.607  0.00  0.00    -0.227 N 
HETATM   87  C   UNK N   1      11.783  -9.240  -0.413  0.00  0.00     0.665 C 
HETATM   88  N   UNK N   1      11.166  -9.907   0.673  0.00  0.00    -0.235 N 
HETATM   89  N   UNK N   1      12.626  -9.962  -1.285  0.00  0.00    -0.235 N 
HETATM   90  H   UNK N   1      10.550  -9.767   1.427  0.00  0.00     0.174 HD
HETATM   91  H   UNK N   1      11.458 -10.847   0.673  0.00  0.00     0.174 HD
HETATM   92  H   UNK N   1      12.484 -10.723  -1.893  0.00  0.00     0.174 HD
HETATM   93  H   UNK N   1      13.555  -9.635  -1.285  0.00  0.00     0.174 HD
ATOM     94  HN  UNK N   1      12.062  -7.532  -1.396  1.00  0.00     0.177 HD
ENDBRANCH  85  86
ENDBRANCH  84  85
ENDBRANCH  83  84
ENDBRANCH  64  83
ENDBRANCH  62  64
ENDBRANCH  59  60
BRANCH  59  95
HETATM   95  C   UNK N   1       7.227  -3.782  -0.165  0.00  0.00     0.038 C 
BRANCH  95  96
HETATM   96  C   UNK N   1       6.698  -5.223  -0.103  0.00  0.00    -0.020 C 
HETATM   97  C   UNK N   1       6.734  -5.902  -1.456  0.00  0.00     0.009 C 
HETATM   98  C   UNK N   1       7.371  -6.086   0.955  0.00  0.00     0.009 C 
ENDBRANCH  95  96
ENDBRANCH  59  95
ENDBRANCH  57  59
ENDBRANCH  54  55
BRANCH  54  99
HETATM   99  C   UNK N   1      10.820   0.484  -0.904  0.00  0.00     0.203 C 
BRANCH  99 100
HETATM  100  O   UNK N   1      11.872   0.074  -0.063  0.00  0.00    -0.379 OA
BRANCH 100 101
HETATM  101  C   UNK N   1      13.077  -0.043  -0.788  0.00  0.00     0.050 C 
HETATM  102  C   UNK N   1      13.062  -1.280  -1.672  0.00  0.00     0.045 C 
HETATM  103  C   UNK N   1      13.407   1.197  -1.617  0.00  0.00     0.045 C 
HETATM  104  C   UNK N   1      14.193  -0.200   0.222  0.00  0.00     0.045 C 
ENDBRANCH 100 101
ENDBRANCH  99 100
ENDBRANCH  54  99
ENDBRANCH  52  54
ENDBRANCH   1  50
BRANCH   1 105
HETATM  105  C   UNK N   1      10.041   4.085   1.412  0.00  0.00     0.073 C 
BRANCH 105 106
HETATM  106  C   UNK N   1      11.309   4.215   0.624  0.00  0.00    -0.056 A 
HETATM  107  C   UNK N   1      11.304   4.894  -0.602  0.00  0.00     0.010 A 
HETATM  108  C   UNK N   1      12.491   5.052  -1.323  0.00  0.00     0.037 A 
HETATM  109  C   UNK N   1      13.688   4.539  -0.816  0.00  0.00     0.065 A 
HETATM  110  C   UNK N   1      13.698   3.869   0.412  0.00  0.00     0.037 A 
HETATM  111  C   UNK N   1      12.510   3.711   1.134  0.00  0.00     0.010 A 
BRANCH 109 112
HETATM  112  O   UNK N   1      14.829   4.689  -1.509  0.00  0.00    -0.361 OA
HETATM  113  H   UNK N   1      15.317   4.052  -1.992  0.00  0.00     0.217 HD
ENDBRANCH 109 112
ENDBRANCH 105 106
ENDBRANCH   1 105
TORSDOF 35
