MODEL 1
REMARK VINA RESULT:      -5.5      0.000      0.000
REMARK  8 active torsions:
REMARK  status: ('A' for Active; 'I' for Inactive)
REMARK    1  A    between atoms: N_2  and  C_9 
REMARK    2  A    between atoms: N_2  and  C_11 
REMARK    3  A    between atoms: N_2  and  C_12 
REMARK    4  A    between atoms: N_3  and  C_8 
REMARK    5  A    between atoms: N_3  and  C_13 
REMARK    6  A    between atoms: C_6  and  C_7 
REMARK    7  A    between atoms: C_6  and  C_8 
REMARK    8  A    between atoms: C_7  and  C_9 
ROOT
HETATM    1 Cl   UNK N   1      26.825  30.989  -3.076  0.00  0.00    -0.084 Cl
HETATM    2  N   UNK N   1      28.088  28.460  -7.337  0.00  0.00    -0.365 N 
ATOM      3  HN  UNK N   1      28.749  29.214  -7.524  1.00  0.00     0.165 HD
HETATM    4  C   UNK N   1      26.293  26.411  -6.836  0.00  0.00     0.042 A 
HETATM    5  C   UNK N   1      26.390  27.486  -5.944  0.00  0.00     0.017 A 
HETATM    6  C   UNK N   1      27.109  26.376  -7.969  0.00  0.00     0.047 A 
HETATM    7  C   UNK N   1      27.316  28.517  -6.220  0.00  0.00     0.046 A 
HETATM    8  C   UNK N   1      25.617  27.541  -4.777  0.00  0.00     0.018 A 
HETATM    9  C   UNK N   1      27.999  27.421  -8.212  0.00  0.00     0.090 A 
HETATM   10  C   UNK N   1      27.448  29.588  -5.332  0.00  0.00     0.054 A 
HETATM   11  C   UNK N   1      25.754  28.617  -3.896  0.00  0.00     0.025 A 
HETATM   12  C   UNK N   1      26.667  29.638  -4.175  0.00  0.00     0.036 A 
ENDROOT
BRANCH   4  13
HETATM   13  N   UNK N   1      25.458  25.315  -6.546  0.00  0.00    -0.385 N 
HETATM   14  H   UNK N   1      24.491  25.343  -6.729  0.00  0.00     0.160 HD
BRANCH  13  15
HETATM   15  C   UNK N   1      26.078  24.156  -5.974  0.00  0.00     0.077 C 
HETATM   16  C   UNK N   1      26.073  22.935  -6.879  0.00  0.00     0.032 C 
BRANCH  15  17
HETATM   17  C   UNK N   1      25.824  24.019  -4.475  0.00  0.00     0.026 C 
BRANCH  17  18
HETATM   18  C   UNK N   1      27.011  24.360  -3.594  0.00  0.00     0.032 C 
BRANCH  18  19
HETATM   19  C   UNK N   1      28.310  24.579  -4.380  0.00  0.00     0.272 C 
BRANCH  19  20
HETATM   20  N   UNK N   1      29.498  24.438  -3.526  0.00  0.00     0.087 N 
BRANCH  20  21
HETATM   21  C   UNK N   1      30.463  25.496  -3.855  0.00  0.00     0.268 C 
HETATM   22  C   UNK N   1      29.782  26.851  -3.897  0.00  0.00     0.037 C 
ENDBRANCH  20  21
BRANCH  20  23
HETATM   23  C   UNK N   1      30.011  23.075  -3.735  0.00  0.00     0.268 C 
HETATM   24  C   UNK N   1      30.853  22.507  -2.598  0.00  0.00     0.037 C 
ENDBRANCH  20  23
ENDBRANCH  19  20
ENDBRANCH  18  19
ENDBRANCH  17  18
ENDBRANCH  15  17
ENDBRANCH  13  15
ENDBRANCH   4  13
TORSDOF 8
ENDMDL
MODEL 2
REMARK VINA RESULT:      -5.1     12.390     15.341
REMARK  8 active torsions:
REMARK  status: ('A' for Active; 'I' for Inactive)
REMARK    1  A    between atoms: N_2  and  C_9 
REMARK    2  A    between atoms: N_2  and  C_11 
REMARK    3  A    between atoms: N_2  and  C_12 
REMARK    4  A    between atoms: N_3  and  C_8 
REMARK    5  A    between atoms: N_3  and  C_13 
REMARK    6  A    between atoms: C_6  and  C_7 
REMARK    7  A    between atoms: C_6  and  C_8 
REMARK    8  A    between atoms: C_7  and  C_9 
ROOT
HETATM    1 Cl   UNK N   1      34.014  16.423   5.900  0.00  0.00    -0.084 Cl
HETATM    2  N   UNK N   1      30.632  17.962   9.414  0.00  0.00    -0.365 N 
ATOM      3  HN  UNK N   1      31.385  17.878  10.097  1.00  0.00     0.165 HD
HETATM    4  C   UNK N   1      28.583  18.188   7.564  0.00  0.00     0.042 A 
HETATM    5  C   UNK N   1      29.850  17.757   7.151  0.00  0.00     0.017 A 
HETATM    6  C   UNK N   1      28.364  18.510   8.905  0.00  0.00     0.047 A 
HETATM    7  C   UNK N   1      30.879  17.653   8.113  0.00  0.00     0.046 A 
HETATM    8  C   UNK N   1      30.120  17.460   5.809  0.00  0.00     0.018 A 
HETATM    9  C   UNK N   1      29.403  18.380   9.825  0.00  0.00     0.090 A 
HETATM   10  C   UNK N   1      32.157  17.247   7.721  0.00  0.00     0.054 A 
HETATM   11  C   UNK N   1      31.401  17.053   5.427  0.00  0.00     0.025 A 
HETATM   12  C   UNK N   1      32.416  16.946   6.382  0.00  0.00     0.036 A 
ENDROOT
BRANCH   4  13
HETATM   13  N   UNK N   1      27.559  18.403   6.621  0.00  0.00    -0.385 N 
HETATM   14  H   UNK N   1      26.887  17.711   6.425  0.00  0.00     0.160 HD
BRANCH  13  15
HETATM   15  C   UNK N   1      27.538  19.675   5.959  0.00  0.00     0.077 C 
HETATM   16  C   UNK N   1      26.681  20.723   6.651  0.00  0.00     0.032 C 
BRANCH  15  17
HETATM   17  C   UNK N   1      27.555  19.559   4.437  0.00  0.00     0.026 C 
BRANCH  17  18
HETATM   18  C   UNK N   1      26.189  19.421   3.794  0.00  0.00     0.032 C 
BRANCH  18  19
HETATM   19  C   UNK N   1      25.810  17.970   3.471  0.00  0.00     0.272 C 
BRANCH  19  20
HETATM   20  N   UNK N   1      24.756  17.466   4.362  0.00  0.00     0.087 N 
BRANCH  20  21
HETATM   21  C   UNK N   1      24.162  16.255   3.779  0.00  0.00     0.268 C 
HETATM   22  C   UNK N   1      25.176  15.515   2.928  0.00  0.00     0.037 C 
ENDBRANCH  20  21
BRANCH  20  23
HETATM   23  C   UNK N   1      23.800  18.568   4.553  0.00  0.00     0.268 C 
HETATM   24  C   UNK N   1      22.370  18.283   4.110  0.00  0.00     0.037 C 
ENDBRANCH  20  23
ENDBRANCH  19  20
ENDBRANCH  18  19
ENDBRANCH  17  18
ENDBRANCH  15  17
ENDBRANCH  13  15
ENDBRANCH   4  13
TORSDOF 8
ENDMDL
MODEL 3
REMARK VINA RESULT:      -4.9     13.324     16.367
REMARK  8 active torsions:
REMARK  status: ('A' for Active; 'I' for Inactive)
REMARK    1  A    between atoms: N_2  and  C_9 
REMARK    2  A    between atoms: N_2  and  C_11 
REMARK    3  A    between atoms: N_2  and  C_12 
REMARK    4  A    between atoms: N_3  and  C_8 
REMARK    5  A    between atoms: N_3  and  C_13 
REMARK    6  A    between atoms: C_6  and  C_7 
REMARK    7  A    between atoms: C_6  and  C_8 
REMARK    8  A    between atoms: C_7  and  C_9 
ROOT
HETATM    1 Cl   UNK N   1      26.001  20.690   5.133  0.00  0.00    -0.084 Cl
HETATM    2  N   UNK N   1      28.547  18.719   9.106  0.00  0.00    -0.365 N 
ATOM      3  HN  UNK N   1      27.890  19.218   9.705  1.00  0.00     0.165 HD
HETATM    4  C   UNK N   1      30.336  17.363   7.483  0.00  0.00     0.042 A 
HETATM    5  C   UNK N   1      29.332  18.152   6.907  0.00  0.00     0.017 A 
HETATM    6  C   UNK N   1      30.423  17.258   8.873  0.00  0.00     0.047 A 
HETATM    7  C   UNK N   1      28.430  18.830   7.756  0.00  0.00     0.046 A 
HETATM    8  C   UNK N   1      29.189  18.253   5.517  0.00  0.00     0.018 A 
HETATM    9  C   UNK N   1      29.521  17.956   9.675  0.00  0.00     0.090 A 
HETATM   10  C   UNK N   1      27.406  19.604   7.204  0.00  0.00     0.054 A 
HETATM   11  C   UNK N   1      28.163  19.031   4.974  0.00  0.00     0.025 A 
HETATM   12  C   UNK N   1      27.275  19.706   5.817  0.00  0.00     0.036 A 
ENDROOT
BRANCH   4  13
HETATM   13  N   UNK N   1      31.190  16.590   6.673  0.00  0.00    -0.385 N 
HETATM   14  H   UNK N   1      31.033  15.628   6.533  0.00  0.00     0.160 HD
BRANCH  13  15
HETATM   15  C   UNK N   1      32.298  17.264   6.061  0.00  0.00     0.077 C 
HETATM   16  C   UNK N   1      32.426  17.022   4.567  0.00  0.00     0.032 C 
BRANCH  15  17
HETATM   17  C   UNK N   1      33.535  17.317   6.955  0.00  0.00     0.026 C 
BRANCH  17  18
HETATM   18  C   UNK N   1      34.480  16.142   6.803  0.00  0.00     0.032 C 
BRANCH  18  19
HETATM   19  C   UNK N   1      34.845  15.477   8.137  0.00  0.00     0.272 C 
BRANCH  19  20
HETATM   20  N   UNK N   1      34.093  16.052   9.261  0.00  0.00     0.087 N 
BRANCH  20  21
HETATM   21  C   UNK N   1      35.033  16.591  10.253  0.00  0.00     0.268 C 
HETATM   22  C   UNK N   1      36.169  15.617  10.502  0.00  0.00     0.037 C 
ENDBRANCH  20  21
BRANCH  20  23
HETATM   23  C   UNK N   1      33.225  14.983   9.780  0.00  0.00     0.268 C 
HETATM   24  C   UNK N   1      33.161  13.717   8.933  0.00  0.00     0.037 C 
ENDBRANCH  20  23
ENDBRANCH  19  20
ENDBRANCH  18  19
ENDBRANCH  17  18
ENDBRANCH  15  17
ENDBRANCH  13  15
ENDBRANCH   4  13
TORSDOF 8
ENDMDL
MODEL 4
REMARK VINA RESULT:      -4.8     11.316     13.909
REMARK  8 active torsions:
REMARK  status: ('A' for Active; 'I' for Inactive)
REMARK    1  A    between atoms: N_2  and  C_9 
REMARK    2  A    between atoms: N_2  and  C_11 
REMARK    3  A    between atoms: N_2  and  C_12 
REMARK    4  A    between atoms: N_3  and  C_8 
REMARK    5  A    between atoms: N_3  and  C_13 
REMARK    6  A    between atoms: C_6  and  C_7 
REMARK    7  A    between atoms: C_6  and  C_8 
REMARK    8  A    between atoms: C_7  and  C_9 
ROOT
HETATM    1 Cl   UNK N   1      27.795  19.810   3.842  0.00  0.00    -0.084 Cl
HETATM    2  N   UNK N   1      23.601  17.579   5.736  0.00  0.00    -0.365 N 
ATOM      3  HN  UNK N   1      24.225  17.035   6.332  1.00  0.00     0.165 HD
HETATM    4  C   UNK N   1      21.902  19.052   4.119  0.00  0.00     0.042 A 
HETATM    5  C   UNK N   1      23.287  19.237   4.026  0.00  0.00     0.017 A 
HETATM    6  C   UNK N   1      21.386  18.131   5.034  0.00  0.00     0.047 A 
HETATM    7  C   UNK N   1      24.132  18.476   4.864  0.00  0.00     0.046 A 
HETATM    8  C   UNK N   1      23.842  20.177   3.148  0.00  0.00     0.018 A 
HETATM    9  C   UNK N   1      22.257  17.390   5.833  0.00  0.00     0.090 A 
HETATM   10  C   UNK N   1      25.516  18.661   4.806  0.00  0.00     0.054 A 
HETATM   11  C   UNK N   1      25.227  20.353   3.095  0.00  0.00     0.025 A 
HETATM   12  C   UNK N   1      26.062  19.595   3.922  0.00  0.00     0.036 A 
ENDROOT
BRANCH   4  13
HETATM   13  N   UNK N   1      21.021  19.861   3.376  0.00  0.00    -0.385 N 
HETATM   14  H   UNK N   1      20.644  20.689   3.753  0.00  0.00     0.160 HD
BRANCH  13  15
HETATM   15  C   UNK N   1      20.698  19.428   2.048  0.00  0.00     0.077 C 
HETATM   16  C   UNK N   1      20.711  20.537   1.010  0.00  0.00     0.032 C 
BRANCH  15  17
HETATM   17  C   UNK N   1      19.628  18.339   2.017  0.00  0.00     0.026 C 
BRANCH  17  18
HETATM   18  C   UNK N   1      20.110  16.987   1.531  0.00  0.00     0.032 C 
BRANCH  18  19
HETATM   19  C   UNK N   1      20.020  15.888   2.598  0.00  0.00     0.272 C 
BRANCH  19  20
HETATM   20  N   UNK N   1      20.487  14.590   2.090  0.00  0.00     0.087 N 
BRANCH  20  21
HETATM   21  C   UNK N   1      21.312  14.801   0.893  0.00  0.00     0.268 C 
HETATM   22  C   UNK N   1      22.381  13.732   0.781  0.00  0.00     0.037 C 
ENDBRANCH  20  21
BRANCH  20  23
HETATM   23  C   UNK N   1      19.287  13.772   1.852  0.00  0.00     0.268 C 
HETATM   24  C   UNK N   1      18.771  13.762   0.418  0.00  0.00     0.037 C 
ENDBRANCH  20  23
ENDBRANCH  19  20
ENDBRANCH  18  19
ENDBRANCH  17  18
ENDBRANCH  15  17
ENDBRANCH  13  15
ENDBRANCH   4  13
TORSDOF 8
ENDMDL
MODEL 5
REMARK VINA RESULT:      -4.8     25.993     28.648
REMARK  8 active torsions:
REMARK  status: ('A' for Active; 'I' for Inactive)
REMARK    1  A    between atoms: N_2  and  C_9 
REMARK    2  A    between atoms: N_2  and  C_11 
REMARK    3  A    between atoms: N_2  and  C_12 
REMARK    4  A    between atoms: N_3  and  C_8 
REMARK    5  A    between atoms: N_3  and  C_13 
REMARK    6  A    between atoms: C_6  and  C_7 
REMARK    7  A    between atoms: C_6  and  C_8 
REMARK    8  A    between atoms: C_7  and  C_9 
ROOT
HETATM    1 Cl   UNK N   1      36.207  16.145  18.081  0.00  0.00    -0.084 Cl
HETATM    2  N   UNK N   1      37.391  12.864  14.342  0.00  0.00    -0.365 N 
ATOM      3  HN  UNK N   1      37.972  13.605  13.949  1.00  0.00     0.165 HD
HETATM    4  C   UNK N   1      35.813  10.849  15.403  0.00  0.00     0.042 A 
HETATM    5  C   UNK N   1      35.879  12.093  16.043  0.00  0.00     0.017 A 
HETATM    6  C   UNK N   1      36.551  10.630  14.237  0.00  0.00     0.047 A 
HETATM    7  C   UNK N   1      36.694  13.103  15.484  0.00  0.00     0.046 A 
HETATM    8  C   UNK N   1      35.184  12.339  17.234  0.00  0.00     0.018 A 
HETATM    9  C   UNK N   1      37.332  11.659  13.711  0.00  0.00     0.090 A 
HETATM   10  C   UNK N   1      36.793  14.344  16.118  0.00  0.00     0.054 A 
HETATM   11  C   UNK N   1      35.288  13.585  17.860  0.00  0.00     0.025 A 
HETATM   12  C   UNK N   1      36.090  14.584  17.301  0.00  0.00     0.036 A 
ENDROOT
BRANCH   4  13
HETATM   13  N   UNK N   1      35.096   9.784  15.981  0.00  0.00    -0.385 N 
HETATM   14  H   UNK N   1      34.112   9.754  15.957  0.00  0.00     0.160 HD
BRANCH  13  15
HETATM   15  C   UNK N   1      35.861   8.745  16.606  0.00  0.00     0.077 C 
HETATM   16  C   UNK N   1      35.809   7.411  15.881  0.00  0.00     0.032 C 
BRANCH  15  17
HETATM   17  C   UNK N   1      35.824   8.809  18.131  0.00  0.00     0.026 C 
BRANCH  17  18
HETATM   18  C   UNK N   1      34.663   8.075  18.771  0.00  0.00     0.032 C 
BRANCH  18  19
HETATM   19  C   UNK N   1      33.460   8.979  19.070  0.00  0.00     0.272 C 
BRANCH  19  20
HETATM   20  N   UNK N   1      32.882   8.706  20.393  0.00  0.00     0.087 N 
BRANCH  20  21
HETATM   21  C   UNK N   1      31.420   8.837  20.324  0.00  0.00     0.268 C 
HETATM   22  C   UNK N   1      30.769   7.484  20.112  0.00  0.00     0.037 C 
ENDBRANCH  20  21
BRANCH  20  23
HETATM   23  C   UNK N   1      33.522   9.637  21.336  0.00  0.00     0.268 C 
HETATM   24  C   UNK N   1      32.584  10.327  22.320  0.00  0.00     0.037 C 
ENDBRANCH  20  23
ENDBRANCH  19  20
ENDBRANCH  18  19
ENDBRANCH  17  18
ENDBRANCH  15  17
ENDBRANCH  13  15
ENDBRANCH   4  13
TORSDOF 8
ENDMDL
MODEL 6
REMARK VINA RESULT:      -4.8     11.233     13.449
REMARK  8 active torsions:
REMARK  status: ('A' for Active; 'I' for Inactive)
REMARK    1  A    between atoms: N_2  and  C_9 
REMARK    2  A    between atoms: N_2  and  C_11 
REMARK    3  A    between atoms: N_2  and  C_12 
REMARK    4  A    between atoms: N_3  and  C_8 
REMARK    5  A    between atoms: N_3  and  C_13 
REMARK    6  A    between atoms: C_6  and  C_7 
REMARK    7  A    between atoms: C_6  and  C_8 
REMARK    8  A    between atoms: C_7  and  C_9 
ROOT
HETATM    1 Cl   UNK N   1      26.916  20.139   3.591  0.00  0.00    -0.084 Cl
HETATM    2  N   UNK N   1      21.964  20.804   2.504  0.00  0.00    -0.365 N 
ATOM      3  HN  UNK N   1      22.241  21.654   2.013  1.00  0.00     0.165 HD
HETATM    4  C   UNK N   1      21.204  18.499   3.839  0.00  0.00     0.042 A 
HETATM    5  C   UNK N   1      22.553  18.873   3.806  0.00  0.00     0.017 A 
HETATM    6  C   UNK N   1      20.251  19.287   3.190  0.00  0.00     0.047 A 
HETATM    7  C   UNK N   1      22.916  20.051   3.116  0.00  0.00     0.046 A 
HETATM    8  C   UNK N   1      23.544  18.089   4.413  0.00  0.00     0.018 A 
HETATM    9  C   UNK N   1      20.650  20.450   2.532  0.00  0.00     0.090 A 
HETATM   10  C   UNK N   1      24.258  20.431   3.050  0.00  0.00     0.054 A 
HETATM   11  C   UNK N   1      24.884  18.479   4.343  0.00  0.00     0.025 A 
HETATM   12  C   UNK N   1      25.239  19.649   3.664  0.00  0.00     0.036 A 
ENDROOT
BRANCH   4  13
HETATM   13  N   UNK N   1      20.814  17.280   4.427  0.00  0.00    -0.385 N 
HETATM   14  H   UNK N   1      21.045  17.063   5.359  0.00  0.00     0.160 HD
BRANCH  13  15
HETATM   15  C   UNK N   1      20.065  16.371   3.610  0.00  0.00     0.077 C 
HETATM   16  C   UNK N   1      19.222  15.378   4.393  0.00  0.00     0.032 C 
BRANCH  15  17
HETATM   17  C   UNK N   1      20.815  15.939   2.352  0.00  0.00     0.026 C 
BRANCH  17  18
HETATM   18  C   UNK N   1      21.358  14.524   2.389  0.00  0.00     0.032 C 
BRANCH  18  19
HETATM   19  C   UNK N   1      22.782  14.432   2.952  0.00  0.00     0.272 C 
BRANCH  19  20
HETATM   20  N   UNK N   1      23.788  14.884   1.980  0.00  0.00     0.087 N 
BRANCH  20  21
HETATM   21  C   UNK N   1      23.662  14.097   0.746  0.00  0.00     0.268 C 
HETATM   22  C   UNK N   1      24.328  12.744   0.901  0.00  0.00     0.037 C 
ENDBRANCH  20  21
BRANCH  20  23
HETATM   23  C   UNK N   1      25.098  14.760   2.638  0.00  0.00     0.268 C 
HETATM   24  C   UNK N   1      26.156  15.762   2.193  0.00  0.00     0.037 C 
ENDBRANCH  20  23
ENDBRANCH  19  20
ENDBRANCH  18  19
ENDBRANCH  17  18
ENDBRANCH  15  17
ENDBRANCH  13  15
ENDBRANCH   4  13
TORSDOF 8
ENDMDL
MODEL 7
REMARK VINA RESULT:      -4.8     13.008     15.002
REMARK  8 active torsions:
REMARK  status: ('A' for Active; 'I' for Inactive)
REMARK    1  A    between atoms: N_2  and  C_9 
REMARK    2  A    between atoms: N_2  and  C_11 
REMARK    3  A    between atoms: N_2  and  C_12 
REMARK    4  A    between atoms: N_3  and  C_8 
REMARK    5  A    between atoms: N_3  and  C_13 
REMARK    6  A    between atoms: C_6  and  C_7 
REMARK    7  A    between atoms: C_6  and  C_8 
REMARK    8  A    between atoms: C_7  and  C_9 
ROOT
HETATM    1 Cl   UNK N   1      26.980  20.290   3.445  0.00  0.00    -0.084 Cl
HETATM    2  N   UNK N   1      22.000  20.655   2.344  0.00  0.00    -0.365 N 
ATOM      3  HN  UNK N   1      22.257  21.375   1.668  1.00  0.00     0.165 HD
HETATM    4  C   UNK N   1      21.295  18.702   4.177  0.00  0.00     0.042 A 
HETATM    5  C   UNK N   1      22.638  19.070   4.032  0.00  0.00     0.017 A 
HETATM    6  C   UNK N   1      20.319  19.318   3.389  0.00  0.00     0.047 A 
HETATM    7  C   UNK N   1      22.972  20.066   3.088  0.00  0.00     0.046 A 
HETATM    8  C   UNK N   1      23.650  18.451   4.777  0.00  0.00     0.018 A 
HETATM    9  C   UNK N   1      20.691  20.306   2.479  0.00  0.00     0.090 A 
HETATM   10  C   UNK N   1      24.309  20.432   2.909  0.00  0.00     0.054 A 
HETATM   11  C   UNK N   1      24.984  18.826   4.593  0.00  0.00     0.025 A 
HETATM   12  C   UNK N   1      25.311  19.816   3.662  0.00  0.00     0.036 A 
ENDROOT
BRANCH   4  13
HETATM   13  N   UNK N   1      20.931  17.644   5.032  0.00  0.00    -0.385 N 
HETATM   14  H   UNK N   1      20.987  17.732   6.011  0.00  0.00     0.160 HD
BRANCH  13  15
HETATM   15  C   UNK N   1      20.477  16.432   4.414  0.00  0.00     0.077 C 
HETATM   16  C   UNK N   1      19.096  15.984   4.863  0.00  0.00     0.032 C 
BRANCH  15  17
HETATM   17  C   UNK N   1      21.596  15.417   4.193  0.00  0.00     0.026 C 
BRANCH  17  18
HETATM   18  C   UNK N   1      21.603  14.255   5.166  0.00  0.00     0.032 C 
BRANCH  18  19
HETATM   19  C   UNK N   1      21.965  14.663   6.600  0.00  0.00     0.272 C 
BRANCH  19  20
HETATM   20  N   UNK N   1      20.982  14.172   7.576  0.00  0.00     0.087 N 
BRANCH  20  21
HETATM   21  C   UNK N   1      21.048  14.995   8.791  0.00  0.00     0.268 C 
HETATM   22  C   UNK N   1      20.242  16.268   8.622  0.00  0.00     0.037 C 
ENDBRANCH  20  21
BRANCH  20  23
HETATM   23  C   UNK N   1      21.283  12.749   7.800  0.00  0.00     0.268 C 
HETATM   24  C   UNK N   1      22.277  12.454   8.917  0.00  0.00     0.037 C 
ENDBRANCH  20  23
ENDBRANCH  19  20
ENDBRANCH  18  19
ENDBRANCH  17  18
ENDBRANCH  15  17
ENDBRANCH  13  15
ENDBRANCH   4  13
TORSDOF 8
ENDMDL
MODEL 8
REMARK VINA RESULT:      -4.7     14.044     17.495
REMARK  8 active torsions:
REMARK  status: ('A' for Active; 'I' for Inactive)
REMARK    1  A    between atoms: N_2  and  C_9 
REMARK    2  A    between atoms: N_2  and  C_11 
REMARK    3  A    between atoms: N_2  and  C_12 
REMARK    4  A    between atoms: N_3  and  C_8 
REMARK    5  A    between atoms: N_3  and  C_13 
REMARK    6  A    between atoms: C_6  and  C_7 
REMARK    7  A    between atoms: C_6  and  C_8 
REMARK    8  A    between atoms: C_7  and  C_9 
ROOT
HETATM    1 Cl   UNK N   1      35.870  12.275   8.926  0.00  0.00    -0.084 Cl
HETATM    2  N   UNK N   1      34.917  17.247   8.204  0.00  0.00    -0.365 N 
ATOM      3  HN  UNK N   1      35.923  17.369   8.094  1.00  0.00     0.165 HD
HETATM    4  C   UNK N   1      32.182  16.922   8.503  0.00  0.00     0.042 A 
HETATM    5  C   UNK N   1      33.032  15.816   8.621  0.00  0.00     0.017 A 
HETATM    6  C   UNK N   1      32.719  18.182   8.226  0.00  0.00     0.047 A 
HETATM    7  C   UNK N   1      34.423  16.007   8.461  0.00  0.00     0.046 A 
HETATM    8  C   UNK N   1      32.530  14.530   8.861  0.00  0.00     0.018 A 
HETATM    9  C   UNK N   1      34.099  18.329   8.089  0.00  0.00     0.090 A 
HETATM   10  C   UNK N   1      35.288  14.914   8.551  0.00  0.00     0.054 A 
HETATM   11  C   UNK N   1      33.404  13.443   8.951  0.00  0.00     0.025 A 
HETATM   12  C   UNK N   1      34.780  13.636   8.798  0.00  0.00     0.036 A 
ENDROOT
BRANCH   4  13
HETATM   13  N   UNK N   1      30.784  16.759   8.553  0.00  0.00    -0.385 N 
HETATM   14  H   UNK N   1      30.374  15.868   8.639  0.00  0.00     0.160 HD
BRANCH  13  15
HETATM   15  C   UNK N   1      29.985  17.946   8.475  0.00  0.00     0.077 C 
HETATM   16  C   UNK N   1      29.462  18.435   9.816  0.00  0.00     0.032 C 
BRANCH  15  17
HETATM   17  C   UNK N   1      29.106  17.996   7.228  0.00  0.00     0.026 C 
BRANCH  17  18
HETATM   18  C   UNK N   1      29.120  16.733   6.389  0.00  0.00     0.032 C 
BRANCH  18  19
HETATM   19  C   UNK N   1      29.041  17.002   4.881  0.00  0.00     0.272 C 
BRANCH  19  20
HETATM   20  N   UNK N   1      30.237  16.523   4.174  0.00  0.00     0.087 N 
BRANCH  20  21
HETATM   21  C   UNK N   1      31.317  17.509   4.318  0.00  0.00     0.268 C 
HETATM   22  C   UNK N   1      32.574  16.855   4.857  0.00  0.00     0.037 C 
ENDBRANCH  20  21
BRANCH  20  23
HETATM   23  C   UNK N   1      29.835  16.276   2.780  0.00  0.00     0.268 C 
HETATM   24  C   UNK N   1      29.210  14.913   2.507  0.00  0.00     0.037 C 
ENDBRANCH  20  23
ENDBRANCH  19  20
ENDBRANCH  18  19
ENDBRANCH  17  18
ENDBRANCH  15  17
ENDBRANCH  13  15
ENDBRANCH   4  13
TORSDOF 8
ENDMDL
MODEL 9
REMARK VINA RESULT:      -4.7     23.533     27.779
REMARK  8 active torsions:
REMARK  status: ('A' for Active; 'I' for Inactive)
REMARK    1  A    between atoms: N_2  and  C_9 
REMARK    2  A    between atoms: N_2  and  C_11 
REMARK    3  A    between atoms: N_2  and  C_12 
REMARK    4  A    between atoms: N_3  and  C_8 
REMARK    5  A    between atoms: N_3  and  C_13 
REMARK    6  A    between atoms: C_6  and  C_7 
REMARK    7  A    between atoms: C_6  and  C_8 
REMARK    8  A    between atoms: C_7  and  C_9 
ROOT
HETATM    1 Cl   UNK N   1      36.001  16.036  11.140  0.00  0.00    -0.084 Cl
HETATM    2  N   UNK N   1      34.201  11.481  12.611  0.00  0.00    -0.365 N 
ATOM      3  HN  UNK N   1      33.757  11.421  11.694  1.00  0.00     0.165 HD
HETATM    4  C   UNK N   1      35.403  11.639  15.101  0.00  0.00     0.042 A 
HETATM    5  C   UNK N   1      35.546  12.693  14.190  0.00  0.00     0.017 A 
HETATM    6  C   UNK N   1      34.662  10.511  14.744  0.00  0.00     0.047 A 
HETATM    7  C   UNK N   1      34.926  12.587  12.925  0.00  0.00     0.046 A 
HETATM    8  C   UNK N   1      36.311  13.826  14.497  0.00  0.00     0.018 A 
HETATM    9  C   UNK N   1      34.055  10.452  13.490  0.00  0.00     0.090 A 
HETATM   10  C   UNK N   1      35.074  13.615  11.991  0.00  0.00     0.054 A 
HETATM   11  C   UNK N   1      36.452  14.850  13.557  0.00  0.00     0.025 A 
HETATM   12  C   UNK N   1      35.833  14.745  12.308  0.00  0.00     0.036 A 
ENDROOT
BRANCH   4  13
HETATM   13  N   UNK N   1      36.088  11.660  16.332  0.00  0.00    -0.385 N 
HETATM   14  H   UNK N   1      37.070  11.611  16.373  0.00  0.00     0.160 HD
BRANCH  13  15
HETATM   15  C   UNK N   1      35.292  11.757  17.520  0.00  0.00     0.077 C 
HETATM   16  C   UNK N   1      35.141  13.171  18.056  0.00  0.00     0.032 C 
BRANCH  15  17
HETATM   17  C   UNK N   1      35.488  10.577  18.470  0.00  0.00     0.026 C 
BRANCH  17  18
HETATM   18  C   UNK N   1      35.414  10.926  19.943  0.00  0.00     0.032 C 
BRANCH  18  19
HETATM   19  C   UNK N   1      34.279  10.208  20.684  0.00  0.00     0.272 C 
BRANCH  19  20
HETATM   20  N   UNK N   1      34.766   9.486  21.868  0.00  0.00     0.087 N 
BRANCH  20  21
HETATM   21  C   UNK N   1      34.851   8.051  21.563  0.00  0.00     0.268 C 
HETATM   22  C   UNK N   1      36.230   7.693  21.042  0.00  0.00     0.037 C 
ENDBRANCH  20  21
BRANCH  20  23
HETATM   23  C   UNK N   1      33.847   9.809  22.970  0.00  0.00     0.268 C 
HETATM   24  C   UNK N   1      32.392  10.027  22.571  0.00  0.00     0.037 C 
ENDBRANCH  20  23
ENDBRANCH  19  20
ENDBRANCH  18  19
ENDBRANCH  17  18
ENDBRANCH  15  17
ENDBRANCH  13  15
ENDBRANCH   4  13
TORSDOF 8
ENDMDL
